MODEL 1
REMARK VINA RESULT:      -9.8      0.000      0.000
REMARK  Name = 9912519
REMARK  5 active torsions:
REMARK  status: ('A' for Active; 'I' for Inactive)
REMARK    1  A    between atoms: N_3  and  C_29
REMARK    2  A    between atoms: C_21  and  O_22
REMARK    3  A    between atoms: O_22  and  S_23
REMARK    4  A    between atoms: S_23  and  N_26
REMARK    5  A    between atoms: C_29  and  C_31
REMARK                            x       y       z     vdW  Elec       q    Type
REMARK                         _______ _______ _______ _____ _____    ______ ____
ROOT
ATOM      1  O   UNL     1      33.182 -19.422 -23.213  0.00  0.00    -0.274 OA
ATOM      2  O   UNL     1      37.633 -18.149 -22.668  0.00  0.00    -0.274 OA
ATOM      3  N   UNL     1      35.431 -18.844 -22.991  0.00  0.00    -0.226 N 
ATOM      4  C   UNL     1      35.498 -20.332 -20.630  0.00  0.00    +0.018 C 
ATOM      5  C   UNL     1      35.478 -20.885 -19.176  0.00  0.00    +0.005 C 
ATOM      6  C   UNL     1      34.154 -19.675 -21.020  0.00  0.00    +0.070 C 
ATOM      7  C   UNL     1      34.331 -21.920 -19.001  0.00  0.00    +0.022 C 
ATOM      8  C   UNL     1      33.003 -20.674 -20.770  0.00  0.00    +0.009 C 
ATOM      9  C   UNL     1      32.989 -21.255 -19.357  0.00  0.00    +0.005 C 
ATOM     10  C   UNL     1      36.800 -21.546 -18.760  0.00  0.00    +0.005 C 
ATOM     11  C   UNL     1      36.638 -19.346 -20.875  0.00  0.00    +0.086 C 
ATOM     12  C   UNL     1      34.348 -22.592 -17.630  0.00  0.00    -0.026 C 
ATOM     13  C   UNL     1      34.196 -19.333 -22.515  0.00  0.00    +0.231 C 
ATOM     14  C   UNL     1      33.858 -18.355 -20.272  0.00  0.00    +0.009 C 
ATOM     15  C   UNL     1      36.773 -21.888 -17.275  0.00  0.00    +0.026 C 
ATOM     16  C   UNL     1      35.517 -22.596 -16.841  0.00  0.00    -0.023 C 
ATOM     17  C   UNL     1      36.625 -18.734 -22.258  0.00  0.00    +0.232 C 
ATOM     18  C   UNL     1      33.231 -23.304 -17.158  0.00  0.00    -0.001 C 
ATOM     19  C   UNL     1      35.521 -23.240 -15.592  0.00  0.00    +0.035 C 
ATOM     20  C   UNL     1      33.249 -23.950 -15.919  0.00  0.00    +0.039 C 
ATOM     21  C   UNL     1      34.393 -23.913 -15.132  0.00  0.00    +0.172 C 
ENDROOT
BRANCH  21  22
ATOM     22  O   UNL     1      34.413 -24.537 -13.924  0.00  0.00    -0.349 OA
BRANCH  22  23
ATOM     23  S   UNL     1      35.708 -24.518 -12.917  0.00  0.00    +0.086 S 
ATOM     24  O   UNL     1      36.134 -23.142 -12.746  0.00  0.00    -0.046 OA
ATOM     25  O   UNL     1      36.644 -25.537 -13.358  0.00  0.00    -0.046 OA
BRANCH  23  26
ATOM     26  N   UNL     1      35.049 -25.040 -11.421  0.00  0.00    -0.194 NA
ATOM     27  H   UNL     1      34.090 -25.356 -11.564  0.00  0.00    +0.145 HD
ATOM     28  H   UNL     1      35.057 -24.266 -10.757  0.00  0.00    +0.145 HD
ENDBRANCH  23  26
ENDBRANCH  22  23
ENDBRANCH  21  22
BRANCH   3  29
ATOM     29  C   UNL     1      35.477 -18.366 -24.370  0.00  0.00    +0.129 C 
BRANCH  29  31
ATOM     30  N   UNL     1      33.345 -15.650 -25.878  0.00  0.00    -0.243 NA
ATOM     31  C   UNL     1      34.759 -17.058 -24.535  0.00  0.00    +0.017 C 
ATOM     32  C   UNL     1      34.836 -16.086 -23.554  0.00  0.00    +0.001 C 
ATOM     33  C   UNL     1      34.014 -16.805 -25.666  0.00  0.00    +0.096 C 
ATOM     34  C   UNL     1      34.162 -14.883 -23.735  0.00  0.00    +0.020 C 
ATOM     35  C   UNL     1      33.437 -14.716 -24.904  0.00  0.00    +0.099 C 
ENDBRANCH  29  31
ENDBRANCH   3  29
TORSDOF 5
ENDMDL
MODEL 2
REMARK VINA RESULT:      -9.4      3.258     10.461
REMARK  Name = 9912519
REMARK  5 active torsions:
REMARK  status: ('A' for Active; 'I' for Inactive)
REMARK    1  A    between atoms: N_3  and  C_29
REMARK    2  A    between atoms: C_21  and  O_22
REMARK    3  A    between atoms: O_22  and  S_23
REMARK    4  A    between atoms: S_23  and  N_26
REMARK    5  A    between atoms: C_29  and  C_31
REMARK                            x       y       z     vdW  Elec       q    Type
REMARK                         _______ _______ _______ _____ _____    ______ ____
ROOT
ATOM      1  O   UNL     1      37.879 -23.831 -15.486  0.00  0.00    -0.274 OA
ATOM      2  O   UNL     1      33.377 -24.890 -14.899  0.00  0.00    -0.274 OA
ATOM      3  N   UNL     1      35.638 -24.429 -15.233  0.00  0.00    -0.226 N 
ATOM      4  C   UNL     1      35.037 -22.793 -17.414  0.00  0.00    +0.018 C 
ATOM      5  C   UNL     1      34.642 -21.665 -18.410  0.00  0.00    +0.005 C 
ATOM      6  C   UNL     1      36.249 -22.397 -16.538  0.00  0.00    +0.070 C 
ATOM      7  C   UNL     1      35.842 -21.302 -19.329  0.00  0.00    +0.022 C 
ATOM      8  C   UNL     1      37.417 -21.958 -17.449  0.00  0.00    +0.009 C 
ATOM      9  C   UNL     1      37.038 -20.876 -18.458  0.00  0.00    +0.005 C 
ATOM     10  C   UNL     1      33.441 -22.030 -19.294  0.00  0.00    +0.005 C 
ATOM     11  C   UNL     1      33.880 -23.227 -16.517  0.00  0.00    +0.086 C 
ATOM     12  C   UNL     1      35.470 -20.293 -20.412  0.00  0.00    -0.026 C 
ATOM     13  C   UNL     1      36.686 -23.626 -15.730  0.00  0.00    +0.231 C 
ATOM     14  C   UNL     1      35.948 -21.278 -15.516  0.00  0.00    +0.009 C 
ATOM     15  C   UNL     1      32.994 -20.816 -20.101  0.00  0.00    +0.026 C 
ATOM     16  C   UNL     1      34.125 -20.098 -20.788  0.00  0.00    -0.023 C 
ATOM     17  C   UNL     1      34.266 -24.264 -15.486  0.00  0.00    +0.232 C 
ATOM     18  C   UNL     1      36.463 -19.600 -21.129  0.00  0.00    -0.001 C 
ATOM     19  C   UNL     1      33.804 -19.182 -21.805  0.00  0.00    +0.035 C 
ATOM     20  C   UNL     1      36.133 -18.699 -22.145  0.00  0.00    +0.039 C 
ATOM     21  C   UNL     1      34.802 -18.485 -22.479  0.00  0.00    +0.172 C 
ENDROOT
BRANCH  21  22
ATOM     22  O   UNL     1      34.477 -17.606 -23.464  0.00  0.00    -0.349 OA
BRANCH  22  23
ATOM     23  S   UNL     1      34.221 -16.006 -23.203  0.00  0.00    +0.086 S 
ATOM     24  O   UNL     1      35.511 -15.351 -23.091  0.00  0.00    -0.046 OA
ATOM     25  O   UNL     1      33.224 -15.869 -22.158  0.00  0.00    -0.046 OA
BRANCH  23  26
ATOM     26  N   UNL     1      33.503 -15.480 -24.670  0.00  0.00    -0.194 NA
ATOM     27  H   UNL     1      34.173 -15.584 -25.433  0.00  0.00    +0.145 HD
ATOM     28  H   UNL     1      33.235 -14.499 -24.585  0.00  0.00    +0.145 HD
ENDBRANCH  23  26
ENDBRANCH  22  23
ENDBRANCH  21  22
BRANCH   3  29
ATOM     29  C   UNL     1      35.999 -25.522 -14.335  0.00  0.00    +0.129 C 
BRANCH  29  31
ATOM     30  N   UNL     1      37.772 -24.598 -11.142  0.00  0.00    -0.243 NA
ATOM     31  C   UNL     1      36.228 -25.044 -12.931  0.00  0.00    +0.017 C 
ATOM     32  C   UNL     1      35.165 -24.625 -12.150  0.00  0.00    +0.001 C 
ATOM     33  C   UNL     1      37.498 -25.015 -12.398  0.00  0.00    +0.096 C 
ATOM     34  C   UNL     1      35.407 -24.189 -10.852  0.00  0.00    +0.020 C 
ATOM     35  C   UNL     1      36.716 -24.194 -10.399  0.00  0.00    +0.099 C 
ENDBRANCH  29  31
ENDBRANCH   3  29
TORSDOF 5
ENDMDL
MODEL 3
REMARK VINA RESULT:      -9.3      6.714     12.062
REMARK  Name = 9912519
REMARK  5 active torsions:
REMARK  status: ('A' for Active; 'I' for Inactive)
REMARK    1  A    between atoms: N_3  and  C_29
REMARK    2  A    between atoms: C_21  and  O_22
REMARK    3  A    between atoms: O_22  and  S_23
REMARK    4  A    between atoms: S_23  and  N_26
REMARK    5  A    between atoms: C_29  and  C_31
REMARK                            x       y       z     vdW  Elec       q    Type
REMARK                         _______ _______ _______ _____ _____    ______ ____
ROOT
ATOM      1  O   UNL     1      34.897 -16.531 -19.903  0.00  0.00    -0.274 OA
ATOM      2  O   UNL     1      35.279 -17.492 -24.448  0.00  0.00    -0.274 OA
ATOM      3  N   UNL     1      35.166 -16.993 -22.174  0.00  0.00    -0.226 N 
ATOM      4  C   UNL     1      34.148 -14.453 -22.729  0.00  0.00    +0.018 C 
ATOM      5  C   UNL     1      33.307 -13.189 -23.067  0.00  0.00    +0.005 C 
ATOM      6  C   UNL     1      33.652 -15.154 -21.443  0.00  0.00    +0.070 C 
ATOM      7  C   UNL     1      33.340 -12.178 -21.886  0.00  0.00    +0.022 C 
ATOM      8  C   UNL     1      33.606 -14.132 -20.287  0.00  0.00    +0.009 C 
ATOM      9  C   UNL     1      32.814 -12.867 -20.614  0.00  0.00    +0.005 C 
ATOM     10  C   UNL     1      33.777 -12.469 -24.339  0.00  0.00    +0.005 C 
ATOM     11  C   UNL     1      34.193 -15.461 -23.875  0.00  0.00    +0.086 C 
ATOM     12  C   UNL     1      32.639 -10.863 -22.217  0.00  0.00    -0.026 C 
ATOM     13  C   UNL     1      34.645 -16.266 -21.082  0.00  0.00    +0.231 C 
ATOM     14  C   UNL     1      32.268 -15.826 -21.587  0.00  0.00    +0.009 C 
ATOM     15  C   UNL     1      32.797 -11.363 -24.712  0.00  0.00    +0.026 C 
ATOM     16  C   UNL     1      32.419 -10.477 -23.555  0.00  0.00    -0.023 C 
ATOM     17  C   UNL     1      34.937 -16.734 -23.536  0.00  0.00    +0.232 C 
ATOM     18  C   UNL     1      32.279  -9.958 -21.201  0.00  0.00    -0.001 C 
ATOM     19  C   UNL     1      31.793  -9.251 -23.840  0.00  0.00    +0.035 C 
ATOM     20  C   UNL     1      31.668  -8.737 -21.497  0.00  0.00    +0.039 C 
ATOM     21  C   UNL     1      31.419  -8.386 -22.817  0.00  0.00    +0.172 C 
ENDROOT
BRANCH  21  22
ATOM     22  O   UNL     1      30.820  -7.200 -23.108  0.00  0.00    -0.349 OA
BRANCH  22  23
ATOM     23  S   UNL     1      31.637  -5.785 -23.259  0.00  0.00    +0.086 S 
ATOM     24  O   UNL     1      30.750  -4.809 -23.865  0.00  0.00    -0.046 OA
ATOM     25  O   UNL     1      32.937  -6.069 -23.838  0.00  0.00    -0.046 OA
BRANCH  23  26
ATOM     26  N   UNL     1      31.894  -5.305 -21.632  0.00  0.00    -0.194 NA
ATOM     27  H   UNL     1      31.008  -5.329 -21.127  0.00  0.00    +0.145 HD
ATOM     28  H   UNL     1      32.272  -4.358 -21.612  0.00  0.00    +0.145 HD
ENDBRANCH  23  26
ENDBRANCH  22  23
ENDBRANCH  21  22
BRANCH   3  29
ATOM     29  C   UNL     1      35.998 -18.154 -21.872  0.00  0.00    +0.129 C 
BRANCH  29  31
ATOM     30  N   UNL     1      35.244 -21.123 -19.679  0.00  0.00    -0.243 NA
ATOM     31  C   UNL     1      35.228 -19.225 -21.155  0.00  0.00    +0.017 C 
ATOM     32  C   UNL     1      33.854 -19.315 -21.295  0.00  0.00    +0.001 C 
ATOM     33  C   UNL     1      35.877 -20.135 -20.349  0.00  0.00    +0.096 C 
ATOM     34  C   UNL     1      33.167 -20.318 -20.620  0.00  0.00    +0.020 C 
ATOM     35  C   UNL     1      33.901 -21.190 -19.832  0.00  0.00    +0.099 C 
ENDBRANCH  29  31
ENDBRANCH   3  29
TORSDOF 5
ENDMDL
MODEL 4
REMARK VINA RESULT:      -8.4      1.784      3.249
REMARK  Name = 9912519
REMARK  5 active torsions:
REMARK  status: ('A' for Active; 'I' for Inactive)
REMARK    1  A    between atoms: N_3  and  C_29
REMARK    2  A    between atoms: C_21  and  O_22
REMARK    3  A    between atoms: O_22  and  S_23
REMARK    4  A    between atoms: S_23  and  N_26
REMARK    5  A    between atoms: C_29  and  C_31
REMARK                            x       y       z     vdW  Elec       q    Type
REMARK                         _______ _______ _______ _____ _____    ______ ____
ROOT
ATOM      1  O   UNL     1      36.586 -18.928 -21.453  0.00  0.00    -0.274 OA
ATOM      2  O   UNL     1      32.072 -19.977 -21.956  0.00  0.00    -0.274 OA
ATOM      3  N   UNL     1      34.308 -19.383 -21.670  0.00  0.00    -0.226 N 
ATOM      4  C   UNL     1      34.479 -20.936 -19.356  0.00  0.00    +0.018 C 
ATOM      5  C   UNL     1      34.614 -22.040 -18.268  0.00  0.00    +0.005 C 
ATOM      6  C   UNL     1      35.742 -20.837 -20.243  0.00  0.00    +0.070 C 
ATOM      7  C   UNL     1      35.853 -21.771 -17.368  0.00  0.00    +0.022 C 
ATOM      8  C   UNL     1      36.985 -20.651 -19.345  0.00  0.00    +0.009 C 
ATOM      9  C   UNL     1      37.115 -21.706 -18.248  0.00  0.00    +0.005 C 
ATOM     10  C   UNL     1      33.375 -22.162 -17.371  0.00  0.00    +0.005 C 
ATOM     11  C   UNL     1      33.249 -21.121 -20.241  0.00  0.00    +0.086 C 
ATOM     12  C   UNL     1      35.957 -22.751 -16.202  0.00  0.00    -0.026 C 
ATOM     13  C   UNL     1      35.601 -19.610 -21.154  0.00  0.00    +0.231 C 
ATOM     14  C   UNL     1      35.958 -22.054 -21.170  0.00  0.00    +0.009 C 
ATOM     15  C   UNL     1      33.500 -23.380 -16.462  0.00  0.00    +0.026 C 
ATOM     16  C   UNL     1      34.831 -23.478 -15.766  0.00  0.00    -0.023 C 
ATOM     17  C   UNL     1      33.144 -20.106 -21.358  0.00  0.00    +0.232 C 
ATOM     18  C   UNL     1      37.153 -22.885 -15.472  0.00  0.00    -0.001 C 
ATOM     19  C   UNL     1      34.941 -24.358 -14.675  0.00  0.00    +0.035 C 
ATOM     20  C   UNL     1      37.247 -23.754 -14.383  0.00  0.00    +0.039 C 
ATOM     21  C   UNL     1      36.143 -24.496 -13.987  0.00  0.00    +0.172 C 
ENDROOT
BRANCH  21  22
ATOM     22  O   UNL     1      36.232 -25.347 -12.930  0.00  0.00    -0.349 OA
BRANCH  22  23
ATOM     23  S   UNL     1      36.498 -24.852 -11.389  0.00  0.00    +0.086 S 
ATOM     24  O   UNL     1      37.904 -25.046 -11.084  0.00  0.00    -0.046 OA
ATOM     25  O   UNL     1      35.467 -25.423 -10.542  0.00  0.00    -0.046 OA
BRANCH  23  26
ATOM     26  N   UNL     1      36.219 -23.160 -11.467  0.00  0.00    -0.194 NA
ATOM     27  H   UNL     1      36.753 -22.694 -10.734  0.00  0.00    +0.145 HD
ATOM     28  H   UNL     1      35.225 -22.973 -11.334  0.00  0.00    +0.145 HD
ENDBRANCH  23  26
ENDBRANCH  22  23
ENDBRANCH  21  22
BRANCH   3  29
ATOM     29  C   UNL     1      34.157 -18.318 -22.657  0.00  0.00    +0.129 C 
BRANCH  29  31
ATOM     30  N   UNL     1      34.891 -14.690 -21.952  0.00  0.00    -0.243 NA
ATOM     31  C   UNL     1      34.104 -16.962 -22.015  0.00  0.00    +0.017 C 
ATOM     32  C   UNL     1      33.264 -16.725 -20.942  0.00  0.00    +0.001 C 
ATOM     33  C   UNL     1      34.890 -15.932 -22.485  0.00  0.00    +0.096 C 
ATOM     34  C   UNL     1      33.236 -15.460 -20.366  0.00  0.00    +0.020 C 
ATOM     35  C   UNL     1      34.062 -14.485 -20.904  0.00  0.00    +0.099 C 
ENDBRANCH  29  31
ENDBRANCH   3  29
TORSDOF 5
ENDMDL
MODEL 5
REMARK VINA RESULT:      -8.3      7.269     12.667
REMARK  Name = 9912519
REMARK  5 active torsions:
REMARK  status: ('A' for Active; 'I' for Inactive)
REMARK    1  A    between atoms: N_3  and  C_29
REMARK    2  A    between atoms: C_21  and  O_22
REMARK    3  A    between atoms: O_22  and  S_23
REMARK    4  A    between atoms: S_23  and  N_26
REMARK    5  A    between atoms: C_29  and  C_31
REMARK                            x       y       z     vdW  Elec       q    Type
REMARK                         _______ _______ _______ _____ _____    ______ ____
ROOT
ATOM      1  O   UNL     1      34.315 -16.129 -24.031  0.00  0.00    -0.274 OA
ATOM      2  O   UNL     1      31.978 -16.887 -20.070  0.00  0.00    -0.274 OA
ATOM      3  N   UNL     1      33.081 -16.529 -22.092  0.00  0.00    -0.226 N 
ATOM      4  C   UNL     1      32.598 -13.784 -21.929  0.00  0.00    +0.018 C 
ATOM      5  C   UNL     1      32.579 -12.254 -21.647  0.00  0.00    +0.005 C 
ATOM      6  C   UNL     1      33.922 -14.237 -22.587  0.00  0.00    +0.070 C 
ATOM      7  C   UNL     1      32.798 -11.454 -22.962  0.00  0.00    +0.022 C 
ATOM      8  C   UNL     1      34.183 -13.387 -23.850  0.00  0.00    +0.009 C 
ATOM      9  C   UNL     1      34.132 -11.880 -23.600  0.00  0.00    +0.005 C 
ATOM     10  C   UNL     1      31.275 -11.774 -20.994  0.00  0.00    +0.005 C 
ATOM     11  C   UNL     1      32.338 -14.622 -20.679  0.00  0.00    +0.086 C 
ATOM     12  C   UNL     1      32.657  -9.946 -22.764  0.00  0.00    -0.026 C 
ATOM     13  C   UNL     1      33.781 -15.707 -23.001  0.00  0.00    +0.231 C 
ATOM     14  C   UNL     1      35.150 -14.155 -21.653  0.00  0.00    +0.009 C 
ATOM     15  C   UNL     1      31.403 -10.314 -20.575  0.00  0.00    +0.026 C 
ATOM     16  C   UNL     1      31.968  -9.425 -21.650  0.00  0.00    -0.023 C 
ATOM     17  C   UNL     1      32.435 -16.113 -20.916  0.00  0.00    +0.232 C 
ATOM     18  C   UNL     1      33.126  -9.041 -23.734  0.00  0.00    -0.001 C 
ATOM     19  C   UNL     1      31.828  -8.034 -21.497  0.00  0.00    +0.035 C 
ATOM     20  C   UNL     1      32.971  -7.661 -23.577  0.00  0.00    +0.039 C 
ATOM     21  C   UNL     1      32.327  -7.157 -22.455  0.00  0.00    +0.172 C 
ENDROOT
BRANCH  21  22
ATOM     22  O   UNL     1      32.179  -5.814 -22.297  0.00  0.00    -0.349 OA
BRANCH  22  23
ATOM     23  S   UNL     1      30.861  -4.982 -22.810  0.00  0.00    +0.086 S 
ATOM     24  O   UNL     1      29.803  -5.155 -21.833  0.00  0.00    -0.046 OA
ATOM     25  O   UNL     1      30.640  -5.297 -24.210  0.00  0.00    -0.046 OA
BRANCH  23  26
ATOM     26  N   UNL     1      31.374  -3.346 -22.727  0.00  0.00    -0.194 NA
ATOM     27  H   UNL     1      32.393  -3.308 -22.747  0.00  0.00    +0.145 HD
ATOM     28  H   UNL     1      31.034  -2.927 -21.862  0.00  0.00    +0.145 HD
ENDBRANCH  23  26
ENDBRANCH  22  23
ENDBRANCH  21  22
BRANCH   3  29
ATOM     29  C   UNL     1      33.050 -17.962 -22.370  0.00  0.00    +0.129 C 
BRANCH  29  31
ATOM     30  N   UNL     1      36.354 -18.871 -20.803  0.00  0.00    -0.243 NA
ATOM     31  C   UNL     1      34.082 -18.710 -21.577  0.00  0.00    +0.017 C 
ATOM     32  C   UNL     1      33.749 -19.879 -20.916  0.00  0.00    +0.001 C 
ATOM     33  C   UNL     1      35.377 -18.245 -21.497  0.00  0.00    +0.096 C 
ATOM     34  C   UNL     1      34.726 -20.552 -20.191  0.00  0.00    +0.020 C 
ATOM     35  C   UNL     1      36.002 -20.011 -20.166  0.00  0.00    +0.099 C 
ENDBRANCH  29  31
ENDBRANCH   3  29
TORSDOF 5
ENDMDL
MODEL 6
REMARK VINA RESULT:      -8.2      5.184      8.326
REMARK  Name = 9912519
REMARK  5 active torsions:
REMARK  status: ('A' for Active; 'I' for Inactive)
REMARK    1  A    between atoms: N_3  and  C_29
REMARK    2  A    between atoms: C_21  and  O_22
REMARK    3  A    between atoms: O_22  and  S_23
REMARK    4  A    between atoms: S_23  and  N_26
REMARK    5  A    between atoms: C_29  and  C_31
REMARK                            x       y       z     vdW  Elec       q    Type
REMARK                         _______ _______ _______ _____ _____    ______ ____
ROOT
ATOM      1  O   UNL     1      34.211 -10.825 -24.724  0.00  0.00    -0.274 OA
ATOM      2  O   UNL     1      30.430 -10.363 -22.038  0.00  0.00    -0.274 OA
ATOM      3  N   UNL     1      32.364 -10.555 -23.326  0.00  0.00    -0.226 N 
ATOM      4  C   UNL     1      32.795 -13.149 -22.387  0.00  0.00    +0.018 C 
ATOM      5  C   UNL     1      32.824 -14.674 -22.083  0.00  0.00    +0.005 C 
ATOM      6  C   UNL     1      33.216 -12.838 -23.842  0.00  0.00    +0.070 C 
ATOM      7  C   UNL     1      34.243 -15.255 -22.341  0.00  0.00    +0.022 C 
ATOM      8  C   UNL     1      34.590 -13.484 -24.126  0.00  0.00    +0.009 C 
ATOM      9  C   UNL     1      34.649 -14.975 -23.800  0.00  0.00    +0.005 C 
ATOM     10  C   UNL     1      32.411 -15.014 -20.644  0.00  0.00    +0.005 C 
ATOM     11  C   UNL     1      31.436 -12.512 -22.103  0.00  0.00    +0.086 C 
ATOM     12  C   UNL     1      34.362 -16.722 -21.933  0.00  0.00    -0.026 C 
ATOM     13  C   UNL     1      33.343 -11.317 -23.997  0.00  0.00    +0.231 C 
ATOM     14  C   UNL     1      32.200 -13.309 -24.906  0.00  0.00    +0.009 C 
ATOM     15  C   UNL     1      32.278 -16.523 -20.477  0.00  0.00    +0.026 C 
ATOM     16  C   UNL     1      33.446 -17.297 -21.028  0.00  0.00    -0.023 C 
ATOM     17  C   UNL     1      31.363 -11.047 -22.471  0.00  0.00    +0.232 C 
ATOM     18  C   UNL     1      35.440 -17.512 -22.373  0.00  0.00    -0.001 C 
ATOM     19  C   UNL     1      33.586 -18.642 -20.645  0.00  0.00    +0.035 C 
ATOM     20  C   UNL     1      35.574 -18.845 -21.978  0.00  0.00    +0.039 C 
ATOM     21  C   UNL     1      34.644 -19.413 -21.118  0.00  0.00    +0.172 C 
ENDROOT
BRANCH  21  22
ATOM     22  O   UNL     1      34.769 -20.711 -20.734  0.00  0.00    -0.349 OA
BRANCH  22  23
ATOM     23  S   UNL     1      36.038 -21.280 -19.862  0.00  0.00    +0.086 S 
ATOM     24  O   UNL     1      36.650 -20.163 -19.166  0.00  0.00    -0.046 OA
ATOM     25  O   UNL     1      36.828 -22.146 -20.718  0.00  0.00    -0.046 OA
BRANCH  23  26
ATOM     26  N   UNL     1      35.288 -22.272 -18.680  0.00  0.00    -0.194 NA
ATOM     27  H   UNL     1      34.330 -21.957 -18.530  0.00  0.00    +0.145 HD
ATOM     28  H   UNL     1      35.808 -22.210 -17.804  0.00  0.00    +0.145 HD
ENDBRANCH  23  26
ENDBRANCH  22  23
ENDBRANCH  21  22
BRANCH   3  29
ATOM     29  C   UNL     1      32.354  -9.115 -23.564  0.00  0.00    +0.129 C 
BRANCH  29  31
ATOM     30  N   UNL     1      32.802  -8.271 -19.919  0.00  0.00    -0.243 NA
ATOM     31  C   UNL     1      32.357  -8.334 -22.282  0.00  0.00    +0.017 C 
ATOM     32  C   UNL     1      31.937  -7.016 -22.262  0.00  0.00    +0.001 C 
ATOM     33  C   UNL     1      32.776  -8.917 -21.106  0.00  0.00    +0.096 C 
ATOM     34  C   UNL     1      31.948  -6.317 -21.059  0.00  0.00    +0.020 C 
ATOM     35  C   UNL     1      32.386  -6.984 -19.926  0.00  0.00    +0.099 C 
ENDBRANCH  29  31
ENDBRANCH   3  29
TORSDOF 5
ENDMDL
MODEL 7
REMARK VINA RESULT:      -7.8      3.676     10.184
REMARK  Name = 9912519
REMARK  5 active torsions:
REMARK  status: ('A' for Active; 'I' for Inactive)
REMARK    1  A    between atoms: N_3  and  C_29
REMARK    2  A    between atoms: C_21  and  O_22
REMARK    3  A    between atoms: O_22  and  S_23
REMARK    4  A    between atoms: S_23  and  N_26
REMARK    5  A    between atoms: C_29  and  C_31
REMARK                            x       y       z     vdW  Elec       q    Type
REMARK                         _______ _______ _______ _____ _____    ______ ____
ROOT
ATOM      1  O   UNL     1      32.992 -23.090 -16.495  0.00  0.00    -0.274 OA
ATOM      2  O   UNL     1      37.609 -23.020 -15.859  0.00  0.00    -0.274 OA
ATOM      3  N   UNL     1      35.292 -22.996 -16.122  0.00  0.00    -0.226 N 
ATOM      4  C   UNL     1      35.513 -21.380 -18.388  0.00  0.00    +0.018 C 
ATOM      5  C   UNL     1      35.698 -20.751 -19.799  0.00  0.00    +0.005 C 
ATOM      6  C   UNL     1      34.365 -22.415 -18.360  0.00  0.00    +0.070 C 
ATOM      7  C   UNL     1      34.382 -20.069 -20.269  0.00  0.00    +0.022 C 
ATOM      8  C   UNL     1      33.074 -21.763 -18.904  0.00  0.00    +0.009 C 
ATOM      9  C   UNL     1      33.246 -21.108 -20.273  0.00  0.00    +0.005 C 
ATOM     10  C   UNL     1      36.832 -19.717 -19.858  0.00  0.00    +0.005 C 
ATOM     11  C   UNL     1      36.791 -22.023 -17.852  0.00  0.00    +0.086 C 
ATOM     12  C   UNL     1      34.546 -19.321 -21.590  0.00  0.00    -0.026 C 
ATOM     13  C   UNL     1      34.129 -22.840 -16.905  0.00  0.00    +0.231 C 
ATOM     14  C   UNL     1      34.660 -23.706 -19.156  0.00  0.00    +0.009 C 
ATOM     15  C   UNL     1      37.079 -19.289 -21.300  0.00  0.00    +0.026 C 
ATOM     16  C   UNL     1      35.822 -18.932 -22.047  0.00  0.00    -0.023 C 
ATOM     17  C   UNL     1      36.611 -22.713 -16.519  0.00  0.00    +0.232 C 
ATOM     18  C   UNL     1      33.425 -18.918 -22.339  0.00  0.00    -0.001 C 
ATOM     19  C   UNL     1      35.951 -18.223 -23.254  0.00  0.00    +0.035 C 
ATOM     20  C   UNL     1      33.565 -18.205 -23.532  0.00  0.00    +0.039 C 
ATOM     21  C   UNL     1      34.829 -17.862 -23.994  0.00  0.00    +0.172 C 
ENDROOT
BRANCH  21  22
ATOM     22  O   UNL     1      34.969 -17.171 -25.156  0.00  0.00    -0.349 OA
BRANCH  22  23
ATOM     23  S   UNL     1      33.904 -16.031 -25.667  0.00  0.00    +0.086 S 
ATOM     24  O   UNL     1      32.753 -16.706 -26.239  0.00  0.00    -0.046 OA
ATOM     25  O   UNL     1      34.634 -15.033 -26.427  0.00  0.00    -0.046 OA
BRANCH  23  26
ATOM     26  N   UNL     1      33.391 -15.291 -24.206  0.00  0.00    -0.194 NA
ATOM     27  H   UNL     1      33.141 -16.011 -23.530  0.00  0.00    +0.145 HD
ATOM     28  H   UNL     1      32.580 -14.701 -24.391  0.00  0.00    +0.145 HD
ENDBRANCH  23  26
ENDBRANCH  22  23
ENDBRANCH  21  22
BRANCH   3  29
ATOM     29  C   UNL     1      35.129 -23.541 -14.778  0.00  0.00    +0.129 C 
BRANCH  29  31
ATOM     30  N   UNL     1      36.454 -26.998 -15.480  0.00  0.00    -0.243 NA
ATOM     31  C   UNL     1      35.868 -24.836 -14.604  0.00  0.00    +0.017 C 
ATOM     32  C   UNL     1      36.614 -25.071 -13.462  0.00  0.00    +0.001 C 
ATOM     33  C   UNL     1      35.814 -25.811 -15.576  0.00  0.00    +0.096 C 
ATOM     34  C   UNL     1      37.287 -26.280 -13.327  0.00  0.00    +0.020 C 
ATOM     35  C   UNL     1      37.176 -27.202 -14.355  0.00  0.00    +0.099 C 
ENDBRANCH  29  31
ENDBRANCH   3  29
TORSDOF 5
ENDMDL
MODEL 8
REMARK VINA RESULT:      -7.4      1.607      3.310
REMARK  Name = 9912519
REMARK  5 active torsions:
REMARK  status: ('A' for Active; 'I' for Inactive)
REMARK    1  A    between atoms: N_3  and  C_29
REMARK    2  A    between atoms: C_21  and  O_22
REMARK    3  A    between atoms: O_22  and  S_23
REMARK    4  A    between atoms: S_23  and  N_26
REMARK    5  A    between atoms: C_29  and  C_31
REMARK                            x       y       z     vdW  Elec       q    Type
REMARK                         _______ _______ _______ _____ _____    ______ ____
ROOT
ATOM      1  O   UNL     1      36.349 -18.444 -20.779  0.00  0.00    -0.274 OA
ATOM      2  O   UNL     1      31.911 -19.787 -21.260  0.00  0.00    -0.274 OA
ATOM      3  N   UNL     1      34.106 -19.055 -20.972  0.00  0.00    -0.226 N 
ATOM      4  C   UNL     1      34.540 -20.972 -18.989  0.00  0.00    +0.018 C 
ATOM      5  C   UNL     1      34.829 -22.235 -18.128  0.00  0.00    +0.005 C 
ATOM      6  C   UNL     1      35.735 -20.605 -19.900  0.00  0.00    +0.070 C 
ATOM      7  C   UNL     1      36.095 -22.020 -17.250  0.00  0.00    +0.022 C 
ATOM      8  C   UNL     1      37.012 -20.471 -19.040  0.00  0.00    +0.009 C 
ATOM      9  C   UNL     1      37.292 -21.687 -18.160  0.00  0.00    +0.005 C 
ATOM     10  C   UNL     1      33.660 -22.624 -17.212  0.00  0.00    +0.005 C 
ATOM     11  C   UNL     1      33.277 -21.107 -19.837  0.00  0.00    +0.086 C 
ATOM     12  C   UNL     1      36.347 -23.178 -16.288  0.00  0.00    -0.026 C 
ATOM     13  C   UNL     1      35.442 -19.254 -20.565  0.00  0.00    +0.231 C 
ATOM     14  C   UNL     1      35.992 -21.614 -21.041  0.00  0.00    +0.009 C 
ATOM     15  C   UNL     1      33.937 -23.968 -16.547  0.00  0.00    +0.026 C 
ATOM     16  C   UNL     1      35.311 -24.069 -15.941  0.00  0.00    -0.023 C 
ATOM     17  C   UNL     1      33.025 -19.923 -20.744  0.00  0.00    +0.232 C 
ATOM     18  C   UNL     1      37.592 -23.331 -15.649  0.00  0.00    -0.001 C 
ATOM     19  C   UNL     1      35.557 -25.115 -15.034  0.00  0.00    +0.035 C 
ATOM     20  C   UNL     1      37.821 -24.368 -14.742  0.00  0.00    +0.039 C 
ATOM     21  C   UNL     1      36.805 -25.265 -14.438  0.00  0.00    +0.172 C 
ENDROOT
BRANCH  21  22
ATOM     22  O   UNL     1      37.026 -26.278 -13.558  0.00  0.00    -0.349 OA
BRANCH  22  23
ATOM     23  S   UNL     1      37.226 -26.050 -11.946  0.00  0.00    +0.086 S 
ATOM     24  O   UNL     1      38.249 -25.039 -11.751  0.00  0.00    -0.046 OA
ATOM     25  O   UNL     1      37.336 -27.351 -11.312  0.00  0.00    -0.046 OA
BRANCH  23  26
ATOM     26  N   UNL     1      35.729 -25.366 -11.458  0.00  0.00    -0.194 NA
ATOM     27  H   UNL     1      35.898 -24.471 -11.000  0.00  0.00    +0.145 HD
ATOM     28  H   UNL     1      35.262 -25.999 -10.808  0.00  0.00    +0.145 HD
ENDBRANCH  23  26
ENDBRANCH  22  23
ENDBRANCH  21  22
BRANCH   3  29
ATOM     29  C   UNL     1      33.811 -17.850 -21.741  0.00  0.00    +0.129 C 
BRANCH  29  31
ATOM     30  N   UNL     1      34.626 -16.942 -25.306  0.00  0.00    -0.243 NA
ATOM     31  C   UNL     1      34.212 -17.990 -23.180  0.00  0.00    +0.017 C 
ATOM     32  C   UNL     1      34.525 -19.231 -23.705  0.00  0.00    +0.001 C 
ATOM     33  C   UNL     1      34.274 -16.885 -24.002  0.00  0.00    +0.096 C 
ATOM     34  C   UNL     1      34.892 -19.331 -25.043  0.00  0.00    +0.020 C 
ATOM     35  C   UNL     1      34.926 -18.167 -25.794  0.00  0.00    +0.099 C 
ENDBRANCH  29  31
ENDBRANCH   3  29
TORSDOF 5
ENDMDL
MODEL 9
REMARK VINA RESULT:      -7.4      5.826      9.280
REMARK  Name = 9912519
REMARK  5 active torsions:
REMARK  status: ('A' for Active; 'I' for Inactive)
REMARK    1  A    between atoms: N_3  and  C_29
REMARK    2  A    between atoms: C_21  and  O_22
REMARK    3  A    between atoms: O_22  and  S_23
REMARK    4  A    between atoms: S_23  and  N_26
REMARK    5  A    between atoms: C_29  and  C_31
REMARK                            x       y       z     vdW  Elec       q    Type
REMARK                         _______ _______ _______ _____ _____    ______ ____
ROOT
ATOM      1  O   UNL     1      33.479  -9.250 -23.273  0.00  0.00    -0.274 OA
ATOM      2  O   UNL     1      30.748  -9.542 -19.507  0.00  0.00    -0.274 OA
ATOM      3  N   UNL     1      32.173  -9.370 -21.343  0.00  0.00    -0.226 N 
ATOM      4  C   UNL     1      32.745 -12.100 -21.222  0.00  0.00    +0.018 C 
ATOM      5  C   UNL     1      32.790 -13.653 -21.310  0.00  0.00    +0.005 C 
ATOM      6  C   UNL     1      32.708 -11.440 -22.621  0.00  0.00    +0.070 C 
ATOM      7  C   UNL     1      34.028 -14.117 -22.128  0.00  0.00    +0.022 C 
ATOM      8  C   UNL     1      33.891 -11.964 -23.465  0.00  0.00    +0.009 C 
ATOM      9  C   UNL     1      33.973 -13.487 -23.532  0.00  0.00    +0.005 C 
ATOM     10  C   UNL     1      32.829 -14.336 -19.935  0.00  0.00    +0.005 C 
ATOM     11  C   UNL     1      31.575 -11.586 -20.386  0.00  0.00    +0.086 C 
ATOM     12  C   UNL     1      34.194 -15.635 -22.133  0.00  0.00    -0.026 C 
ATOM     13  C   UNL     1      32.856  -9.923 -22.447  0.00  0.00    +0.231 C 
ATOM     14  C   UNL     1      31.389 -11.671 -23.392  0.00  0.00    +0.009 C 
ATOM     15  C   UNL     1      32.678 -15.845 -20.093  0.00  0.00    +0.026 C 
ATOM     16  C   UNL     1      33.577 -16.433 -21.148  0.00  0.00    -0.023 C 
ATOM     17  C   UNL     1      31.464 -10.077 -20.358  0.00  0.00    +0.232 C 
ATOM     18  C   UNL     1      35.041 -16.269 -23.062  0.00  0.00    -0.001 C 
ATOM     19  C   UNL     1      33.762 -17.827 -21.155  0.00  0.00    +0.035 C 
ATOM     20  C   UNL     1      35.224 -17.653 -23.052  0.00  0.00    +0.039 C 
ATOM     21  C   UNL     1      34.580 -18.434 -22.102  0.00  0.00    +0.172 C 
ENDROOT
BRANCH  21  22
ATOM     22  O   UNL     1      34.753 -19.783 -22.093  0.00  0.00    -0.349 OA
BRANCH  22  23
ATOM     23  S   UNL     1      35.231 -20.626 -20.768  0.00  0.00    +0.086 S 
ATOM     24  O   UNL     1      35.946 -21.807 -21.214  0.00  0.00    -0.046 OA
ATOM     25  O   UNL     1      34.099 -20.737 -19.866  0.00  0.00    -0.046 OA
BRANCH  23  26
ATOM     26  N   UNL     1      36.375 -19.581 -20.030  0.00  0.00    -0.194 NA
ATOM     27  H   UNL     1      37.280 -19.693 -20.486  0.00  0.00    +0.145 HD
ATOM     28  H   UNL     1      36.460 -19.815 -19.041  0.00  0.00    +0.145 HD
ENDBRANCH  23  26
ENDBRANCH  22  23
ENDBRANCH  21  22
BRANCH   3  29
ATOM     29  C   UNL     1      32.163  -7.915 -21.222  0.00  0.00    +0.129 C 
BRANCH  29  31
ATOM     30  N   UNL     1      32.055  -5.396 -24.022  0.00  0.00    -0.243 NA
ATOM     31  C   UNL     1      31.780  -7.247 -22.511  0.00  0.00    +0.017 C 
ATOM     32  C   UNL     1      30.843  -7.823 -23.349  0.00  0.00    +0.001 C 
ATOM     33  C   UNL     1      32.356  -6.050 -22.878  0.00  0.00    +0.096 C 
ATOM     34  C   UNL     1      30.506  -7.181 -24.536  0.00  0.00    +0.020 C 
ATOM     35  C   UNL     1      31.135  -5.980 -24.824  0.00  0.00    +0.099 C 
ENDBRANCH  29  31
ENDBRANCH   3  29
TORSDOF 5
ENDMDL
