MODEL 1
REMARK VINA RESULT:     -10.9      0.000      0.000
REMARK  Name = 6102821
REMARK  5 active torsions:
REMARK  status: ('A' for Active; 'I' for Inactive)
REMARK    1  A    between atoms: N_2  and  S_20
REMARK    2  A    between atoms: C_5  and  C_13
REMARK    3  A    between atoms: C_10  and  O_31
REMARK    4  A    between atoms: C_17  and  O_18
REMARK    5  A    between atoms: S_20  and  C_25
REMARK                            x       y       z     vdW  Elec       q    Type
REMARK                         _______ _______ _______ _____ _____    ______ ____
ROOT
ATOM      1  O   UNL     1      32.294 -22.808 -17.740  0.00  0.00    -0.413 OA
ATOM      2  N   UNL     1      33.901 -22.461 -19.584  0.00  0.00    -0.158 N 
ATOM      3  N   UNL     1      34.482 -23.273 -17.372  0.00  0.00    -0.350 NA
ATOM      4  C   UNL     1      32.420 -23.247 -16.453  0.00  0.00    +0.175 C 
ATOM      5  C   UNL     1      31.413 -23.396 -15.508  0.00  0.00    +0.024 C 
ATOM      6  C   UNL     1      33.760 -23.532 -16.231  0.00  0.00    +0.173 C 
ATOM      7  C   UNL     1      33.568 -22.852 -18.219  0.00  0.00    +0.364 C 
ATOM      8  C   UNL     1      31.822 -23.870 -14.256  0.00  0.00    +0.093 C 
ATOM      9  C   UNL     1      34.154 -24.004 -14.971  0.00  0.00    +0.068 C 
ATOM     10  C   UNL     1      33.164 -24.168 -13.991  0.00  0.00    +0.123 C 
ATOM     11  H   UNL     1      34.558 -22.954 -20.125  0.00  0.00    +0.179 HD
ENDROOT
BRANCH   5  13
ATOM     12  N   UNL     1      28.043 -21.822 -15.281  0.00  0.00    -0.210 NA
ATOM     13  C   UNL     1      30.042 -23.079 -15.813  0.00  0.00    +0.019 C 
ATOM     14  C   UNL     1      29.384 -23.677 -16.884  0.00  0.00    +0.006 C 
ATOM     15  C   UNL     1      29.329 -22.164 -15.049  0.00  0.00    +0.102 C 
ATOM     16  C   UNL     1      28.059 -23.350 -17.153  0.00  0.00    +0.058 C 
ATOM     17  C   UNL     1      27.439 -22.424 -16.329  0.00  0.00    +0.225 C 
BRANCH  17  18
ATOM     18  O   UNL     1      26.135 -22.084 -16.575  0.00  0.00    -0.456 OA
ATOM     19  C   UNL     1      25.899 -21.196 -17.661  0.00  0.00    +0.254 C 
ENDBRANCH  17  18
ENDBRANCH   5  13
BRANCH   2  20
ATOM     20  S   UNL     1      33.067 -21.080 -20.194  0.00  0.00    +0.078 S 
ATOM     21  O   UNL     1      32.516 -20.324 -19.085  0.00  0.00    -0.150 OA
ATOM     22  O   UNL     1      32.227 -21.465 -21.312  0.00  0.00    -0.150 OA
BRANCH  20  25
ATOM     23 CL   UNL     1      36.041 -21.179 -18.927  0.00  0.00    -0.081 Cl
ATOM     24 CL   UNL     1      34.870 -17.598 -23.897  0.00  0.00    -0.082 Cl
ATOM     25  C   UNL     1      34.412 -20.144 -20.862  0.00  0.00    +0.137 C 
ATOM     26  C   UNL     1      35.679 -20.201 -20.303  0.00  0.00    +0.077 C 
ATOM     27  C   UNL     1      34.149 -19.348 -21.968  0.00  0.00    +0.032 C 
ATOM     28  C   UNL     1      35.179 -18.592 -22.526  0.00  0.00    +0.059 C 
ATOM     29  C   UNL     1      36.709 -19.443 -20.862  0.00  0.00    +0.014 C 
ATOM     30  C   UNL     1      36.459 -18.639 -21.975  0.00  0.00    +0.012 C 
ENDBRANCH  20  25
ENDBRANCH   2  20
BRANCH  10  31
ATOM     31  O   UNL     1      33.518 -24.628 -12.757  0.00  0.00    -0.475 OA
ATOM     32  C   UNL     1      34.863 -24.400 -12.343  0.00  0.00    +0.252 C 
ENDBRANCH  10  31
TORSDOF 5
ENDMDL
MODEL 2
REMARK VINA RESULT:     -10.7      3.860      7.753
REMARK  Name = 6102821
REMARK  5 active torsions:
REMARK  status: ('A' for Active; 'I' for Inactive)
REMARK    1  A    between atoms: N_2  and  S_20
REMARK    2  A    between atoms: C_5  and  C_13
REMARK    3  A    between atoms: C_10  and  O_31
REMARK    4  A    between atoms: C_17  and  O_18
REMARK    5  A    between atoms: S_20  and  C_25
REMARK                            x       y       z     vdW  Elec       q    Type
REMARK                         _______ _______ _______ _____ _____    ______ ____
ROOT
ATOM      1  O   UNL     1      33.819 -23.996 -14.623  0.00  0.00    -0.413 OA
ATOM      2  N   UNL     1      34.456 -25.003 -12.459  0.00  0.00    -0.158 N 
ATOM      3  N   UNL     1      32.174 -24.698 -13.230  0.00  0.00    -0.350 NA
ATOM      4  C   UNL     1      32.621 -23.742 -15.227  0.00  0.00    +0.175 C 
ATOM      5  C   UNL     1      32.406 -23.161 -16.470  0.00  0.00    +0.024 C 
ATOM      6  C   UNL     1      31.616 -24.174 -14.372  0.00  0.00    +0.173 C 
ATOM      7  C   UNL     1      33.467 -24.565 -13.437  0.00  0.00    +0.364 C 
ATOM      8  C   UNL     1      31.067 -23.017 -16.849  0.00  0.00    +0.093 C 
ATOM      9  C   UNL     1      30.279 -24.023 -14.766  0.00  0.00    +0.068 C 
ATOM     10  C   UNL     1      30.023 -23.439 -16.016  0.00  0.00    +0.123 C 
ATOM     11  H   UNL     1      34.352 -25.837 -11.947  0.00  0.00    +0.179 HD
ENDROOT
BRANCH   5  13
ATOM     12  N   UNL     1      35.885 -22.402 -17.570  0.00  0.00    -0.210 NA
ATOM     13  C   UNL     1      33.503 -22.736 -17.301  0.00  0.00    +0.019 C 
ATOM     14  C   UNL     1      33.287 -22.264 -18.593  0.00  0.00    +0.006 C 
ATOM     15  C   UNL     1      34.812 -22.784 -16.843  0.00  0.00    +0.102 C 
ATOM     16  C   UNL     1      34.367 -21.861 -19.372  0.00  0.00    +0.058 C 
ATOM     17  C   UNL     1      35.634 -21.950 -18.819  0.00  0.00    +0.225 C 
BRANCH  17  18
ATOM     18  O   UNL     1      36.714 -21.561 -19.567  0.00  0.00    -0.456 OA
ATOM     19  C   UNL     1      36.643 -20.277 -20.177  0.00  0.00    +0.254 C 
ENDBRANCH  17  18
ENDBRANCH   5  13
BRANCH   2  20
ATOM     20  S   UNL     1      35.821 -23.970 -12.257  0.00  0.00    +0.078 S 
ATOM     21  O   UNL     1      36.246 -24.001 -10.871  0.00  0.00    -0.150 OA
ATOM     22  O   UNL     1      35.584 -22.704 -12.926  0.00  0.00    -0.150 OA
BRANCH  20  25
ATOM     23 CL   UNL     1      38.993 -23.511 -11.827  0.00  0.00    -0.081 Cl
ATOM     24 CL   UNL     1      36.965 -27.540 -16.135  0.00  0.00    -0.082 Cl
ATOM     25  C   UNL     1      37.039 -24.831 -13.209  0.00  0.00    +0.137 C 
ATOM     26  C   UNL     1      38.394 -24.619 -13.008  0.00  0.00    +0.077 C 
ATOM     27  C   UNL     1      36.585 -25.726 -14.167  0.00  0.00    +0.032 C 
ATOM     28  C   UNL     1      37.511 -26.426 -14.942  0.00  0.00    +0.059 C 
ATOM     29  C   UNL     1      39.319 -25.319 -13.784  0.00  0.00    +0.014 C 
ATOM     30  C   UNL     1      38.877 -26.223 -14.750  0.00  0.00    +0.012 C 
ENDBRANCH  20  25
ENDBRANCH   2  20
BRANCH  10  31
ATOM     31  O   UNL     1      28.732 -23.281 -16.425  0.00  0.00    -0.475 OA
ATOM     32  C   UNL     1      27.902 -22.431 -15.638  0.00  0.00    +0.252 C 
ENDBRANCH  10  31
TORSDOF 5
ENDMDL
MODEL 3
REMARK VINA RESULT:     -10.1      2.670      5.697
REMARK  Name = 6102821
REMARK  5 active torsions:
REMARK  status: ('A' for Active; 'I' for Inactive)
REMARK    1  A    between atoms: N_2  and  S_20
REMARK    2  A    between atoms: C_5  and  C_13
REMARK    3  A    between atoms: C_10  and  O_31
REMARK    4  A    between atoms: C_17  and  O_18
REMARK    5  A    between atoms: S_20  and  C_25
REMARK                            x       y       z     vdW  Elec       q    Type
REMARK                         _______ _______ _______ _____ _____    ______ ____
ROOT
ATOM      1  O   UNL     1      33.806 -22.804 -16.680  0.00  0.00    -0.413 OA
ATOM      2  N   UNL     1      33.387 -21.521 -18.749  0.00  0.00    -0.158 N 
ATOM      3  N   UNL     1      31.687 -22.696 -17.476  0.00  0.00    -0.350 NA
ATOM      4  C   UNL     1      33.004 -23.518 -15.837  0.00  0.00    +0.175 C 
ATOM      5  C   UNL     1      33.380 -24.201 -14.687  0.00  0.00    +0.024 C 
ATOM      6  C   UNL     1      31.707 -23.449 -16.326  0.00  0.00    +0.173 C 
ATOM      7  C   UNL     1      32.945 -22.347 -17.631  0.00  0.00    +0.364 C 
ATOM      8  C   UNL     1      32.348 -24.854 -14.004  0.00  0.00    +0.093 C 
ATOM      9  C   UNL     1      30.684 -24.109 -15.630  0.00  0.00    +0.068 C 
ATOM     10  C   UNL     1      31.026 -24.809 -14.465  0.00  0.00    +0.123 C 
ATOM     11  H   UNL     1      32.857 -20.762 -19.081  0.00  0.00    +0.179 HD
ENDROOT
BRANCH   5  13
ATOM     12  N   UNL     1      37.040 -24.904 -14.638  0.00  0.00    -0.210 NA
ATOM     13  C   UNL     1      34.749 -24.228 -14.242  0.00  0.00    +0.019 C 
ATOM     14  C   UNL     1      35.128 -23.637 -13.040  0.00  0.00    +0.006 C 
ATOM     15  C   UNL     1      35.738 -24.843 -14.997  0.00  0.00    +0.102 C 
ATOM     16  C   UNL     1      36.459 -23.679 -12.636  0.00  0.00    +0.058 C 
ATOM     17  C   UNL     1      37.368 -24.319 -13.464  0.00  0.00    +0.225 C 
BRANCH  17  18
ATOM     18  O   UNL     1      38.684 -24.372 -13.090  0.00  0.00    -0.456 OA
ATOM     19  C   UNL     1      39.471 -25.413 -13.658  0.00  0.00    +0.254 C 
ENDBRANCH  17  18
ENDBRANCH   5  13
BRANCH   2  20
ATOM     20  S   UNL     1      34.898 -21.959 -19.454  0.00  0.00    +0.078 S 
ATOM     21  O   UNL     1      34.715 -23.122 -20.301  0.00  0.00    -0.150 OA
ATOM     22  O   UNL     1      35.937 -21.943 -18.442  0.00  0.00    -0.150 OA
BRANCH  20  25
ATOM     23 CL   UNL     1      32.490 -20.279 -20.809  0.00  0.00    -0.081 Cl
ATOM     24 CL   UNL     1      38.420 -18.673 -21.882  0.00  0.00    -0.082 Cl
ATOM     25  C   UNL     1      35.191 -20.569 -20.511  0.00  0.00    +0.137 C 
ATOM     26  C   UNL     1      34.143 -19.863 -21.081  0.00  0.00    +0.077 C 
ATOM     27  C   UNL     1      36.511 -20.214 -20.748  0.00  0.00    +0.032 C 
ATOM     28  C   UNL     1      36.788 -19.126 -21.576  0.00  0.00    +0.059 C 
ATOM     29  C   UNL     1      34.421 -18.776 -21.910  0.00  0.00    +0.014 C 
ATOM     30  C   UNL     1      35.744 -18.407 -22.157  0.00  0.00    +0.012 C 
ENDBRANCH  20  25
ENDBRANCH   2  20
BRANCH  10  31
ATOM     31  O   UNL     1      30.050 -25.459 -13.767  0.00  0.00    -0.475 OA
ATOM     32  C   UNL     1      28.787 -25.611 -14.410  0.00  0.00    +0.252 C 
ENDBRANCH  10  31
TORSDOF 5
ENDMDL
MODEL 4
REMARK VINA RESULT:     -10.0      1.583      2.002
REMARK  Name = 6102821
REMARK  5 active torsions:
REMARK  status: ('A' for Active; 'I' for Inactive)
REMARK    1  A    between atoms: N_2  and  S_20
REMARK    2  A    between atoms: C_5  and  C_13
REMARK    3  A    between atoms: C_10  and  O_31
REMARK    4  A    between atoms: C_17  and  O_18
REMARK    5  A    between atoms: S_20  and  C_25
REMARK                            x       y       z     vdW  Elec       q    Type
REMARK                         _______ _______ _______ _____ _____    ______ ____
ROOT
ATOM      1  O   UNL     1      32.814 -22.540 -18.141  0.00  0.00    -0.413 OA
ATOM      2  N   UNL     1      34.021 -21.729 -20.137  0.00  0.00    -0.158 N 
ATOM      3  N   UNL     1      35.080 -22.594 -18.132  0.00  0.00    -0.350 NA
ATOM      4  C   UNL     1      33.218 -23.053 -16.941  0.00  0.00    +0.175 C 
ATOM      5  C   UNL     1      32.415 -23.477 -15.889  0.00  0.00    +0.024 C 
ATOM      6  C   UNL     1      34.604 -23.085 -16.939  0.00  0.00    +0.173 C 
ATOM      7  C   UNL     1      33.984 -22.291 -18.792  0.00  0.00    +0.364 C 
ATOM      8  C   UNL     1      33.094 -23.964 -14.767  0.00  0.00    +0.093 C 
ATOM      9  C   UNL     1      35.270 -23.576 -15.806  0.00  0.00    +0.068 C 
ATOM     10  C   UNL     1      34.492 -24.014 -14.725  0.00  0.00    +0.123 C 
ATOM     11  H   UNL     1      34.665 -22.035 -20.815  0.00  0.00    +0.179 HD
ENDROOT
BRANCH   5  13
ATOM     12  N   UNL     1      29.002 -22.341 -16.866  0.00  0.00    -0.210 NA
ATOM     13  C   UNL     1      30.978 -23.411 -15.965  0.00  0.00    +0.019 C 
ATOM     14  C   UNL     1      30.177 -24.300 -15.255  0.00  0.00    +0.006 C 
ATOM     15  C   UNL     1      30.344 -22.457 -16.750  0.00  0.00    +0.102 C 
ATOM     16  C   UNL     1      28.792 -24.211 -15.349  0.00  0.00    +0.058 C 
ATOM     17  C   UNL     1      28.259 -23.223 -16.161  0.00  0.00    +0.225 C 
BRANCH  17  18
ATOM     18  O   UNL     1      26.898 -23.116 -16.271  0.00  0.00    -0.456 OA
ATOM     19  C   UNL     1      26.304 -21.928 -15.759  0.00  0.00    +0.254 C 
ENDBRANCH  17  18
ENDBRANCH   5  13
BRANCH   2  20
ATOM     20  S   UNL     1      32.865 -20.493 -20.467  0.00  0.00    +0.078 S 
ATOM     21  O   UNL     1      32.212 -20.104 -19.231  0.00  0.00    -0.150 OA
ATOM     22  O   UNL     1      32.080 -20.850 -21.633  0.00  0.00    -0.150 OA
BRANCH  20  25
ATOM     23 CL   UNL     1      31.808 -17.448 -20.727  0.00  0.00    -0.081 Cl
ATOM     24 CL   UNL     1      37.769 -18.810 -21.955  0.00  0.00    -0.082 Cl
ATOM     25  C   UNL     1      33.926 -19.161 -20.952  0.00  0.00    +0.137 C 
ATOM     26  C   UNL     1      33.451 -17.863 -21.057  0.00  0.00    +0.077 C 
ATOM     27  C   UNL     1      35.251 -19.467 -21.224  0.00  0.00    +0.032 C 
ATOM     28  C   UNL     1      36.122 -18.448 -21.612  0.00  0.00    +0.059 C 
ATOM     29  C   UNL     1      34.322 -16.845 -21.445  0.00  0.00    +0.014 C 
ATOM     30  C   UNL     1      35.658 -17.137 -21.722  0.00  0.00    +0.012 C 
ENDBRANCH  20  25
ENDBRANCH   2  20
BRANCH  10  31
ATOM     31  O   UNL     1      35.113 -24.497 -13.610  0.00  0.00    -0.475 OA
ATOM     32  C   UNL     1      35.859 -23.567 -12.830  0.00  0.00    +0.252 C 
ENDBRANCH  10  31
TORSDOF 5
ENDMDL
MODEL 5
REMARK VINA RESULT:      -9.7      2.463      3.462
REMARK  Name = 6102821
REMARK  5 active torsions:
REMARK  status: ('A' for Active; 'I' for Inactive)
REMARK    1  A    between atoms: N_2  and  S_20
REMARK    2  A    between atoms: C_5  and  C_13
REMARK    3  A    between atoms: C_10  and  O_31
REMARK    4  A    between atoms: C_17  and  O_18
REMARK    5  A    between atoms: S_20  and  C_25
REMARK                            x       y       z     vdW  Elec       q    Type
REMARK                         _______ _______ _______ _____ _____    ______ ____
ROOT
ATOM      1  O   UNL     1      34.461 -21.834 -18.747  0.00  0.00    -0.413 OA
ATOM      2  N   UNL     1      35.068 -20.777 -20.895  0.00  0.00    -0.158 N 
ATOM      3  N   UNL     1      36.640 -21.344 -19.134  0.00  0.00    -0.350 NA
ATOM      4  C   UNL     1      35.180 -22.224 -17.654  0.00  0.00    +0.175 C 
ATOM      5  C   UNL     1      34.700 -22.818 -16.493  0.00  0.00    +0.024 C 
ATOM      6  C   UNL     1      36.513 -21.924 -17.894  0.00  0.00    +0.173 C 
ATOM      7  C   UNL     1      35.404 -21.319 -19.584  0.00  0.00    +0.364 C 
ATOM      8  C   UNL     1      35.663 -23.118 -15.523  0.00  0.00    +0.093 C 
ATOM      9  C   UNL     1      37.466 -22.230 -16.912  0.00  0.00    +0.068 C 
ATOM     10  C   UNL     1      37.018 -22.831 -15.727  0.00  0.00    +0.123 C 
ATOM     11  H   UNL     1      35.636 -20.926 -21.685  0.00  0.00    +0.179 HD
ENDROOT
BRANCH   5  13
ATOM     12  N   UNL     1      31.039 -22.970 -17.174  0.00  0.00    -0.210 NA
ATOM     13  C   UNL     1      33.299 -23.099 -16.316  0.00  0.00    +0.019 C 
ATOM     14  C   UNL     1      32.832 -23.743 -15.174  0.00  0.00    +0.006 C 
ATOM     15  C   UNL     1      32.366 -22.736 -17.278  0.00  0.00    +0.102 C 
ATOM     16  C   UNL     1      31.472 -24.001 -15.031  0.00  0.00    +0.058 C 
ATOM     17  C   UNL     1      30.625 -23.597 -16.051  0.00  0.00    +0.225 C 
BRANCH  17  18
ATOM     18  O   UNL     1      29.282 -23.841 -15.935  0.00  0.00    -0.456 OA
ATOM     19  C   UNL     1      28.421 -23.112 -16.802  0.00  0.00    +0.254 C 
ENDBRANCH  17  18
ENDBRANCH   5  13
BRANCH   2  20
ATOM     20  S   UNL     1      33.612 -19.857 -20.977  0.00  0.00    +0.078 S 
ATOM     21  O   UNL     1      33.176 -19.527 -19.633  0.00  0.00    -0.150 OA
ATOM     22  O   UNL     1      32.694 -20.469 -21.918  0.00  0.00    -0.150 OA
BRANCH  20  25
ATOM     23 CL   UNL     1      34.856 -19.799 -23.961  0.00  0.00    -0.081 Cl
ATOM     24 CL   UNL     1      34.458 -14.541 -20.631  0.00  0.00    -0.082 Cl
ATOM     25  C   UNL     1      34.198 -18.366 -21.729  0.00  0.00    +0.137 C 
ATOM     26  C   UNL     1      34.728 -18.364 -23.010  0.00  0.00    +0.077 C 
ATOM     27  C   UNL     1      34.109 -17.197 -20.986  0.00  0.00    +0.032 C 
ATOM     28  C   UNL     1      34.560 -15.999 -21.539  0.00  0.00    +0.059 C 
ATOM     29  C   UNL     1      35.180 -17.165 -23.562  0.00  0.00    +0.014 C 
ATOM     30  C   UNL     1      35.096 -15.982 -22.827  0.00  0.00    +0.012 C 
ENDBRANCH  20  25
ENDBRANCH   2  20
BRANCH  10  31
ATOM     31  O   UNL     1      37.923 -23.141 -14.754  0.00  0.00    -0.475 OA
ATOM     32  C   UNL     1      37.649 -24.290 -13.957  0.00  0.00    +0.252 C 
ENDBRANCH  10  31
TORSDOF 5
ENDMDL
MODEL 6
REMARK VINA RESULT:      -9.5      5.330     10.196
REMARK  Name = 6102821
REMARK  5 active torsions:
REMARK  status: ('A' for Active; 'I' for Inactive)
REMARK    1  A    between atoms: N_2  and  S_20
REMARK    2  A    between atoms: C_5  and  C_13
REMARK    3  A    between atoms: C_10  and  O_31
REMARK    4  A    between atoms: C_17  and  O_18
REMARK    5  A    between atoms: S_20  and  C_25
REMARK                            x       y       z     vdW  Elec       q    Type
REMARK                         _______ _______ _______ _____ _____    ______ ____
ROOT
ATOM      1  O   UNL     1      33.832 -16.746 -22.702  0.00  0.00    -0.413 OA
ATOM      2  N   UNL     1      34.600 -19.073 -22.390  0.00  0.00    -0.158 N 
ATOM      3  N   UNL     1      34.511 -17.915 -24.522  0.00  0.00    -0.350 NA
ATOM      4  C   UNL     1      33.711 -15.934 -23.794  0.00  0.00    +0.175 C 
ATOM      5  C   UNL     1      33.257 -14.621 -23.824  0.00  0.00    +0.024 C 
ATOM      6  C   UNL     1      34.128 -16.652 -24.905  0.00  0.00    +0.173 C 
ATOM      7  C   UNL     1      34.315 -17.909 -23.221  0.00  0.00    +0.364 C 
ATOM      8  C   UNL     1      33.234 -14.017 -25.086  0.00  0.00    +0.093 C 
ATOM      9  C   UNL     1      34.098 -16.033 -26.163  0.00  0.00    +0.068 C 
ATOM     10  C   UNL     1      33.647 -14.707 -26.233  0.00  0.00    +0.123 C 
ATOM     11  H   UNL     1      35.389 -19.642 -22.538  0.00  0.00    +0.179 HD
ENDROOT
BRANCH   5  13
ATOM     12  N   UNL     1      31.829 -11.996 -21.596  0.00  0.00    -0.210 NA
ATOM     13  C   UNL     1      32.839 -13.941 -22.626  0.00  0.00    +0.019 C 
ATOM     14  C   UNL     1      33.018 -14.516 -21.371  0.00  0.00    +0.006 C 
ATOM     15  C   UNL     1      32.244 -12.688 -22.681  0.00  0.00    +0.102 C 
ATOM     16  C   UNL     1      32.604 -13.835 -20.231  0.00  0.00    +0.058 C 
ATOM     17  C   UNL     1      32.020 -12.589 -20.396  0.00  0.00    +0.225 C 
BRANCH  17  18
ATOM     18  O   UNL     1      31.603 -11.899 -19.289  0.00  0.00    -0.456 OA
ATOM     19  C   UNL     1      31.511 -10.484 -19.413  0.00  0.00    +0.254 C 
ENDBRANCH  17  18
ENDBRANCH   5  13
BRANCH   2  20
ATOM     20  S   UNL     1      33.466 -19.392 -21.131  0.00  0.00    +0.078 S 
ATOM     21  O   UNL     1      32.356 -20.159 -21.665  0.00  0.00    -0.150 OA
ATOM     22  O   UNL     1      33.224 -18.182 -20.368  0.00  0.00    -0.150 OA
BRANCH  20  25
ATOM     23 CL   UNL     1      36.681 -19.161 -20.868  0.00  0.00    -0.081 Cl
ATOM     24 CL   UNL     1      33.581 -23.523 -17.664  0.00  0.00    -0.082 Cl
ATOM     25  C   UNL     1      34.411 -20.471 -20.093  0.00  0.00    +0.137 C 
ATOM     26  C   UNL     1      35.789 -20.355 -19.996  0.00  0.00    +0.077 C 
ATOM     27  C   UNL     1      33.719 -21.440 -19.382  0.00  0.00    +0.032 C 
ATOM     28  C   UNL     1      34.424 -22.313 -18.553  0.00  0.00    +0.059 C 
ATOM     29  C   UNL     1      36.493 -21.229 -19.167  0.00  0.00    +0.014 C 
ATOM     30  C   UNL     1      35.810 -22.208 -18.445  0.00  0.00    +0.012 C 
ENDBRANCH  20  25
ENDBRANCH   2  20
BRANCH  10  31
ATOM     31  O   UNL     1      33.609 -14.079 -27.444  0.00  0.00    -0.475 OA
ATOM     32  C   UNL     1      33.281 -12.692 -27.444  0.00  0.00    +0.252 C 
ENDBRANCH  10  31
TORSDOF 5
ENDMDL
MODEL 7
REMARK VINA RESULT:      -9.2      3.892      7.484
REMARK  Name = 6102821
REMARK  5 active torsions:
REMARK  status: ('A' for Active; 'I' for Inactive)
REMARK    1  A    between atoms: N_2  and  S_20
REMARK    2  A    between atoms: C_5  and  C_13
REMARK    3  A    between atoms: C_10  and  O_31
REMARK    4  A    between atoms: C_17  and  O_18
REMARK    5  A    between atoms: S_20  and  C_25
REMARK                            x       y       z     vdW  Elec       q    Type
REMARK                         _______ _______ _______ _____ _____    ______ ____
ROOT
ATOM      1  O   UNL     1      34.597 -23.965 -14.540  0.00  0.00    -0.413 OA
ATOM      2  N   UNL     1      35.924 -24.701 -12.590  0.00  0.00    -0.158 N 
ATOM      3  N   UNL     1      33.511 -24.889 -12.778  0.00  0.00    -0.350 NA
ATOM      4  C   UNL     1      33.263 -23.984 -14.832  0.00  0.00    +0.175 C 
ATOM      5  C   UNL     1      32.644 -23.530 -15.989  0.00  0.00    +0.024 C 
ATOM      6  C   UNL     1      32.601 -24.551 -13.752  0.00  0.00    +0.173 C 
ATOM      7  C   UNL     1      34.662 -24.521 -13.298  0.00  0.00    +0.364 C 
ATOM      8  C   UNL     1      31.252 -23.671 -16.028  0.00  0.00    +0.093 C 
ATOM      9  C   UNL     1      31.206 -24.685 -13.806  0.00  0.00    +0.068 C 
ATOM     10  C   UNL     1      30.546 -24.237 -14.959  0.00  0.00    +0.123 C 
ATOM     11  H   UNL     1      36.116 -25.507 -12.060  0.00  0.00    +0.179 HD
ENDROOT
BRANCH   5  13
ATOM     12  N   UNL     1      35.557 -22.443 -18.044  0.00  0.00    -0.210 NA
ATOM     13  C   UNL     1      33.400 -22.951 -17.069  0.00  0.00    +0.019 C 
ATOM     14  C   UNL     1      32.766 -22.355 -18.155  0.00  0.00    +0.006 C 
ATOM     15  C   UNL     1      34.788 -22.968 -17.064  0.00  0.00    +0.102 C 
ATOM     16  C   UNL     1      33.524 -21.804 -19.184  0.00  0.00    +0.058 C 
ATOM     17  C   UNL     1      34.903 -21.874 -19.081  0.00  0.00    +0.225 C 
BRANCH  17  18
ATOM     18  O   UNL     1      35.672 -21.340 -20.082  0.00  0.00    -0.456 OA
ATOM     19  C   UNL     1      35.178 -20.164 -20.712  0.00  0.00    +0.254 C 
ENDBRANCH  17  18
ENDBRANCH   5  13
BRANCH   2  20
ATOM     20  S   UNL     1      37.059 -23.412 -12.741  0.00  0.00    +0.078 S 
ATOM     21  O   UNL     1      37.689 -23.173 -11.456  0.00  0.00    -0.150 OA
ATOM     22  O   UNL     1      36.465 -22.317 -13.484  0.00  0.00    -0.150 OA
BRANCH  20  25
ATOM     23 CL   UNL     1      37.482 -22.471 -15.806  0.00  0.00    -0.081 Cl
ATOM     24 CL   UNL     1      40.985 -27.048 -13.422  0.00  0.00    -0.082 Cl
ATOM     25  C   UNL     1      38.269 -24.152 -13.800  0.00  0.00    +0.137 C 
ATOM     26  C   UNL     1      38.434 -23.733 -15.111  0.00  0.00    +0.077 C 
ATOM     27  C   UNL     1      39.047 -25.170 -13.267  0.00  0.00    +0.032 C 
ATOM     28  C   UNL     1      40.012 -25.782 -14.066  0.00  0.00    +0.059 C 
ATOM     29  C   UNL     1      39.399 -24.347 -15.910  0.00  0.00    +0.014 C 
ATOM     30  C   UNL     1      40.188 -25.371 -15.387  0.00  0.00    +0.012 C 
ENDBRANCH  20  25
ENDBRANCH   2  20
BRANCH  10  31
ATOM     31  O   UNL     1      29.190 -24.357 -15.039  0.00  0.00    -0.475 OA
ATOM     32  C   UNL     1      28.605 -24.247 -16.334  0.00  0.00    +0.252 C 
ENDBRANCH  10  31
TORSDOF 5
ENDMDL
MODEL 8
REMARK VINA RESULT:      -9.2      2.602      3.389
REMARK  Name = 6102821
REMARK  5 active torsions:
REMARK  status: ('A' for Active; 'I' for Inactive)
REMARK    1  A    between atoms: N_2  and  S_20
REMARK    2  A    between atoms: C_5  and  C_13
REMARK    3  A    between atoms: C_10  and  O_31
REMARK    4  A    between atoms: C_17  and  O_18
REMARK    5  A    between atoms: S_20  and  C_25
REMARK                            x       y       z     vdW  Elec       q    Type
REMARK                         _______ _______ _______ _____ _____    ______ ____
ROOT
ATOM      1  O   UNL     1      34.523 -22.919 -17.060  0.00  0.00    -0.413 OA
ATOM      2  N   UNL     1      35.190 -22.341 -19.367  0.00  0.00    -0.158 N 
ATOM      3  N   UNL     1      36.706 -22.469 -17.475  0.00  0.00    -0.350 NA
ATOM      4  C   UNL     1      35.209 -23.041 -15.885  0.00  0.00    +0.175 C 
ATOM      5  C   UNL     1      34.698 -23.379 -14.638  0.00  0.00    +0.024 C 
ATOM      6  C   UNL     1      36.544 -22.767 -16.143  0.00  0.00    +0.173 C 
ATOM      7  C   UNL     1      35.487 -22.575 -17.959  0.00  0.00    +0.364 C 
ATOM      8  C   UNL     1      35.629 -23.435 -13.596  0.00  0.00    +0.093 C 
ATOM      9  C   UNL     1      37.465 -22.826 -15.087  0.00  0.00    +0.068 C 
ATOM     10  C   UNL     1      36.985 -23.164 -13.814  0.00  0.00    +0.123 C 
ATOM     11  H   UNL     1      35.789 -22.645 -20.086  0.00  0.00    +0.179 HD
ENDROOT
BRANCH   5  13
ATOM     12  N   UNL     1      31.571 -25.121 -13.599  0.00  0.00    -0.210 NA
ATOM     13  C   UNL     1      33.296 -23.650 -14.448  0.00  0.00    +0.019 C 
ATOM     14  C   UNL     1      32.322 -22.764 -14.900  0.00  0.00    +0.006 C 
ATOM     15  C   UNL     1      32.868 -24.806 -13.809  0.00  0.00    +0.102 C 
ATOM     16  C   UNL     1      30.976 -23.054 -14.702  0.00  0.00    +0.058 C 
ATOM     17  C   UNL     1      30.656 -24.235 -14.051  0.00  0.00    +0.225 C 
BRANCH  17  18
ATOM     18  O   UNL     1      29.337 -24.542 -13.843  0.00  0.00    -0.456 OA
ATOM     19  C   UNL     1      28.755 -25.498 -14.720  0.00  0.00    +0.254 C 
ENDBRANCH  17  18
ENDBRANCH   5  13
BRANCH   2  20
ATOM     20  S   UNL     1      33.722 -21.499 -19.695  0.00  0.00    +0.078 S 
ATOM     21  O   UNL     1      33.127 -21.066 -18.445  0.00  0.00    -0.150 OA
ATOM     22  O   UNL     1      32.937 -22.237 -20.666  0.00  0.00    -0.150 OA
BRANCH  20  25
ATOM     23 CL   UNL     1      31.800 -19.042 -20.548  0.00  0.00    -0.081 Cl
ATOM     24 CL   UNL     1      37.905 -18.828 -21.806  0.00  0.00    -0.082 Cl
ATOM     25  C   UNL     1      34.337 -20.060 -20.521  0.00  0.00    +0.137 C 
ATOM     26  C   UNL     1      33.495 -19.018 -20.878  0.00  0.00    +0.077 C 
ATOM     27  C   UNL     1      35.695 -20.015 -20.799  0.00  0.00    +0.032 C 
ATOM     28  C   UNL     1      36.223 -18.900 -21.451  0.00  0.00    +0.059 C 
ATOM     29  C   UNL     1      34.023 -17.903 -21.530  0.00  0.00    +0.014 C 
ATOM     30  C   UNL     1      35.388 -17.844 -21.816  0.00  0.00    +0.012 C 
ENDBRANCH  20  25
ENDBRANCH   2  20
BRANCH  10  31
ATOM     31  O   UNL     1      37.860 -23.231 -12.768  0.00  0.00    -0.475 OA
ATOM     32  C   UNL     1      38.415 -24.509 -12.469  0.00  0.00    +0.252 C 
ENDBRANCH  10  31
TORSDOF 5
ENDMDL
MODEL 9
REMARK VINA RESULT:      -9.2      6.280     10.918
REMARK  Name = 6102821
REMARK  5 active torsions:
REMARK  status: ('A' for Active; 'I' for Inactive)
REMARK    1  A    between atoms: N_2  and  S_20
REMARK    2  A    between atoms: C_5  and  C_13
REMARK    3  A    between atoms: C_10  and  O_31
REMARK    4  A    between atoms: C_17  and  O_18
REMARK    5  A    between atoms: S_20  and  C_25
REMARK                            x       y       z     vdW  Elec       q    Type
REMARK                         _______ _______ _______ _____ _____    ______ ____
ROOT
ATOM      1  O   UNL     1      33.050 -15.346 -22.185  0.00  0.00    -0.413 OA
ATOM      2  N   UNL     1      33.204 -17.453 -20.904  0.00  0.00    -0.158 N 
ATOM      3  N   UNL     1      32.462 -15.327 -19.996  0.00  0.00    -0.350 NA
ATOM      4  C   UNL     1      32.666 -14.076 -21.864  0.00  0.00    +0.175 C 
ATOM      5  C   UNL     1      32.627 -12.967 -22.699  0.00  0.00    +0.024 C 
ATOM      6  C   UNL     1      32.305 -14.068 -20.524  0.00  0.00    +0.173 C 
ATOM      7  C   UNL     1      32.901 -16.031 -21.017  0.00  0.00    +0.364 C 
ATOM      8  C   UNL     1      32.188 -11.777 -22.108  0.00  0.00    +0.093 C 
ATOM      9  C   UNL     1      31.868 -12.867 -19.946  0.00  0.00    +0.068 C 
ATOM     10  C   UNL     1      31.816 -11.726 -20.759  0.00  0.00    +0.123 C 
ATOM     11  H   UNL     1      32.644 -18.067 -20.378  0.00  0.00    +0.179 HD
ENDROOT
BRANCH   5  13
ATOM     12  N   UNL     1      34.088 -12.027 -25.997  0.00  0.00    -0.210 NA
ATOM     13  C   UNL     1      33.019 -13.053 -24.083  0.00  0.00    +0.019 C 
ATOM     14  C   UNL     1      32.735 -14.184 -24.843  0.00  0.00    +0.006 C 
ATOM     15  C   UNL     1      33.693 -12.011 -24.705  0.00  0.00    +0.102 C 
ATOM     16  C   UNL     1      33.126 -14.238 -26.177  0.00  0.00    +0.058 C 
ATOM     17  C   UNL     1      33.794 -13.143 -26.702  0.00  0.00    +0.225 C 
BRANCH  17  18
ATOM     18  O   UNL     1      34.191 -13.173 -28.012  0.00  0.00    -0.456 OA
ATOM     19  C   UNL     1      35.519 -12.743 -28.290  0.00  0.00    +0.254 C 
ENDBRANCH  17  18
ENDBRANCH   5  13
BRANCH   2  20
ATOM     20  S   UNL     1      34.605 -17.991 -21.751  0.00  0.00    +0.078 S 
ATOM     21  O   UNL     1      35.681 -17.037 -21.556  0.00  0.00    -0.150 OA
ATOM     22  O   UNL     1      34.239 -18.422 -23.087  0.00  0.00    -0.150 OA
BRANCH  20  25
ATOM     23 CL   UNL     1      37.644 -19.058 -21.460  0.00  0.00    -0.081 Cl
ATOM     24 CL   UNL     1      32.960 -22.163 -18.755  0.00  0.00    -0.082 Cl
ATOM     25  C   UNL     1      35.012 -19.450 -20.836  0.00  0.00    +0.137 C 
ATOM     26  C   UNL     1      36.322 -19.890 -20.724  0.00  0.00    +0.077 C 
ATOM     27  C   UNL     1      33.969 -20.139 -20.235  0.00  0.00    +0.032 C 
ATOM     28  C   UNL     1      34.243 -21.296 -19.505  0.00  0.00    +0.059 C 
ATOM     29  C   UNL     1      36.596 -21.047 -19.994  0.00  0.00    +0.014 C 
ATOM     30  C   UNL     1      35.556 -21.750 -19.384  0.00  0.00    +0.012 C 
ENDBRANCH  20  25
ENDBRANCH   2  20
BRANCH  10  31
ATOM     31  O   UNL     1      31.393 -10.545 -20.224  0.00  0.00    -0.475 OA
ATOM     32  C   UNL     1      31.857  -9.349 -20.845  0.00  0.00    +0.252 C 
ENDBRANCH  10  31
TORSDOF 5
ENDMDL
