MODEL 1
REMARK VINA RESULT:      -6.5      0.000      0.000
REMARK  Name = 11309850
REMARK  9 active torsions:
REMARK  status: ('A' for Active; 'I' for Inactive)
REMARK    1  A    between atoms: C_1  and  O_2
REMARK    2  A    between atoms: C_1  and  C_4
REMARK    3  A    between atoms: C_1  and  C_10
REMARK    4  A    between atoms: C_4  and  O_5
REMARK    5  A    between atoms: C_4  and  C_7
REMARK    6  A    between atoms: C_7  and  O_8
REMARK    7  A    between atoms: C_10  and  C_12
REMARK    8  A    between atoms: C_12  and  C_14
REMARK    9  A    between atoms: C_14  and  O_15
REMARK                            x       y       z     vdW  Elec       q    Type
REMARK                         _______ _______ _______ _____ _____    ______ ____
ROOT
ATOM      1  C   UNL     1      37.778 -25.087 -12.170  0.00  0.00    +0.148 C 
ENDROOT
BRANCH   1   2
ATOM      2  O   UNL     1      37.177 -26.375 -12.041  0.00  0.00    -0.381 OA
ATOM      3  H   UNL     1      36.784 -26.461 -11.158  0.00  0.00    +0.210 HD
ENDBRANCH   1   2
BRANCH   1   4
ATOM      4  C   UNL     1      36.868 -24.056 -11.484  0.00  0.00    +0.167 C 
BRANCH   4   5
ATOM      5  O   UNL     1      37.572 -22.820 -11.374  0.00  0.00    -0.379 OA
ATOM      6  H   UNL     1      37.009 -22.165 -10.933  0.00  0.00    +0.211 HD
ENDBRANCH   4   5
BRANCH   4   7
ATOM      7  C   UNL     1      35.579 -23.810 -12.267  0.00  0.00    +0.169 C 
BRANCH   7   8
ATOM      8  O   UNL     1      34.681 -24.889 -12.026  0.00  0.00    -0.379 OA
ATOM      9  H   UNL     1      34.808 -25.573 -12.702  0.00  0.00    +0.211 HD
ENDBRANCH   7   8
ENDBRANCH   4   7
ENDBRANCH   1   4
BRANCH   1  10
ATOM     10  C   UNL     1      37.969 -24.776 -13.662  0.00  0.00    +0.108 C 
BRANCH  10  12
ATOM     11  O   UNL     1      38.461 -26.990 -14.573  0.00  0.00    -0.284 OA
ATOM     12  C   UNL     1      38.793 -25.831 -14.370  0.00  0.00    +0.250 C 
BRANCH  12  14
ATOM     13  O   UNL     1      40.893 -24.726 -14.191  0.00  0.00    -0.242 OA
ATOM     14  C   UNL     1      40.148 -25.410 -14.863  0.00  0.00    +0.373 C 
BRANCH  14  15
ATOM     15  O   UNL     1      40.385 -25.945 -16.067  0.00  0.00    -0.475 OA
ATOM     16  H   UNL     1      40.515 -25.388 -16.809  0.00  0.00    +0.295 HD
ENDBRANCH  14  15
ENDBRANCH  12  14
ENDBRANCH  10  12
ENDBRANCH   1  10
TORSDOF 9
ENDMDL
MODEL 2
REMARK VINA RESULT:      -6.2      1.188      1.935
REMARK  Name = 11309850
REMARK  9 active torsions:
REMARK  status: ('A' for Active; 'I' for Inactive)
REMARK    1  A    between atoms: C_1  and  O_2
REMARK    2  A    between atoms: C_1  and  C_4
REMARK    3  A    between atoms: C_1  and  C_10
REMARK    4  A    between atoms: C_4  and  O_5
REMARK    5  A    between atoms: C_4  and  C_7
REMARK    6  A    between atoms: C_7  and  O_8
REMARK    7  A    between atoms: C_10  and  C_12
REMARK    8  A    between atoms: C_12  and  C_14
REMARK    9  A    between atoms: C_14  and  O_15
REMARK                            x       y       z     vdW  Elec       q    Type
REMARK                         _______ _______ _______ _____ _____    ______ ____
ROOT
ATOM      1  C   UNL     1      37.220 -23.674 -13.840  0.00  0.00    +0.148 C 
ENDROOT
BRANCH   1   2
ATOM      2  O   UNL     1      38.186 -23.742 -12.791  0.00  0.00    -0.381 OA
ATOM      3  H   UNL     1      37.784 -23.444 -11.961  0.00  0.00    +0.210 HD
ENDBRANCH   1   2
BRANCH   1   4
ATOM      4  C   UNL     1      35.890 -24.230 -13.309  0.00  0.00    +0.167 C 
BRANCH   4   5
ATOM      5  O   UNL     1      35.475 -25.311 -14.143  0.00  0.00    -0.379 OA
ATOM      6  H   UNL     1      36.073 -26.065 -14.017  0.00  0.00    +0.211 HD
ENDBRANCH   4   5
BRANCH   4   7
ATOM      7  C   UNL     1      36.008 -24.745 -11.875  0.00  0.00    +0.169 C 
BRANCH   7   8
ATOM      8  O   UNL     1      36.564 -26.057 -11.902  0.00  0.00    -0.379 OA
ATOM      9  H   UNL     1      37.148 -26.145 -12.671  0.00  0.00    +0.211 HD
ENDBRANCH   7   8
ENDBRANCH   4   7
ENDBRANCH   1   4
BRANCH   1  10
ATOM     10  C   UNL     1      37.735 -24.477 -15.043  0.00  0.00    +0.108 C 
BRANCH  10  12
ATOM     11  O   UNL     1      38.383 -26.625 -14.074  0.00  0.00    -0.284 OA
ATOM     12  C   UNL     1      38.686 -25.582 -14.634  0.00  0.00    +0.250 C 
BRANCH  12  14
ATOM     13  O   UNL     1      40.884 -24.789 -14.178  0.00  0.00    -0.242 OA
ATOM     14  C   UNL     1      40.141 -25.369 -14.944  0.00  0.00    +0.373 C 
BRANCH  14  15
ATOM     15  O   UNL     1      40.452 -25.951 -16.109  0.00  0.00    -0.475 OA
ATOM     16  H   UNL     1      40.744 -26.841 -16.125  0.00  0.00    +0.295 HD
ENDBRANCH  14  15
ENDBRANCH  12  14
ENDBRANCH  10  12
ENDBRANCH   1  10
TORSDOF 9
ENDMDL
MODEL 3
REMARK VINA RESULT:      -6.1      1.451      4.815
REMARK  Name = 11309850
REMARK  9 active torsions:
REMARK  status: ('A' for Active; 'I' for Inactive)
REMARK    1  A    between atoms: C_1  and  O_2
REMARK    2  A    between atoms: C_1  and  C_4
REMARK    3  A    between atoms: C_1  and  C_10
REMARK    4  A    between atoms: C_4  and  O_5
REMARK    5  A    between atoms: C_4  and  C_7
REMARK    6  A    between atoms: C_7  and  O_8
REMARK    7  A    between atoms: C_10  and  C_12
REMARK    8  A    between atoms: C_12  and  C_14
REMARK    9  A    between atoms: C_14  and  O_15
REMARK                            x       y       z     vdW  Elec       q    Type
REMARK                         _______ _______ _______ _____ _____    ______ ____
ROOT
ATOM      1  C   UNL     1      38.225 -25.238 -13.301  0.00  0.00    +0.148 C 
ENDROOT
BRANCH   1   2
ATOM      2  O   UNL     1      39.458 -24.533 -13.157  0.00  0.00    -0.381 OA
ATOM      3  H   UNL     1      39.277 -23.602 -12.955  0.00  0.00    +0.210 HD
ENDBRANCH   1   2
BRANCH   1   4
ATOM      4  C   UNL     1      38.231 -25.951 -14.662  0.00  0.00    +0.167 C 
BRANCH   4   5
ATOM      5  O   UNL     1      39.430 -26.717 -14.777  0.00  0.00    -0.379 OA
ATOM      6  H   UNL     1      39.219 -27.661 -14.699  0.00  0.00    +0.211 HD
ENDBRANCH   4   5
BRANCH   4   7
ATOM      7  C   UNL     1      37.038 -26.893 -14.827  0.00  0.00    +0.169 C 
BRANCH   7   8
ATOM      8  O   UNL     1      36.878 -27.193 -16.210  0.00  0.00    -0.379 OA
ATOM      9  H   UNL     1      37.597 -26.783 -16.716  0.00  0.00    +0.211 HD
ENDBRANCH   7   8
ENDBRANCH   4   7
ENDBRANCH   1   4
BRANCH   1  10
ATOM     10  C   UNL     1      37.066 -24.238 -13.184  0.00  0.00    +0.108 C 
BRANCH  10  12
ATOM     11  O   UNL     1      37.552 -22.764 -11.297  0.00  0.00    -0.284 OA
ATOM     12  C   UNL     1      36.916 -23.690 -11.781  0.00  0.00    +0.250 C 
BRANCH  12  14
ATOM     13  O   UNL     1      35.928 -24.260  -9.693  0.00  0.00    -0.242 OA
ATOM     14  C   UNL     1      35.893 -24.352 -10.903  0.00  0.00    +0.373 C 
BRANCH  14  15
ATOM     15  O   UNL     1      34.971 -24.964 -11.655  0.00  0.00    -0.475 OA
ATOM     16  H   UNL     1      34.791 -25.875 -11.527  0.00  0.00    +0.295 HD
ENDBRANCH  14  15
ENDBRANCH  12  14
ENDBRANCH  10  12
ENDBRANCH   1  10
TORSDOF 9
ENDMDL
MODEL 4
REMARK VINA RESULT:      -6.0      1.437      2.238
REMARK  Name = 11309850
REMARK  9 active torsions:
REMARK  status: ('A' for Active; 'I' for Inactive)
REMARK    1  A    between atoms: C_1  and  O_2
REMARK    2  A    between atoms: C_1  and  C_4
REMARK    3  A    between atoms: C_1  and  C_10
REMARK    4  A    between atoms: C_4  and  O_5
REMARK    5  A    between atoms: C_4  and  C_7
REMARK    6  A    between atoms: C_7  and  O_8
REMARK    7  A    between atoms: C_10  and  C_12
REMARK    8  A    between atoms: C_12  and  C_14
REMARK    9  A    between atoms: C_14  and  O_15
REMARK                            x       y       z     vdW  Elec       q    Type
REMARK                         _______ _______ _______ _____ _____    ______ ____
ROOT
ATOM      1  C   UNL     1      38.017 -24.923 -12.364  0.00  0.00    +0.148 C 
ENDROOT
BRANCH   1   2
ATOM      2  O   UNL     1      37.494 -26.203 -12.012  0.00  0.00    -0.381 OA
ATOM      3  H   UNL     1      36.899 -26.513 -12.712  0.00  0.00    +0.210 HD
ENDBRANCH   1   2
BRANCH   1   4
ATOM      4  C   UNL     1      37.146 -23.845 -11.702  0.00  0.00    +0.167 C 
BRANCH   4   5
ATOM      5  O   UNL     1      37.814 -22.587 -11.801  0.00  0.00    -0.379 OA
ATOM      6  H   UNL     1      38.753 -22.734 -11.996  0.00  0.00    +0.211 HD
ENDBRANCH   4   5
BRANCH   4   7
ATOM      7  C   UNL     1      35.776 -23.717 -12.369  0.00  0.00    +0.169 C 
BRANCH   7   8
ATOM      8  O   UNL     1      35.031 -24.906 -12.118  0.00  0.00    -0.379 OA
ATOM      9  H   UNL     1      34.097 -24.751 -12.327  0.00  0.00    +0.211 HD
ENDBRANCH   7   8
ENDBRANCH   4   7
ENDBRANCH   1   4
BRANCH   1  10
ATOM     10  C   UNL     1      38.024 -24.794 -13.894  0.00  0.00    +0.108 C 
BRANCH  10  12
ATOM     11  O   UNL     1      38.666 -27.055 -14.561  0.00  0.00    -0.284 OA
ATOM     12  C   UNL     1      37.867 -26.130 -14.587  0.00  0.00    +0.250 C 
BRANCH  12  14
ATOM     13  O   UNL     1      35.628 -25.639 -15.227  0.00  0.00    -0.242 OA
ATOM     14  C   UNL     1      36.611 -26.333 -15.386  0.00  0.00    +0.373 C 
BRANCH  14  15
ATOM     15  O   UNL     1      36.791 -27.311 -16.282  0.00  0.00    -0.475 OA
ATOM     16  H   UNL     1      37.579 -27.817 -16.271  0.00  0.00    +0.295 HD
ENDBRANCH  14  15
ENDBRANCH  12  14
ENDBRANCH  10  12
ENDBRANCH   1  10
TORSDOF 9
ENDMDL
MODEL 5
REMARK VINA RESULT:      -5.9      1.983      2.808
REMARK  Name = 11309850
REMARK  9 active torsions:
REMARK  status: ('A' for Active; 'I' for Inactive)
REMARK    1  A    between atoms: C_1  and  O_2
REMARK    2  A    between atoms: C_1  and  C_4
REMARK    3  A    between atoms: C_1  and  C_10
REMARK    4  A    between atoms: C_4  and  O_5
REMARK    5  A    between atoms: C_4  and  C_7
REMARK    6  A    between atoms: C_7  and  O_8
REMARK    7  A    between atoms: C_10  and  C_12
REMARK    8  A    between atoms: C_12  and  C_14
REMARK    9  A    between atoms: C_14  and  O_15
REMARK                            x       y       z     vdW  Elec       q    Type
REMARK                         _______ _______ _______ _____ _____    ______ ____
ROOT
ATOM      1  C   UNL     1      36.531 -24.796 -14.293  0.00  0.00    +0.148 C 
ENDROOT
BRANCH   1   2
ATOM      2  O   UNL     1      36.570 -25.320 -15.621  0.00  0.00    -0.381 OA
ATOM      3  H   UNL     1      37.157 -24.774 -16.167  0.00  0.00    +0.210 HD
ENDBRANCH   1   2
BRANCH   1   4
ATOM      4  C   UNL     1      36.729 -23.274 -14.368  0.00  0.00    +0.167 C 
BRANCH   4   5
ATOM      5  O   UNL     1      37.768 -22.899 -13.464  0.00  0.00    -0.379 OA
ATOM      6  H   UNL     1      37.611 -21.995 -13.148  0.00  0.00    +0.211 HD
ENDBRANCH   4   5
BRANCH   4   7
ATOM      7  C   UNL     1      37.117 -22.808 -15.771  0.00  0.00    +0.169 C 
BRANCH   7   8
ATOM      8  O   UNL     1      38.476 -23.161 -16.012  0.00  0.00    -0.379 OA
ATOM      9  H   UNL     1      38.783 -22.730 -16.825  0.00  0.00    +0.211 HD
ENDBRANCH   7   8
ENDBRANCH   4   7
ENDBRANCH   1   4
BRANCH   1  10
ATOM     10  C   UNL     1      37.627 -25.474 -13.459  0.00  0.00    +0.108 C 
BRANCH  10  12
ATOM     11  O   UNL     1      38.318 -27.392 -14.808  0.00  0.00    -0.284 OA
ATOM     12  C   UNL     1      38.567 -26.304 -14.307  0.00  0.00    +0.250 C 
BRANCH  12  14
ATOM     13  O   UNL     1      40.710 -26.237 -15.341  0.00  0.00    -0.242 OA
ATOM     14  C   UNL     1      39.937 -25.737 -14.549  0.00  0.00    +0.373 C 
BRANCH  14  15
ATOM     15  O   UNL     1      40.106 -24.624 -13.826  0.00  0.00    -0.475 OA
ATOM     16  H   UNL     1      39.375 -24.233 -13.389  0.00  0.00    +0.295 HD
ENDBRANCH  14  15
ENDBRANCH  12  14
ENDBRANCH  10  12
ENDBRANCH   1  10
TORSDOF 9
ENDMDL
MODEL 6
REMARK VINA RESULT:      -5.9      1.145      5.129
REMARK  Name = 11309850
REMARK  9 active torsions:
REMARK  status: ('A' for Active; 'I' for Inactive)
REMARK    1  A    between atoms: C_1  and  O_2
REMARK    2  A    between atoms: C_1  and  C_4
REMARK    3  A    between atoms: C_1  and  C_10
REMARK    4  A    between atoms: C_4  and  O_5
REMARK    5  A    between atoms: C_4  and  C_7
REMARK    6  A    between atoms: C_7  and  O_8
REMARK    7  A    between atoms: C_10  and  C_12
REMARK    8  A    between atoms: C_12  and  C_14
REMARK    9  A    between atoms: C_14  and  O_15
REMARK                            x       y       z     vdW  Elec       q    Type
REMARK                         _______ _______ _______ _____ _____    ______ ____
ROOT
ATOM      1  C   UNL     1      37.544 -25.084 -13.720  0.00  0.00    +0.148 C 
ENDROOT
BRANCH   1   2
ATOM      2  O   UNL     1      36.271 -25.730 -13.671  0.00  0.00    -0.381 OA
ATOM      3  H   UNL     1      36.060 -25.959 -12.753  0.00  0.00    +0.210 HD
ENDBRANCH   1   2
BRANCH   1   4
ATOM      4  C   UNL     1      38.538 -26.026 -14.417  0.00  0.00    +0.167 C 
BRANCH   4   5
ATOM      5  O   UNL     1      37.942 -26.519 -15.617  0.00  0.00    -0.379 OA
ATOM      6  H   UNL     1      37.002 -26.702 -15.460  0.00  0.00    +0.211 HD
ENDBRANCH   4   5
BRANCH   4   7
ATOM      7  C   UNL     1      39.844 -25.321 -14.781  0.00  0.00    +0.169 C 
BRANCH   7   8
ATOM      8  O   UNL     1      40.358 -25.896 -15.980  0.00  0.00    -0.379 OA
ATOM      9  H   UNL     1      40.185 -25.300 -16.725  0.00  0.00    +0.211 HD
ENDBRANCH   7   8
ENDBRANCH   4   7
ENDBRANCH   1   4
BRANCH   1  10
ATOM     10  C   UNL     1      37.984 -24.747 -12.288  0.00  0.00    +0.108 C 
BRANCH  10  12
ATOM     11  O   UNL     1      37.488 -22.430 -11.691  0.00  0.00    -0.284 OA
ATOM     12  C   UNL     1      37.180 -23.613 -11.690  0.00  0.00    +0.250 C 
BRANCH  12  14
ATOM     13  O   UNL     1      34.843 -24.062 -11.646  0.00  0.00    -0.242 OA
ATOM     14  C   UNL     1      35.883 -23.982 -11.026  0.00  0.00    +0.373 C 
BRANCH  14  15
ATOM     15  O   UNL     1      36.091 -24.246  -9.730  0.00  0.00    -0.475 OA
ATOM     16  H   UNL     1      35.649 -24.964  -9.321  0.00  0.00    +0.295 HD
ENDBRANCH  14  15
ENDBRANCH  12  14
ENDBRANCH  10  12
ENDBRANCH   1  10
TORSDOF 9
ENDMDL
MODEL 7
REMARK VINA RESULT:      -5.9      1.972      4.673
REMARK  Name = 11309850
REMARK  9 active torsions:
REMARK  status: ('A' for Active; 'I' for Inactive)
REMARK    1  A    between atoms: C_1  and  O_2
REMARK    2  A    between atoms: C_1  and  C_4
REMARK    3  A    between atoms: C_1  and  C_10
REMARK    4  A    between atoms: C_4  and  O_5
REMARK    5  A    between atoms: C_4  and  C_7
REMARK    6  A    between atoms: C_7  and  O_8
REMARK    7  A    between atoms: C_10  and  C_12
REMARK    8  A    between atoms: C_12  and  C_14
REMARK    9  A    between atoms: C_14  and  O_15
REMARK                            x       y       z     vdW  Elec       q    Type
REMARK                         _______ _______ _______ _____ _____    ______ ____
ROOT
ATOM      1  C   UNL     1      36.178 -24.379 -14.698  0.00  0.00    +0.148 C 
ENDROOT
BRANCH   1   2
ATOM      2  O   UNL     1      35.210 -25.412 -14.516  0.00  0.00    -0.381 OA
ATOM      3  H   UNL     1      35.593 -26.123 -13.978  0.00  0.00    +0.210 HD
ENDBRANCH   1   2
BRANCH   1   4
ATOM      4  C   UNL     1      37.548 -25.034 -14.930  0.00  0.00    +0.167 C 
BRANCH   4   5
ATOM      5  O   UNL     1      38.464 -24.549 -13.949  0.00  0.00    -0.379 OA
ATOM      6  H   UNL     1      38.594 -23.595 -14.071  0.00  0.00    +0.211 HD
ENDBRANCH   4   5
BRANCH   4   7
ATOM      7  C   UNL     1      37.487 -26.558 -14.822  0.00  0.00    +0.169 C 
BRANCH   7   8
ATOM      8  O   UNL     1      36.951 -27.083 -16.033  0.00  0.00    -0.379 OA
ATOM      9  H   UNL     1      37.675 -27.304 -16.638  0.00  0.00    +0.211 HD
ENDBRANCH   7   8
ENDBRANCH   4   7
ENDBRANCH   1   4
BRANCH   1  10
ATOM     10  C   UNL     1      36.179 -23.476 -13.457  0.00  0.00    +0.108 C 
BRANCH  10  12
ATOM     11  O   UNL     1      34.034 -24.000 -12.410  0.00  0.00    -0.284 OA
ATOM     12  C   UNL     1      35.256 -23.986 -12.371  0.00  0.00    +0.250 C 
BRANCH  12  14
ATOM     13  O   UNL     1      35.266 -25.040 -10.237  0.00  0.00    -0.242 OA
ATOM     14  C   UNL     1      35.907 -24.518 -11.126  0.00  0.00    +0.373 C 
BRANCH  14  15
ATOM     15  O   UNL     1      37.236 -24.375 -11.207  0.00  0.00    -0.475 OA
ATOM     16  H   UNL     1      37.770 -24.531 -10.453  0.00  0.00    +0.295 HD
ENDBRANCH  14  15
ENDBRANCH  12  14
ENDBRANCH  10  12
ENDBRANCH   1  10
TORSDOF 9
ENDMDL
MODEL 8
REMARK VINA RESULT:      -5.9      1.202      4.654
REMARK  Name = 11309850
REMARK  9 active torsions:
REMARK  status: ('A' for Active; 'I' for Inactive)
REMARK    1  A    between atoms: C_1  and  O_2
REMARK    2  A    between atoms: C_1  and  C_4
REMARK    3  A    between atoms: C_1  and  C_10
REMARK    4  A    between atoms: C_4  and  O_5
REMARK    5  A    between atoms: C_4  and  C_7
REMARK    6  A    between atoms: C_7  and  O_8
REMARK    7  A    between atoms: C_10  and  C_12
REMARK    8  A    between atoms: C_12  and  C_14
REMARK    9  A    between atoms: C_14  and  O_15
REMARK                            x       y       z     vdW  Elec       q    Type
REMARK                         _______ _______ _______ _____ _____    ______ ____
ROOT
ATOM      1  C   UNL     1      37.843 -25.818 -14.017  0.00  0.00    +0.148 C 
ENDROOT
BRANCH   1   2
ATOM      2  O   UNL     1      38.071 -27.158 -14.455  0.00  0.00    -0.381 OA
ATOM      3  H   UNL     1      37.395 -27.404 -15.105  0.00  0.00    +0.210 HD
ENDBRANCH   1   2
BRANCH   1   4
ATOM      4  C   UNL     1      39.134 -25.013 -14.228  0.00  0.00    +0.167 C 
BRANCH   4   5
ATOM      5  O   UNL     1      39.465 -24.343 -13.012  0.00  0.00    -0.379 OA
ATOM      6  H   UNL     1      38.898 -24.672 -12.297  0.00  0.00    +0.211 HD
ENDBRANCH   4   5
BRANCH   4   7
ATOM      7  C   UNL     1      40.312 -25.902 -14.626  0.00  0.00    +0.169 C 
BRANCH   7   8
ATOM      8  O   UNL     1      40.391 -25.952 -16.048  0.00  0.00    -0.379 OA
ATOM      9  H   UNL     1      40.547 -26.866 -16.331  0.00  0.00    +0.211 HD
ENDBRANCH   7   8
ENDBRANCH   4   7
ENDBRANCH   1   4
BRANCH   1  10
ATOM     10  C   UNL     1      37.421 -25.844 -12.541  0.00  0.00    +0.108 C 
BRANCH  10  12
ATOM     11  O   UNL     1      35.333 -24.619 -12.873  0.00  0.00    -0.284 OA
ATOM     12  C   UNL     1      36.352 -24.819 -12.228  0.00  0.00    +0.250 C 
BRANCH  12  14
ATOM     13  O   UNL     1      36.058 -24.222  -9.943  0.00  0.00    -0.242 OA
ATOM     14  C   UNL     1      36.571 -23.963 -11.012  0.00  0.00    +0.373 C 
BRANCH  14  15
ATOM     15  O   UNL     1      37.426 -22.973 -11.297  0.00  0.00    -0.475 OA
ATOM     16  H   UNL     1      37.262 -22.408 -12.026  0.00  0.00    +0.295 HD
ENDBRANCH  14  15
ENDBRANCH  12  14
ENDBRANCH  10  12
ENDBRANCH   1  10
TORSDOF 9
ENDMDL
MODEL 9
REMARK VINA RESULT:      -5.7      2.605      4.689
REMARK  Name = 11309850
REMARK  9 active torsions:
REMARK  status: ('A' for Active; 'I' for Inactive)
REMARK    1  A    between atoms: C_1  and  O_2
REMARK    2  A    between atoms: C_1  and  C_4
REMARK    3  A    between atoms: C_1  and  C_10
REMARK    4  A    between atoms: C_4  and  O_5
REMARK    5  A    between atoms: C_4  and  C_7
REMARK    6  A    between atoms: C_7  and  O_8
REMARK    7  A    between atoms: C_10  and  C_12
REMARK    8  A    between atoms: C_12  and  C_14
REMARK    9  A    between atoms: C_14  and  O_15
REMARK                            x       y       z     vdW  Elec       q    Type
REMARK                         _______ _______ _______ _____ _____    ______ ____
ROOT
ATOM      1  C   UNL     1      36.783 -23.708 -14.209  0.00  0.00    +0.148 C 
ENDROOT
BRANCH   1   2
ATOM      2  O   UNL     1      35.767 -22.772 -13.851  0.00  0.00    -0.381 OA
ATOM      3  H   UNL     1      35.613 -22.812 -12.895  0.00  0.00    +0.210 HD
ENDBRANCH   1   2
BRANCH   1   4
ATOM      4  C   UNL     1      36.121 -24.885 -14.943  0.00  0.00    +0.167 C 
BRANCH   4   5
ATOM      5  O   UNL     1      36.178 -26.041 -14.107  0.00  0.00    -0.379 OA
ATOM      6  H   UNL     1      36.724 -25.850 -13.328  0.00  0.00    +0.211 HD
ENDBRANCH   4   5
BRANCH   4   7
ATOM      7  C   UNL     1      34.657 -24.606 -15.282  0.00  0.00    +0.169 C 
BRANCH   7   8
ATOM      8  O   UNL     1      33.851 -24.950 -14.159  0.00  0.00    -0.379 OA
ATOM      9  H   UNL     1      34.382 -24.888 -13.349  0.00  0.00    +0.211 HD
ENDBRANCH   7   8
ENDBRANCH   4   7
ENDBRANCH   1   4
BRANCH   1  10
ATOM     10  C   UNL     1      37.509 -24.164 -12.935  0.00  0.00    +0.108 C 
BRANCH  10  12
ATOM     11  O   UNL     1      37.268 -22.463 -11.198  0.00  0.00    -0.284 OA
ATOM     12  C   UNL     1      36.933 -23.532 -11.686  0.00  0.00    +0.250 C 
BRANCH  12  14
ATOM     13  O   UNL     1      34.991 -24.904 -11.583  0.00  0.00    -0.242 OA
ATOM     14  C   UNL     1      35.852 -24.299 -10.978  0.00  0.00    +0.373 C 
BRANCH  14  15
ATOM     15  O   UNL     1      36.042 -24.242  -9.654  0.00  0.00    -0.475 OA
ATOM     16  H   UNL     1      36.337 -25.001  -9.190  0.00  0.00    +0.295 HD
ENDBRANCH  14  15
ENDBRANCH  12  14
ENDBRANCH  10  12
ENDBRANCH   1  10
TORSDOF 9
ENDMDL
