MODEL 1
REMARK VINA RESULT:      -7.5      0.000      0.000
REMARK  Name = 14233317
REMARK  6 active torsions:
REMARK  status: ('A' for Active; 'I' for Inactive)
REMARK    1  A    between atoms: N_2  and  C_11
REMARK    2  A    between atoms: C_3  and  C_5
REMARK    3  A    between atoms: C_11  and  CA_12
REMARK    4  A    between atoms: CA_12  and  N_13
REMARK    5  A    between atoms: CA_12  and  C_18
REMARK    6  A    between atoms: C_18  and  O_19
REMARK                            x       y       z     vdW  Elec       q    Type
REMARK                         _______ _______ _______ _____ _____    ______ ____
ROOT
ATOM      1  O   UNL     1      36.691 -18.540 -21.817  0.00  0.00    -0.270 OA
ATOM      2  N   UNL     1      34.552 -17.657 -21.975  0.00  0.00    -0.302 N 
ATOM      3  C   UNL     1      35.490 -18.594 -21.564  0.00  0.00    +0.246 C 
ATOM      4  H   UNL     1      33.609 -17.788 -21.721  0.00  0.00    +0.150 HD
ENDROOT
BRANCH   3   5
ATOM      5  C   UNL     1      34.964 -19.745 -20.786  0.00  0.00    +0.053 C 
ATOM      6  C   UNL     1      33.598 -19.895 -20.660  0.00  0.00    +0.005 C 
ATOM      7  C   UNL     1      35.857 -20.627 -20.215  0.00  0.00    +0.005 C 
ATOM      8  C   UNL     1      33.104 -20.976 -19.930  0.00  0.00    +0.000 C 
ATOM      9  C   UNL     1      35.363 -21.708 -19.485  0.00  0.00    +0.000 C 
ATOM     10  C   UNL     1      33.986 -21.882 -19.342  0.00  0.00    +0.000 C 
ENDBRANCH   3   5
BRANCH   2  11
ATOM     11  C   UNL     1      34.902 -16.499 -22.756  0.00  0.00    +0.079 C 
BRANCH  11  12
ATOM     12  CA  UNL     1      34.022 -15.295 -22.413  0.00  0.00    +0.056 C 
BRANCH  12  13
ATOM     13  N   UNL     1      34.519 -14.103 -23.096  0.00  0.00    +0.390 N 
ATOM     14  H1  UNL     1      33.938 -13.302 -22.848  0.00  0.00    -0.088 HD
ATOM     15  H2  UNL     1      34.483 -14.249 -24.105  0.00  0.00    -0.088 HD
ATOM     16  H3  UNL     1      35.482 -13.926 -22.812  0.00  0.00    -0.088 HD
ENDBRANCH  12  13
BRANCH  12  18
ATOM     17  OXT UNL     1      34.865 -15.345 -20.124  0.00  0.00    -0.253 OA
ATOM     18  C   UNL     1      34.018 -14.978 -20.927  0.00  0.00    +0.295 C 
BRANCH  18  19
ATOM     19  O   UNL     1      32.951 -14.211 -20.572  0.00  0.00    -0.482 OA
ATOM     20  H   UNL     1      32.157 -14.617 -20.288  0.00  0.00    +0.295 HD
ENDBRANCH  18  19
ENDBRANCH  12  18
ENDBRANCH  11  12
ENDBRANCH   2  11
TORSDOF 6
ENDMDL
MODEL 2
REMARK VINA RESULT:      -7.5      0.024      1.248
REMARK  Name = 14233317
REMARK  6 active torsions:
REMARK  status: ('A' for Active; 'I' for Inactive)
REMARK    1  A    between atoms: N_2  and  C_11
REMARK    2  A    between atoms: C_3  and  C_5
REMARK    3  A    between atoms: C_11  and  CA_12
REMARK    4  A    between atoms: CA_12  and  N_13
REMARK    5  A    between atoms: CA_12  and  C_18
REMARK    6  A    between atoms: C_18  and  O_19
REMARK                            x       y       z     vdW  Elec       q    Type
REMARK                         _______ _______ _______ _____ _____    ______ ____
ROOT
ATOM      1  O   UNL     1      36.692 -18.526 -21.773  0.00  0.00    -0.270 OA
ATOM      2  N   UNL     1      34.548 -17.668 -21.992  0.00  0.00    -0.302 N 
ATOM      3  C   UNL     1      35.486 -18.592 -21.551  0.00  0.00    +0.246 C 
ATOM      4  H   UNL     1      33.601 -17.809 -21.762  0.00  0.00    +0.150 HD
ENDROOT
BRANCH   3   5
ATOM      5  C   UNL     1      34.953 -19.746 -20.781  0.00  0.00    +0.053 C 
ATOM      6  C   UNL     1      35.841 -20.641 -20.221  0.00  0.00    +0.005 C 
ATOM      7  C   UNL     1      33.587 -19.885 -20.650  0.00  0.00    +0.005 C 
ATOM      8  C   UNL     1      35.341 -21.723 -19.498  0.00  0.00    +0.000 C 
ATOM      9  C   UNL     1      33.087 -20.968 -19.926  0.00  0.00    +0.000 C 
ATOM     10  C   UNL     1      33.964 -21.887 -19.351  0.00  0.00    +0.000 C 
ENDBRANCH   3   5
BRANCH   2  11
ATOM     11  C   UNL     1      34.906 -16.510 -22.769  0.00  0.00    +0.079 C 
BRANCH  11  12
ATOM     12  CA  UNL     1      34.027 -15.305 -22.429  0.00  0.00    +0.056 C 
BRANCH  12  13
ATOM     13  N   UNL     1      34.521 -14.116 -23.121  0.00  0.00    +0.390 N 
ATOM     14  H1  UNL     1      34.536 -13.327 -22.474  0.00  0.00    -0.088 HD
ATOM     15  H2  UNL     1      33.908 -13.900 -23.906  0.00  0.00    -0.088 HD
ATOM     16  H3  UNL     1      35.466 -14.291 -23.464  0.00  0.00    -0.088 HD
ENDBRANCH  12  13
BRANCH  12  18
ATOM     17  OXT UNL     1      34.873 -15.352 -20.142  0.00  0.00    -0.253 OA
ATOM     18  C   UNL     1      34.028 -14.979 -20.945  0.00  0.00    +0.295 C 
BRANCH  18  19
ATOM     19  O   UNL     1      32.971 -14.200 -20.593  0.00  0.00    -0.482 OA
ATOM     20  H   UNL     1      33.116 -13.341 -20.247  0.00  0.00    +0.295 HD
ENDBRANCH  18  19
ENDBRANCH  12  18
ENDBRANCH  11  12
ENDBRANCH   2  11
TORSDOF 6
ENDMDL
MODEL 3
REMARK VINA RESULT:      -7.4      1.601      1.893
REMARK  Name = 14233317
REMARK  6 active torsions:
REMARK  status: ('A' for Active; 'I' for Inactive)
REMARK    1  A    between atoms: N_2  and  C_11
REMARK    2  A    between atoms: C_3  and  C_5
REMARK    3  A    between atoms: C_11  and  CA_12
REMARK    4  A    between atoms: CA_12  and  N_13
REMARK    5  A    between atoms: CA_12  and  C_18
REMARK    6  A    between atoms: C_18  and  O_19
REMARK                            x       y       z     vdW  Elec       q    Type
REMARK                         _______ _______ _______ _____ _____    ______ ____
ROOT
ATOM      1  O   UNL     1      36.435 -18.475 -22.077  0.00  0.00    -0.270 OA
ATOM      2  N   UNL     1      34.556 -17.368 -21.288  0.00  0.00    -0.302 N 
ATOM      3  C   UNL     1      35.401 -18.463 -21.415  0.00  0.00    +0.246 C 
ATOM      4  H   UNL     1      33.747 -17.457 -20.733  0.00  0.00    +0.150 HD
ENDROOT
BRANCH   3   5
ATOM      5  C   UNL     1      34.978 -19.698 -20.706  0.00  0.00    +0.053 C 
ATOM      6  C   UNL     1      33.630 -19.955 -20.562  0.00  0.00    +0.005 C 
ATOM      7  C   UNL     1      35.946 -20.548 -20.214  0.00  0.00    +0.005 C 
ATOM      8  C   UNL     1      33.233 -21.115 -19.897  0.00  0.00    +0.000 C 
ATOM      9  C   UNL     1      35.549 -21.708 -19.549  0.00  0.00    +0.000 C 
ATOM     10  C   UNL     1      34.192 -21.991 -19.390  0.00  0.00    +0.000 C 
ENDBRANCH   3   5
BRANCH   2  11
ATOM     11  C   UNL     1      34.815 -16.108 -21.935  0.00  0.00    +0.079 C 
BRANCH  11  12
ATOM     12  CA  UNL     1      34.293 -16.090 -23.373  0.00  0.00    +0.056 C 
BRANCH  12  13
ATOM     13  N   UNL     1      35.344 -16.524 -24.291  0.00  0.00    +0.390 N 
ATOM     14  H1  UNL     1      35.315 -17.540 -24.384  0.00  0.00    -0.088 HD
ATOM     15  H2  UNL     1      36.253 -16.242 -23.926  0.00  0.00    -0.088 HD
ATOM     16  H3  UNL     1      35.195 -16.095 -25.204  0.00  0.00    -0.088 HD
ENDBRANCH  12  13
BRANCH  12  18
ATOM     17  OXT UNL     1      33.093 -14.465 -24.742  0.00  0.00    -0.253 OA
ATOM     18  C   UNL     1      33.866 -14.703 -23.823  0.00  0.00    +0.295 C 
BRANCH  18  19
ATOM     19  O   UNL     1      34.437 -13.724 -23.071  0.00  0.00    -0.482 OA
ATOM     20  H   UNL     1      34.439 -12.839 -23.376  0.00  0.00    +0.295 HD
ENDBRANCH  18  19
ENDBRANCH  12  18
ENDBRANCH  11  12
ENDBRANCH   2  11
TORSDOF 6
ENDMDL
MODEL 4
REMARK VINA RESULT:      -7.4      8.407     10.359
REMARK  Name = 14233317
REMARK  6 active torsions:
REMARK  status: ('A' for Active; 'I' for Inactive)
REMARK    1  A    between atoms: N_2  and  C_11
REMARK    2  A    between atoms: C_3  and  C_5
REMARK    3  A    between atoms: C_11  and  CA_12
REMARK    4  A    between atoms: CA_12  and  N_13
REMARK    5  A    between atoms: CA_12  and  C_18
REMARK    6  A    between atoms: C_18  and  O_19
REMARK                            x       y       z     vdW  Elec       q    Type
REMARK                         _______ _______ _______ _____ _____    ______ ____
ROOT
ATOM      1  O   UNL     1      35.102 -24.269 -15.846  0.00  0.00    -0.270 OA
ATOM      2  N   UNL     1      35.044 -23.277 -13.750  0.00  0.00    -0.302 N 
ATOM      3  C   UNL     1      34.483 -23.713 -14.943  0.00  0.00    +0.246 C 
ATOM      4  H   UNL     1      34.463 -22.841 -13.085  0.00  0.00    +0.150 HD
ENDROOT
BRANCH   3   5
ATOM      5  C   UNL     1      33.031 -23.450 -15.114  0.00  0.00    +0.053 C 
ATOM      6  C   UNL     1      32.539 -23.232 -16.385  0.00  0.00    +0.005 C 
ATOM      7  C   UNL     1      32.220 -23.433 -13.999  0.00  0.00    +0.005 C 
ATOM      8  C   UNL     1      31.176 -22.985 -16.547  0.00  0.00    +0.000 C 
ATOM      9  C   UNL     1      30.857 -23.187 -14.161  0.00  0.00    +0.000 C 
ATOM     10  C   UNL     1      30.335 -22.962 -15.435  0.00  0.00    +0.000 C 
ENDBRANCH   3   5
BRANCH   2  11
ATOM     11  C   UNL     1      36.443 -23.437 -13.446  0.00  0.00    +0.079 C 
BRANCH  11  12
ATOM     12  CA  UNL     1      36.720 -23.276 -11.950  0.00  0.00    +0.056 C 
BRANCH  12  13
ATOM     13  N   UNL     1      38.118 -23.591 -11.665  0.00  0.00    +0.390 N 
ATOM     14  H1  UNL     1      38.697 -22.773 -11.854  0.00  0.00    -0.088 HD
ATOM     15  H2  UNL     1      38.420 -24.364 -12.258  0.00  0.00    -0.088 HD
ATOM     16  H3  UNL     1      38.213 -23.856 -10.685  0.00  0.00    -0.088 HD
ENDBRANCH  12  13
BRANCH  12  18
ATOM     17  OXT UNL     1      35.048 -25.000 -11.521  0.00  0.00    -0.253 OA
ATOM     18  C   UNL     1      35.879 -24.209 -11.095  0.00  0.00    +0.295 C 
BRANCH  18  19
ATOM     19  O   UNL     1      36.160 -24.079  -9.770  0.00  0.00    -0.482 OA
ATOM     20  H   UNL     1      37.002 -24.327  -9.443  0.00  0.00    +0.295 HD
ENDBRANCH  18  19
ENDBRANCH  12  18
ENDBRANCH  11  12
ENDBRANCH   2  11
TORSDOF 6
ENDMDL
MODEL 5
REMARK VINA RESULT:      -7.4      5.826      7.774
REMARK  Name = 14233317
REMARK  6 active torsions:
REMARK  status: ('A' for Active; 'I' for Inactive)
REMARK    1  A    between atoms: N_2  and  C_11
REMARK    2  A    between atoms: C_3  and  C_5
REMARK    3  A    between atoms: C_11  and  CA_12
REMARK    4  A    between atoms: CA_12  and  N_13
REMARK    5  A    between atoms: CA_12  and  C_18
REMARK    6  A    between atoms: C_18  and  O_19
REMARK                            x       y       z     vdW  Elec       q    Type
REMARK                         _______ _______ _______ _____ _____    ______ ____
ROOT
ATOM      1  O   UNL     1      34.250 -23.589 -17.818  0.00  0.00    -0.270 OA
ATOM      2  N   UNL     1      32.180 -22.590 -17.507  0.00  0.00    -0.302 N 
ATOM      3  C   UNL     1      33.431 -22.717 -18.095  0.00  0.00    +0.246 C 
ATOM      4  H   UNL     1      31.593 -21.855 -17.798  0.00  0.00    +0.150 HD
ENDROOT
BRANCH   3   5
ATOM      5  C   UNL     1      33.781 -21.691 -19.111  0.00  0.00    +0.053 C 
ATOM      6  C   UNL     1      35.103 -21.535 -19.473  0.00  0.00    +0.005 C 
ATOM      7  C   UNL     1      32.773 -20.927 -19.661  0.00  0.00    +0.005 C 
ATOM      8  C   UNL     1      35.432 -20.572 -20.427  0.00  0.00    +0.000 C 
ATOM      9  C   UNL     1      33.101 -19.964 -20.616  0.00  0.00    +0.000 C 
ATOM     10  C   UNL     1      34.431 -19.786 -20.998  0.00  0.00    +0.000 C 
ENDBRANCH   3   5
BRANCH   2  11
ATOM     11  C   UNL     1      31.706 -23.492 -16.489  0.00  0.00    +0.079 C 
BRANCH  11  12
ATOM     12  CA  UNL     1      30.684 -22.822 -15.569  0.00  0.00    +0.056 C 
BRANCH  12  13
ATOM     13  N   UNL     1      30.763 -23.401 -14.229  0.00  0.00    +0.390 N 
ATOM     14  H1  UNL     1      30.291 -22.788 -13.565  0.00  0.00    -0.088 HD
ATOM     15  H2  UNL     1      31.741 -23.505 -13.961  0.00  0.00    -0.088 HD
ATOM     16  H3  UNL     1      30.311 -24.316 -14.228  0.00  0.00    -0.088 HD
ENDBRANCH  12  13
BRANCH  12  18
ATOM     17  OXT UNL     1      28.423 -23.736 -15.509  0.00  0.00    -0.253 OA
ATOM     18  C   UNL     1      29.254 -23.014 -16.044  0.00  0.00    +0.295 C 
BRANCH  18  19
ATOM     19  O   UNL     1      28.980 -22.271 -17.150  0.00  0.00    -0.482 OA
ATOM     20  H   UNL     1      29.543 -21.563 -17.391  0.00  0.00    +0.295 HD
ENDBRANCH  18  19
ENDBRANCH  12  18
ENDBRANCH  11  12
ENDBRANCH   2  11
TORSDOF 6
ENDMDL
MODEL 6
REMARK VINA RESULT:      -7.3      5.608      7.948
REMARK  Name = 14233317
REMARK  6 active torsions:
REMARK  status: ('A' for Active; 'I' for Inactive)
REMARK    1  A    between atoms: N_2  and  C_11
REMARK    2  A    between atoms: C_3  and  C_5
REMARK    3  A    between atoms: C_11  and  CA_12
REMARK    4  A    between atoms: CA_12  and  N_13
REMARK    5  A    between atoms: CA_12  and  C_18
REMARK    6  A    between atoms: C_18  and  O_19
REMARK                            x       y       z     vdW  Elec       q    Type
REMARK                         _______ _______ _______ _____ _____    ______ ____
ROOT
ATOM      1  O   UNL     1      33.465 -23.930 -18.300  0.00  0.00    -0.270 OA
ATOM      2  N   UNL     1      34.706 -22.802 -16.698  0.00  0.00    -0.302 N 
ATOM      3  C   UNL     1      34.153 -22.971 -17.960  0.00  0.00    +0.246 C 
ATOM      4  H   UNL     1      35.244 -21.996 -16.522  0.00  0.00    +0.150 HD
ENDROOT
BRANCH   3   5
ATOM      5  C   UNL     1      34.457 -21.909 -18.954  0.00  0.00    +0.053 C 
ATOM      6  C   UNL     1      33.410 -21.254 -19.570  0.00  0.00    +0.005 C 
ATOM      7  C   UNL     1      35.775 -21.611 -19.228  0.00  0.00    +0.005 C 
ATOM      8  C   UNL     1      33.696 -20.256 -20.502  0.00  0.00    +0.000 C 
ATOM      9  C   UNL     1      36.061 -20.613 -20.160  0.00  0.00    +0.000 C 
ATOM     10  C   UNL     1      35.020 -19.937 -20.797  0.00  0.00    +0.000 C 
ENDBRANCH   3   5
BRANCH   2  11
ATOM     11  C   UNL     1      34.522 -23.756 -15.636  0.00  0.00    +0.079 C 
BRANCH  11  12
ATOM     12  CA  UNL     1      35.830 -24.464 -15.277  0.00  0.00    +0.056 C 
BRANCH  12  13
ATOM     13  N   UNL     1      35.701 -25.121 -13.977  0.00  0.00    +0.390 N 
ATOM     14  H1  UNL     1      36.627 -25.263 -13.575  0.00  0.00    -0.088 HD
ATOM     15  H2  UNL     1      35.240 -26.023 -14.097  0.00  0.00    -0.088 HD
ATOM     16  H3  UNL     1      35.145 -24.535 -13.355  0.00  0.00    -0.088 HD
ENDBRANCH  12  13
BRANCH  12  18
ATOM     17  OXT UNL     1      37.464 -23.070 -14.120  0.00  0.00    -0.253 OA
ATOM     18  C   UNL     1      37.004 -23.506 -15.167  0.00  0.00    +0.295 C 
BRANCH  18  19
ATOM     19  O   UNL     1      37.514 -23.183 -16.386  0.00  0.00    -0.482 OA
ATOM     20  H   UNL     1      38.285 -23.613 -16.700  0.00  0.00    +0.295 HD
ENDBRANCH  18  19
ENDBRANCH  12  18
ENDBRANCH  11  12
ENDBRANCH   2  11
TORSDOF 6
ENDMDL
MODEL 7
REMARK VINA RESULT:      -7.2      5.390      8.036
REMARK  Name = 14233317
REMARK  6 active torsions:
REMARK  status: ('A' for Active; 'I' for Inactive)
REMARK    1  A    between atoms: N_2  and  C_11
REMARK    2  A    between atoms: C_3  and  C_5
REMARK    3  A    between atoms: C_11  and  CA_12
REMARK    4  A    between atoms: CA_12  and  N_13
REMARK    5  A    between atoms: CA_12  and  C_18
REMARK    6  A    between atoms: C_18  and  O_19
REMARK                            x       y       z     vdW  Elec       q    Type
REMARK                         _______ _______ _______ _____ _____    ______ ____
ROOT
ATOM      1  O   UNL     1      33.808 -23.885 -19.206  0.00  0.00    -0.270 OA
ATOM      2  N   UNL     1      34.219 -22.622 -17.304  0.00  0.00    -0.302 N 
ATOM      3  C   UNL     1      34.057 -22.808 -18.671  0.00  0.00    +0.246 C 
ATOM      4  H   UNL     1      34.417 -21.717 -16.970  0.00  0.00    +0.150 HD
ENDROOT
BRANCH   3   5
ATOM      5  C   UNL     1      34.230 -21.600 -19.518  0.00  0.00    +0.053 C 
ATOM      6  C   UNL     1      35.506 -21.208 -19.868  0.00  0.00    +0.005 C 
ATOM      7  C   UNL     1      33.109 -20.908 -19.928  0.00  0.00    +0.005 C 
ATOM      8  C   UNL     1      35.668 -20.075 -20.664  0.00  0.00    +0.000 C 
ATOM      9  C   UNL     1      33.272 -19.774 -20.724  0.00  0.00    +0.000 C 
ATOM     10  C   UNL     1      34.552 -19.357 -21.091  0.00  0.00    +0.000 C 
ENDBRANCH   3   5
BRANCH   2  11
ATOM     11  C   UNL     1      34.107 -23.700 -16.356  0.00  0.00    +0.079 C 
BRANCH  11  12
ATOM     12  CA  UNL     1      35.251 -23.683 -15.340  0.00  0.00    +0.056 C 
BRANCH  12  13
ATOM     13  N   UNL     1      36.431 -23.053 -15.928  0.00  0.00    +0.390 N 
ATOM     14  H1  UNL     1      37.264 -23.353 -15.422  0.00  0.00    -0.088 HD
ATOM     15  H2  UNL     1      36.342 -22.039 -15.866  0.00  0.00    -0.088 HD
ATOM     16  H3  UNL     1      36.510 -23.329 -16.907  0.00  0.00    -0.088 HD
ENDBRANCH  12  13
BRANCH  12  18
ATOM     17  OXT UNL     1      36.002 -25.981 -15.662  0.00  0.00    -0.253 OA
ATOM     18  C   UNL     1      35.670 -25.077 -14.907  0.00  0.00    +0.295 C 
BRANCH  18  19
ATOM     19  O   UNL     1      35.648 -25.220 -13.554  0.00  0.00    -0.482 OA
ATOM     20  H   UNL     1      36.220 -25.833 -13.138  0.00  0.00    +0.295 HD
ENDBRANCH  18  19
ENDBRANCH  12  18
ENDBRANCH  11  12
ENDBRANCH   2  11
TORSDOF 6
ENDMDL
MODEL 8
REMARK VINA RESULT:      -7.2      6.137      8.903
REMARK  Name = 14233317
REMARK  6 active torsions:
REMARK  status: ('A' for Active; 'I' for Inactive)
REMARK    1  A    between atoms: N_2  and  C_11
REMARK    2  A    between atoms: C_3  and  C_5
REMARK    3  A    between atoms: C_11  and  CA_12
REMARK    4  A    between atoms: CA_12  and  N_13
REMARK    5  A    between atoms: CA_12  and  C_18
REMARK    6  A    between atoms: C_18  and  O_19
REMARK                            x       y       z     vdW  Elec       q    Type
REMARK                         _______ _______ _______ _____ _____    ______ ____
ROOT
ATOM      1  O   UNL     1      34.378 -23.862 -16.565  0.00  0.00    -0.270 OA
ATOM      2  N   UNL     1      36.372 -22.871 -15.914  0.00  0.00    -0.302 N 
ATOM      3  C   UNL     1      35.289 -23.061 -16.761  0.00  0.00    +0.246 C 
ATOM      4  H   UNL     1      37.053 -22.202 -16.159  0.00  0.00    +0.150 HD
ENDROOT
BRANCH   3   5
ATOM      5  C   UNL     1      35.276 -22.238 -17.998  0.00  0.00    +0.053 C 
ATOM      6  C   UNL     1      36.457 -21.672 -18.433  0.00  0.00    +0.005 C 
ATOM      7  C   UNL     1      34.085 -22.065 -18.671  0.00  0.00    +0.005 C 
ATOM      8  C   UNL     1      36.446 -20.900 -19.595  0.00  0.00    +0.000 C 
ATOM      9  C   UNL     1      34.074 -21.293 -19.833  0.00  0.00    +0.000 C 
ATOM     10  C   UNL     1      35.254 -20.709 -20.294  0.00  0.00    +0.000 C 
ENDBRANCH   3   5
BRANCH   2  11
ATOM     11  C   UNL     1      36.540 -23.610 -14.690  0.00  0.00    +0.079 C 
BRANCH  11  12
ATOM     12  CA  UNL     1      37.816 -24.453 -14.706  0.00  0.00    +0.056 C 
BRANCH  12  13
ATOM     13  N   UNL     1      38.723 -23.966 -15.743  0.00  0.00    +0.390 N 
ATOM     14  H1  UNL     1      38.696 -22.946 -15.767  0.00  0.00    -0.088 HD
ATOM     15  H2  UNL     1      38.433 -24.334 -16.649  0.00  0.00    -0.088 HD
ATOM     16  H3  UNL     1      39.672 -24.276 -15.537  0.00  0.00    -0.088 HD
ENDBRANCH  12  13
BRANCH  12  18
ATOM     17  OXT UNL     1      38.228 -26.857 -14.625  0.00  0.00    -0.253 OA
ATOM     18  C   UNL     1      37.547 -25.917 -15.014  0.00  0.00    +0.295 C 
BRANCH  18  19
ATOM     19  O   UNL     1      36.434 -26.082 -15.778  0.00  0.00    -0.482 OA
ATOM     20  H   UNL     1      36.494 -26.514 -16.606  0.00  0.00    +0.295 HD
ENDBRANCH  18  19
ENDBRANCH  12  18
ENDBRANCH  11  12
ENDBRANCH   2  11
TORSDOF 6
ENDMDL
MODEL 9
REMARK VINA RESULT:      -7.2      5.892      8.034
REMARK  Name = 14233317
REMARK  6 active torsions:
REMARK  status: ('A' for Active; 'I' for Inactive)
REMARK    1  A    between atoms: N_2  and  C_11
REMARK    2  A    between atoms: C_3  and  C_5
REMARK    3  A    between atoms: C_11  and  CA_12
REMARK    4  A    between atoms: CA_12  and  N_13
REMARK    5  A    between atoms: CA_12  and  C_18
REMARK    6  A    between atoms: C_18  and  O_19
REMARK                            x       y       z     vdW  Elec       q    Type
REMARK                         _______ _______ _______ _____ _____    ______ ____
ROOT
ATOM      1  O   UNL     1      33.809 -23.954 -18.491  0.00  0.00    -0.270 OA
ATOM      2  N   UNL     1      32.397 -22.490 -17.376  0.00  0.00    -0.302 N 
ATOM      3  C   UNL     1      33.325 -22.834 -18.349  0.00  0.00    +0.246 C 
ATOM      4  H   UNL     1      32.067 -21.563 -17.343  0.00  0.00    +0.150 HD
ENDROOT
BRANCH   3   5
ATOM      5  C   UNL     1      33.761 -21.737 -19.251  0.00  0.00    +0.053 C 
ATOM      6  C   UNL     1      32.806 -20.899 -19.791  0.00  0.00    +0.005 C 
ATOM      7  C   UNL     1      35.106 -21.589 -19.519  0.00  0.00    +0.005 C 
ATOM      8  C   UNL     1      33.215 -19.868 -20.636  0.00  0.00    +0.000 C 
ATOM      9  C   UNL     1      35.515 -20.558 -20.365  0.00  0.00    +0.000 C 
ATOM     10  C   UNL     1      34.569 -19.698 -20.924  0.00  0.00    +0.000 C 
ENDBRANCH   3   5
BRANCH   2  11
ATOM     11  C   UNL     1      31.895 -23.436 -16.413  0.00  0.00    +0.079 C 
BRANCH  11  12
ATOM     12  CA  UNL     1      32.677 -23.377 -15.099  0.00  0.00    +0.056 C 
BRANCH  12  13
ATOM     13  N   UNL     1      33.980 -24.017 -15.264  0.00  0.00    +0.390 N 
ATOM     14  H1  UNL     1      34.477 -23.581 -16.041  0.00  0.00    -0.088 HD
ATOM     15  H2  UNL     1      33.849 -25.009 -15.459  0.00  0.00    -0.088 HD
ATOM     16  H3  UNL     1      34.523 -23.907 -14.408  0.00  0.00    -0.088 HD
ENDBRANCH  12  13
BRANCH  12  18
ATOM     17  OXT UNL     1      31.247 -23.579 -13.132  0.00  0.00    -0.253 OA
ATOM     18  C   UNL     1      31.973 -24.105 -13.966  0.00  0.00    +0.295 C 
BRANCH  18  19
ATOM     19  O   UNL     1      32.229 -25.440 -13.980  0.00  0.00    -0.482 OA
ATOM     20  H   UNL     1      33.110 -25.748 -14.061  0.00  0.00    +0.295 HD
ENDBRANCH  18  19
ENDBRANCH  12  18
ENDBRANCH  11  12
ENDBRANCH   2  11
TORSDOF 6
ENDMDL
