MODEL 1
REMARK VINA RESULT:      -4.6      0.000      0.000
REMARK  Name = 61207
REMARK  2 active torsions:
REMARK  status: ('A' for Active; 'I' for Inactive)
REMARK    1  A    between atoms: C_1  and  O_5
REMARK    2  A    between atoms: O_5  and  C_7
REMARK                            x       y       z     vdW  Elec       q    Type
REMARK                         _______ _______ _______ _____ _____    ______ ____
ROOT
ATOM      1  C   UNL     1      38.701 -25.711 -14.097  0.00  0.00    +0.137 C 
ATOM      2  C   UNL     1      38.147 -24.518 -14.875  0.00  0.00    +0.044 C 
ATOM      3  C   UNL     1      38.192 -25.696 -12.657  0.00  0.00    +0.044 C 
ATOM      4  C   UNL     1      40.229 -25.720 -14.127  0.00  0.00    +0.044 C 
ENDROOT
BRANCH   1   5
ATOM      5  O   UNL     1      38.227 -26.912 -14.707  0.00  0.00    -0.448 OA
BRANCH   5   7
ATOM      6  O   UNL     1      36.610 -27.351 -16.304  0.00  0.00    -0.238 OA
ATOM      7  C   UNL     1      36.991 -26.834 -15.266  0.00  0.00    +0.418 C 
ENDBRANCH   5   7
ENDBRANCH   1   5
TORSDOF 2
ENDMDL
MODEL 2
REMARK VINA RESULT:      -4.4      1.315      2.861
REMARK  Name = 61207
REMARK  2 active torsions:
REMARK  status: ('A' for Active; 'I' for Inactive)
REMARK    1  A    between atoms: C_1  and  O_5
REMARK    2  A    between atoms: O_5  and  C_7
REMARK                            x       y       z     vdW  Elec       q    Type
REMARK                         _______ _______ _______ _____ _____    ______ ____
ROOT
ATOM      1  C   UNL     1      37.918 -25.901 -14.420  0.00  0.00    +0.137 C 
ATOM      2  C   UNL     1      38.078 -24.448 -14.864  0.00  0.00    +0.044 C 
ATOM      3  C   UNL     1      36.715 -26.543 -15.109  0.00  0.00    +0.044 C 
ATOM      4  C   UNL     1      37.781 -25.995 -12.901  0.00  0.00    +0.044 C 
ENDROOT
BRANCH   1   5
ATOM      5  O   UNL     1      39.080 -26.629 -14.818  0.00  0.00    -0.448 OA
BRANCH   5   7
ATOM      6  O   UNL     1      41.267 -26.591 -14.062  0.00  0.00    -0.238 OA
ATOM      7  C   UNL     1      40.268 -26.048 -14.504  0.00  0.00    +0.418 C 
ENDBRANCH   5   7
ENDBRANCH   1   5
TORSDOF 2
ENDMDL
MODEL 3
REMARK VINA RESULT:      -4.3      9.877     10.985
REMARK  Name = 61207
REMARK  2 active torsions:
REMARK  status: ('A' for Active; 'I' for Inactive)
REMARK    1  A    between atoms: C_1  and  O_5
REMARK    2  A    between atoms: O_5  and  C_7
REMARK                            x       y       z     vdW  Elec       q    Type
REMARK                         _______ _______ _______ _____ _____    ______ ____
ROOT
ATOM      1  C   UNL     1      34.921 -19.248 -21.193  0.00  0.00    +0.137 C 
ATOM      2  C   UNL     1      33.439 -19.285 -20.825  0.00  0.00    +0.044 C 
ATOM      3  C   UNL     1      35.097 -19.178 -22.708  0.00  0.00    +0.044 C 
ATOM      4  C   UNL     1      35.655 -20.461 -20.621  0.00  0.00    +0.044 C 
ENDROOT
BRANCH   1   5
ATOM      5  O   UNL     1      35.498 -18.065 -20.638  0.00  0.00    -0.448 OA
BRANCH   5   7
ATOM      6  O   UNL     1      34.930 -15.832 -20.425  0.00  0.00    -0.238 OA
ATOM      7  C   UNL     1      34.914 -16.899 -21.018  0.00  0.00    +0.418 C 
ENDBRANCH   5   7
ENDBRANCH   1   5
TORSDOF 2
ENDMDL
MODEL 4
REMARK VINA RESULT:      -4.3      9.897     11.006
REMARK  Name = 61207
REMARK  2 active torsions:
REMARK  status: ('A' for Active; 'I' for Inactive)
REMARK    1  A    between atoms: C_1  and  O_5
REMARK    2  A    between atoms: O_5  and  C_7
REMARK                            x       y       z     vdW  Elec       q    Type
REMARK                         _______ _______ _______ _____ _____    ______ ____
ROOT
ATOM      1  C   UNL     1      34.872 -19.239 -21.195  0.00  0.00    +0.137 C 
ATOM      2  C   UNL     1      35.044 -19.192 -22.713  0.00  0.00    +0.044 C 
ATOM      3  C   UNL     1      35.611 -20.440 -20.608  0.00  0.00    +0.044 C 
ATOM      4  C   UNL     1      33.392 -19.282 -20.816  0.00  0.00    +0.044 C 
ENDROOT
BRANCH   1   5
ATOM      5  O   UNL     1      35.451 -18.061 -20.635  0.00  0.00    -0.448 OA
BRANCH   5   7
ATOM      6  O   UNL     1      34.932 -15.812 -20.465  0.00  0.00    -0.238 OA
ATOM      7  C   UNL     1      34.896 -16.889 -21.039  0.00  0.00    +0.418 C 
ENDBRANCH   5   7
ENDBRANCH   1   5
TORSDOF 2
ENDMDL
MODEL 5
REMARK VINA RESULT:      -4.3      8.424      9.462
REMARK  Name = 61207
REMARK  2 active torsions:
REMARK  status: ('A' for Active; 'I' for Inactive)
REMARK    1  A    between atoms: C_1  and  O_5
REMARK    2  A    between atoms: O_5  and  C_7
REMARK                            x       y       z     vdW  Elec       q    Type
REMARK                         _______ _______ _______ _____ _____    ______ ____
ROOT
ATOM      1  C   UNL     1      30.294 -23.274 -16.052  0.00  0.00    +0.137 C 
ATOM      2  C   UNL     1      29.825 -24.728 -16.008  0.00  0.00    +0.044 C 
ATOM      3  C   UNL     1      31.734 -23.190 -16.552  0.00  0.00    +0.044 C 
ATOM      4  C   UNL     1      30.163 -22.619 -14.677  0.00  0.00    +0.044 C 
ENDROOT
BRANCH   1   5
ATOM      5  O   UNL     1      29.474 -22.559 -16.977  0.00  0.00    -0.448 OA
BRANCH   5   7
ATOM      6  O   UNL     1      27.471 -23.093 -18.005  0.00  0.00    -0.238 OA
ATOM      7  C   UNL     1      28.171 -22.940 -17.017  0.00  0.00    +0.418 C 
ENDBRANCH   5   7
ENDBRANCH   1   5
TORSDOF 2
ENDMDL
MODEL 6
REMARK VINA RESULT:      -4.2      8.605      9.573
REMARK  Name = 61207
REMARK  2 active torsions:
REMARK  status: ('A' for Active; 'I' for Inactive)
REMARK    1  A    between atoms: C_1  and  O_5
REMARK    2  A    between atoms: O_5  and  C_7
REMARK                            x       y       z     vdW  Elec       q    Type
REMARK                         _______ _______ _______ _____ _____    ______ ____
ROOT
ATOM      1  C   UNL     1      30.253 -23.278 -16.085  0.00  0.00    +0.137 C 
ATOM      2  C   UNL     1      31.710 -23.242 -16.545  0.00  0.00    +0.044 C 
ATOM      3  C   UNL     1      30.108 -22.628 -14.711  0.00  0.00    +0.044 C 
ATOM      4  C   UNL     1      29.725 -24.712 -16.059  0.00  0.00    +0.044 C 
ENDROOT
BRANCH   1   5
ATOM      5  O   UNL     1      29.467 -22.521 -17.005  0.00  0.00    -0.448 OA
BRANCH   5   7
ATOM      6  O   UNL     1      27.340 -21.611 -17.064  0.00  0.00    -0.238 OA
ATOM      7  C   UNL     1      28.136 -22.476 -16.737  0.00  0.00    +0.418 C 
ENDBRANCH   5   7
ENDBRANCH   1   5
TORSDOF 2
ENDMDL
MODEL 7
REMARK VINA RESULT:      -4.2      9.291     10.346
REMARK  Name = 61207
REMARK  2 active torsions:
REMARK  status: ('A' for Active; 'I' for Inactive)
REMARK    1  A    between atoms: C_1  and  O_5
REMARK    2  A    between atoms: O_5  and  C_7
REMARK                            x       y       z     vdW  Elec       q    Type
REMARK                         _______ _______ _______ _____ _____    ______ ____
ROOT
ATOM      1  C   UNL     1      34.599 -19.047 -21.664  0.00  0.00    +0.137 C 
ATOM      2  C   UNL     1      34.811 -19.203 -23.169  0.00  0.00    +0.044 C 
ATOM      3  C   UNL     1      34.456 -17.572 -21.293  0.00  0.00    +0.044 C 
ATOM      4  C   UNL     1      35.743 -19.689 -20.882  0.00  0.00    +0.044 C 
ENDROOT
BRANCH   1   5
ATOM      5  O   UNL     1      33.380 -19.700 -21.307  0.00  0.00    -0.448 OA
BRANCH   5   7
ATOM      6  O   UNL     1      32.526 -20.793 -19.455  0.00  0.00    -0.238 OA
ATOM      7  C   UNL     1      33.442 -20.485 -20.200  0.00  0.00    +0.418 C 
ENDBRANCH   5   7
ENDBRANCH   1   5
TORSDOF 2
ENDMDL
MODEL 8
REMARK VINA RESULT:      -4.2      8.988     10.165
REMARK  Name = 61207
REMARK  2 active torsions:
REMARK  status: ('A' for Active; 'I' for Inactive)
REMARK    1  A    between atoms: C_1  and  O_5
REMARK    2  A    between atoms: O_5  and  C_7
REMARK                            x       y       z     vdW  Elec       q    Type
REMARK                         _______ _______ _______ _____ _____    ______ ____
ROOT
ATOM      1  C   UNL     1      34.538 -18.878 -21.379  0.00  0.00    +0.137 C 
ATOM      2  C   UNL     1      33.378 -19.686 -20.798  0.00  0.00    +0.044 C 
ATOM      3  C   UNL     1      34.237 -17.382 -21.309  0.00  0.00    +0.044 C 
ATOM      4  C   UNL     1      34.830 -19.301 -22.817  0.00  0.00    +0.044 C 
ENDROOT
BRANCH   1   5
ATOM      5  O   UNL     1      35.701 -19.120 -20.587  0.00  0.00    -0.448 OA
BRANCH   5   7
ATOM      6  O   UNL     1      36.374 -20.792 -19.136  0.00  0.00    -0.238 OA
ATOM      7  C   UNL     1      35.872 -20.404 -20.179  0.00  0.00    +0.418 C 
ENDBRANCH   5   7
ENDBRANCH   1   5
TORSDOF 2
ENDMDL
MODEL 9
REMARK VINA RESULT:      -4.2      8.968     10.125
REMARK  Name = 61207
REMARK  2 active torsions:
REMARK  status: ('A' for Active; 'I' for Inactive)
REMARK    1  A    between atoms: C_1  and  O_5
REMARK    2  A    between atoms: O_5  and  C_7
REMARK                            x       y       z     vdW  Elec       q    Type
REMARK                         _______ _______ _______ _____ _____    ______ ____
ROOT
ATOM      1  C   UNL     1      34.528 -18.892 -21.373  0.00  0.00    +0.137 C 
ATOM      2  C   UNL     1      34.831 -19.296 -22.815  0.00  0.00    +0.044 C 
ATOM      3  C   UNL     1      33.377 -19.726 -20.813  0.00  0.00    +0.044 C 
ATOM      4  C   UNL     1      34.205 -17.401 -21.281  0.00  0.00    +0.044 C 
ENDROOT
BRANCH   1   5
ATOM      5  O   UNL     1      35.681 -19.158 -20.574  0.00  0.00    -0.448 OA
BRANCH   5   7
ATOM      6  O   UNL     1      36.310 -20.857 -19.133  0.00  0.00    -0.238 OA
ATOM      7  C   UNL     1      35.832 -20.450 -20.180  0.00  0.00    +0.418 C 
ENDBRANCH   5   7
ENDBRANCH   1   5
TORSDOF 2
ENDMDL
