MODEL 1
REMARK VINA RESULT:      -5.8      0.000      0.000
REMARK  Name = 6995013
REMARK  8 active torsions:
REMARK  status: ('A' for Active; 'I' for Inactive)
REMARK    1  A    between atoms: C_1  and  O_2
REMARK    2  A    between atoms: C_1  and  C_5
REMARK    3  A    between atoms: C_1  and  C_8
REMARK    4  A    between atoms: C_5  and  O_6
REMARK    5  A    between atoms: C_8  and  C_9
REMARK    6  A    between atoms: C_9  and  C_10
REMARK    7  A    between atoms: C_10  and  C_11
REMARK    8  A    between atoms: C_11  and  C_12
REMARK                            x       y       z     vdW  Elec       q    Type
REMARK                         _______ _______ _______ _____ _____    ______ ____
ROOT
ATOM      1  C   UNL     1      34.941 -16.743 -25.099  0.00  0.00    +0.209 C 
ENDROOT
BRANCH   1   2
ATOM      2  O   UNL     1      35.555 -16.199 -23.933  0.00  0.00    -0.374 OA
ATOM      3  H   UNL     1      34.870 -15.960 -23.289  0.00  0.00    +0.211 HD
ENDBRANCH   1   2
BRANCH   1   5
ATOM      4  O   UNL     1      33.292 -15.718 -26.561  0.00  0.00    -0.248 OA
ATOM      5  C   UNL     1      33.786 -15.825 -25.446  0.00  0.00    +0.341 C 
BRANCH   5   6
ATOM      6  O   UNL     1      33.341 -15.125 -24.372  0.00  0.00    -0.479 OA
ATOM      7  H   UNL     1      33.797 -14.356 -24.091  0.00  0.00    +0.295 HD
ENDBRANCH   5   6
ENDBRANCH   1   5
BRANCH   1   8
ATOM      8  C   UNL     1      34.472 -18.156 -24.750  0.00  0.00    +0.041 C 
BRANCH   8   9
ATOM      9  C   UNL     1      35.274 -18.804 -23.621  0.00  0.00    +0.003 C 
BRANCH   9  10
ATOM     10  C   UNL     1      34.414 -19.197 -22.414  0.00  0.00    +0.000 C 
BRANCH  10  11
ATOM     11  C   UNL     1      35.180 -19.534 -21.130  0.00  0.00    +0.000 C 
BRANCH  11  12
ATOM     12  C   UNL     1      34.462 -20.551 -20.243  0.00  0.00    +0.000 C 
ATOM     13  C   UNL     1      32.954 -20.350 -20.277  0.00  0.00    +0.000 C 
ENDBRANCH  11  12
ENDBRANCH  10  11
ENDBRANCH   9  10
ENDBRANCH   8   9
ENDBRANCH   1   8
TORSDOF 8
ENDMDL
MODEL 2
REMARK VINA RESULT:      -5.6      8.346     10.501
REMARK  Name = 6995013
REMARK  8 active torsions:
REMARK  status: ('A' for Active; 'I' for Inactive)
REMARK    1  A    between atoms: C_1  and  O_2
REMARK    2  A    between atoms: C_1  and  C_5
REMARK    3  A    between atoms: C_1  and  C_8
REMARK    4  A    between atoms: C_5  and  O_6
REMARK    5  A    between atoms: C_8  and  C_9
REMARK    6  A    between atoms: C_9  and  C_10
REMARK    7  A    between atoms: C_10  and  C_11
REMARK    8  A    between atoms: C_11  and  C_12
REMARK                            x       y       z     vdW  Elec       q    Type
REMARK                         _______ _______ _______ _____ _____    ______ ____
ROOT
ATOM      1  C   UNL     1      27.938 -23.198 -16.395  0.00  0.00    +0.209 C 
ENDROOT
BRANCH   1   2
ATOM      2  O   UNL     1      27.779 -23.906 -17.622  0.00  0.00    -0.374 OA
ATOM      3  H   UNL     1      28.422 -23.578 -18.270  0.00  0.00    +0.211 HD
ENDBRANCH   1   2
BRANCH   1   5
ATOM      4  O   UNL     1      25.933 -22.132 -15.529  0.00  0.00    -0.248 OA
ATOM      5  C   UNL     1      26.838 -22.156 -16.353  0.00  0.00    +0.341 C 
BRANCH   5   6
ATOM      6  O   UNL     1      26.964 -21.230 -17.336  0.00  0.00    -0.479 OA
ATOM      7  H   UNL     1      26.201 -20.856 -17.730  0.00  0.00    +0.295 HD
ENDBRANCH   5   6
ENDBRANCH   1   5
BRANCH   1   8
ATOM      8  C   UNL     1      29.332 -22.567 -16.410  0.00  0.00    +0.041 C 
BRANCH   8   9
ATOM      9  C   UNL     1      30.134 -22.829 -15.135  0.00  0.00    +0.003 C 
BRANCH   9  10
ATOM     10  C   UNL     1      31.605 -23.167 -15.403  0.00  0.00    +0.000 C 
BRANCH  10  11
ATOM     11  C   UNL     1      32.024 -23.199 -16.877  0.00  0.00    +0.000 C 
BRANCH  11  12
ATOM     12  C   UNL     1      33.539 -23.138 -17.080  0.00  0.00    +0.000 C 
ATOM     13  C   UNL     1      33.891 -22.629 -18.469  0.00  0.00    +0.000 C 
ENDBRANCH  11  12
ENDBRANCH  10  11
ENDBRANCH   9  10
ENDBRANCH   8   9
ENDBRANCH   1   8
TORSDOF 8
ENDMDL
MODEL 3
REMARK VINA RESULT:      -5.6      1.598      2.346
REMARK  Name = 6995013
REMARK  8 active torsions:
REMARK  status: ('A' for Active; 'I' for Inactive)
REMARK    1  A    between atoms: C_1  and  O_2
REMARK    2  A    between atoms: C_1  and  C_5
REMARK    3  A    between atoms: C_1  and  C_8
REMARK    4  A    between atoms: C_5  and  O_6
REMARK    5  A    between atoms: C_8  and  C_9
REMARK    6  A    between atoms: C_9  and  C_10
REMARK    7  A    between atoms: C_10  and  C_11
REMARK    8  A    between atoms: C_11  and  C_12
REMARK                            x       y       z     vdW  Elec       q    Type
REMARK                         _______ _______ _______ _____ _____    ______ ____
ROOT
ATOM      1  C   UNL     1      34.602 -18.227 -23.822  0.00  0.00    +0.209 C 
ENDROOT
BRANCH   1   2
ATOM      2  O   UNL     1      34.658 -19.314 -24.743  0.00  0.00    -0.374 OA
ATOM      3  H   UNL     1      33.766 -19.506 -25.072  0.00  0.00    +0.211 HD
ENDBRANCH   1   2
BRANCH   1   5
ATOM      4  O   UNL     1      34.584 -16.798 -25.789  0.00  0.00    -0.248 OA
ATOM      5  C   UNL     1      34.902 -16.973 -24.619  0.00  0.00    +0.341 C 
BRANCH   5   6
ATOM      6  O   UNL     1      35.563 -16.041 -23.888  0.00  0.00    -0.479 OA
ATOM      7  H   UNL     1      36.499 -16.061 -23.839  0.00  0.00    +0.295 HD
ENDBRANCH   5   6
ENDBRANCH   1   5
BRANCH   1   8
ATOM      8  C   UNL     1      35.652 -18.490 -22.741  0.00  0.00    +0.041 C 
BRANCH   8   9
ATOM      9  C   UNL     1      35.089 -18.451 -21.320  0.00  0.00    +0.003 C 
BRANCH   9  10
ATOM     10  C   UNL     1      33.992 -19.493 -21.074  0.00  0.00    +0.000 C 
BRANCH  10  11
ATOM     11  C   UNL     1      34.389 -20.686 -20.199  0.00  0.00    +0.000 C 
BRANCH  11  12
ATOM     12  C   UNL     1      35.901 -20.847 -20.039  0.00  0.00    +0.000 C 
ATOM     13  C   UNL     1      36.246 -21.602 -18.764  0.00  0.00    +0.000 C 
ENDBRANCH  11  12
ENDBRANCH  10  11
ENDBRANCH   9  10
ENDBRANCH   8   9
ENDBRANCH   1   8
TORSDOF 8
ENDMDL
MODEL 4
REMARK VINA RESULT:      -5.6      4.871      6.978
REMARK  Name = 6995013
REMARK  8 active torsions:
REMARK  status: ('A' for Active; 'I' for Inactive)
REMARK    1  A    between atoms: C_1  and  O_2
REMARK    2  A    between atoms: C_1  and  C_5
REMARK    3  A    between atoms: C_1  and  C_8
REMARK    4  A    between atoms: C_5  and  O_6
REMARK    5  A    between atoms: C_8  and  C_9
REMARK    6  A    between atoms: C_9  and  C_10
REMARK    7  A    between atoms: C_10  and  C_11
REMARK    8  A    between atoms: C_11  and  C_12
REMARK                            x       y       z     vdW  Elec       q    Type
REMARK                         _______ _______ _______ _____ _____    ______ ____
ROOT
ATOM      1  C   UNL     1      34.568 -22.142 -19.577  0.00  0.00    +0.209 C 
ENDROOT
BRANCH   1   2
ATOM      2  O   UNL     1      34.090 -23.481 -19.471  0.00  0.00    -0.374 OA
ATOM      3  H   UNL     1      33.169 -23.473 -19.166  0.00  0.00    +0.211 HD
ENDBRANCH   1   2
BRANCH   1   5
ATOM      4  O   UNL     1      36.483 -21.144 -18.462  0.00  0.00    -0.248 OA
ATOM      5  C   UNL     1      35.562 -21.950 -18.448  0.00  0.00    +0.341 C 
BRANCH   5   6
ATOM      6  O   UNL     1      35.317 -22.772 -17.398  0.00  0.00    -0.479 OA
ATOM      7  H   UNL     1      35.851 -22.724 -16.630  0.00  0.00    +0.295 HD
ENDBRANCH   5   6
ENDBRANCH   1   5
BRANCH   1   8
ATOM      8  C   UNL     1      33.358 -21.215 -19.446  0.00  0.00    +0.041 C 
BRANCH   8   9
ATOM      9  C   UNL     1      33.222 -20.221 -20.601  0.00  0.00    +0.003 C 
BRANCH   9  10
ATOM     10  C   UNL     1      34.564 -19.650 -21.071  0.00  0.00    +0.000 C 
BRANCH  10  11
ATOM     11  C   UNL     1      34.484 -18.500 -22.079  0.00  0.00    +0.000 C 
BRANCH  11  12
ATOM     12  C   UNL     1      35.345 -18.720 -23.324  0.00  0.00    +0.000 C 
ATOM     13  C   UNL     1      34.486 -18.920 -24.563  0.00  0.00    +0.000 C 
ENDBRANCH  11  12
ENDBRANCH  10  11
ENDBRANCH   9  10
ENDBRANCH   8   9
ENDBRANCH   1   8
TORSDOF 8
ENDMDL
MODEL 5
REMARK VINA RESULT:      -5.5     11.333     13.427
REMARK  Name = 6995013
REMARK  8 active torsions:
REMARK  status: ('A' for Active; 'I' for Inactive)
REMARK    1  A    between atoms: C_1  and  O_2
REMARK    2  A    between atoms: C_1  and  C_5
REMARK    3  A    between atoms: C_1  and  C_8
REMARK    4  A    between atoms: C_5  and  O_6
REMARK    5  A    between atoms: C_8  and  C_9
REMARK    6  A    between atoms: C_9  and  C_10
REMARK    7  A    between atoms: C_10  and  C_11
REMARK    8  A    between atoms: C_11  and  C_12
REMARK                            x       y       z     vdW  Elec       q    Type
REMARK                         _______ _______ _______ _____ _____    ______ ____
ROOT
ATOM      1  C   UNL     1      36.910 -23.546 -11.867  0.00  0.00    +0.209 C 
ENDROOT
BRANCH   1   2
ATOM      2  O   UNL     1      37.285 -22.360 -11.171  0.00  0.00    -0.374 OA
ATOM      3  H   UNL     1      37.851 -22.592 -10.418  0.00  0.00    +0.211 HD
ENDBRANCH   1   2
BRANCH   1   5
ATOM      4  O   UNL     1      35.970 -24.286  -9.752  0.00  0.00    -0.248 OA
ATOM      5  C   UNL     1      35.925 -24.275 -10.975  0.00  0.00    +0.341 C 
BRANCH   5   6
ATOM      6  O   UNL     1      34.965 -24.921 -11.684  0.00  0.00    -0.479 OA
ATOM      7  H   UNL     1      35.115 -25.144 -12.581  0.00  0.00    +0.295 HD
ENDBRANCH   5   6
ENDBRANCH   1   5
BRANCH   1   8
ATOM      8  C   UNL     1      38.185 -24.356 -12.106  0.00  0.00    +0.041 C 
BRANCH   8   9
ATOM      9  C   UNL     1      37.973 -25.583 -12.993  0.00  0.00    +0.003 C 
BRANCH   9  10
ATOM     10  C   UNL     1      37.658 -25.230 -14.451  0.00  0.00    +0.000 C 
BRANCH  10  11
ATOM     11  C   UNL     1      36.249 -25.587 -14.936  0.00  0.00    +0.000 C 
BRANCH  11  12
ATOM     12  C   UNL     1      35.372 -24.365 -15.210  0.00  0.00    +0.000 C 
ATOM     13  C   UNL     1      36.212 -23.150 -15.575  0.00  0.00    +0.000 C 
ENDBRANCH  11  12
ENDBRANCH  10  11
ENDBRANCH   9  10
ENDBRANCH   8   9
ENDBRANCH   1   8
TORSDOF 8
ENDMDL
MODEL 6
REMARK VINA RESULT:      -5.5      1.489      1.884
REMARK  Name = 6995013
REMARK  8 active torsions:
REMARK  status: ('A' for Active; 'I' for Inactive)
REMARK    1  A    between atoms: C_1  and  O_2
REMARK    2  A    between atoms: C_1  and  C_5
REMARK    3  A    between atoms: C_1  and  C_8
REMARK    4  A    between atoms: C_5  and  O_6
REMARK    5  A    between atoms: C_8  and  C_9
REMARK    6  A    between atoms: C_9  and  C_10
REMARK    7  A    between atoms: C_10  and  C_11
REMARK    8  A    between atoms: C_11  and  C_12
REMARK                            x       y       z     vdW  Elec       q    Type
REMARK                         _______ _______ _______ _____ _____    ______ ____
ROOT
ATOM      1  C   UNL     1      34.101 -16.427 -24.756  0.00  0.00    +0.209 C 
ENDROOT
BRANCH   1   2
ATOM      2  O   UNL     1      34.927 -16.995 -25.769  0.00  0.00    -0.374 OA
ATOM      3  H   UNL     1      35.482 -16.303 -26.160  0.00  0.00    +0.211 HD
ENDBRANCH   1   2
BRANCH   1   5
ATOM      4  O   UNL     1      32.980 -14.272 -24.716  0.00  0.00    -0.248 OA
ATOM      5  C   UNL     1      33.466 -15.192 -25.361  0.00  0.00    +0.341 C 
BRANCH   5   6
ATOM      6  O   UNL     1      33.498 -15.205 -26.717  0.00  0.00    -0.479 OA
ATOM      7  H   UNL     1      33.407 -14.405 -27.197  0.00  0.00    +0.295 HD
ENDBRANCH   5   6
ENDBRANCH   1   5
BRANCH   1   8
ATOM      8  C   UNL     1      35.004 -16.091 -23.568  0.00  0.00    +0.041 C 
BRANCH   8   9
ATOM      9  C   UNL     1      34.336 -16.316 -22.210  0.00  0.00    +0.003 C 
BRANCH   9  10
ATOM     10  C   UNL     1      34.985 -17.439 -21.394  0.00  0.00    +0.000 C 
BRANCH  10  11
ATOM     11  C   UNL     1      34.841 -18.851 -21.970  0.00  0.00    +0.000 C 
BRANCH  11  12
ATOM     12  C   UNL     1      34.415 -19.891 -20.933  0.00  0.00    +0.000 C 
ATOM     13  C   UNL     1      32.917 -19.835 -20.676  0.00  0.00    +0.000 C 
ENDBRANCH  11  12
ENDBRANCH  10  11
ENDBRANCH   9  10
ENDBRANCH   8   9
ENDBRANCH   1   8
TORSDOF 8
ENDMDL
MODEL 7
REMARK VINA RESULT:      -5.5     11.272     13.133
REMARK  Name = 6995013
REMARK  8 active torsions:
REMARK  status: ('A' for Active; 'I' for Inactive)
REMARK    1  A    between atoms: C_1  and  O_2
REMARK    2  A    between atoms: C_1  and  C_5
REMARK    3  A    between atoms: C_1  and  C_8
REMARK    4  A    between atoms: C_5  and  O_6
REMARK    5  A    between atoms: C_8  and  C_9
REMARK    6  A    between atoms: C_9  and  C_10
REMARK    7  A    between atoms: C_10  and  C_11
REMARK    8  A    between atoms: C_11  and  C_12
REMARK                            x       y       z     vdW  Elec       q    Type
REMARK                         _______ _______ _______ _____ _____    ______ ____
ROOT
ATOM      1  C   UNL     1      38.724 -25.714 -14.491  0.00  0.00    +0.209 C 
ENDROOT
BRANCH   1   2
ATOM      2  O   UNL     1      38.505 -27.092 -14.780  0.00  0.00    -0.374 OA
ATOM      3  H   UNL     1      38.135 -27.180 -15.672  0.00  0.00    +0.211 HD
ENDBRANCH   1   2
BRANCH   1   5
ATOM      4  O   UNL     1      40.940 -24.744 -14.252  0.00  0.00    -0.248 OA
ATOM      5  C   UNL     1      40.148 -25.407 -14.910  0.00  0.00    +0.341 C 
BRANCH   5   6
ATOM      6  O   UNL     1      40.465 -25.959 -16.108  0.00  0.00    -0.479 OA
ATOM      7  H   UNL     1      40.225 -25.524 -16.903  0.00  0.00    +0.295 HD
ENDBRANCH   5   6
ENDBRANCH   1   5
BRANCH   1   8
ATOM      8  C   UNL     1      38.510 -25.524 -12.988  0.00  0.00    +0.041 C 
BRANCH   8   9
ATOM      9  C   UNL     1      37.111 -25.921 -12.516  0.00  0.00    +0.003 C 
BRANCH   9  10
ATOM     10  C   UNL     1      36.318 -24.752 -11.919  0.00  0.00    +0.000 C 
BRANCH  10  11
ATOM     11  C   UNL     1      35.699 -23.781 -12.930  0.00  0.00    +0.000 C 
BRANCH  11  12
ATOM     12  C   UNL     1      35.142 -24.472 -14.175  0.00  0.00    +0.000 C 
ATOM     13  C   UNL     1      34.618 -23.460 -15.182  0.00  0.00    +0.000 C 
ENDBRANCH  11  12
ENDBRANCH  10  11
ENDBRANCH   9  10
ENDBRANCH   8   9
ENDBRANCH   1   8
TORSDOF 8
ENDMDL
MODEL 8
REMARK VINA RESULT:      -5.5      2.792      3.869
REMARK  Name = 6995013
REMARK  8 active torsions:
REMARK  status: ('A' for Active; 'I' for Inactive)
REMARK    1  A    between atoms: C_1  and  O_2
REMARK    2  A    between atoms: C_1  and  C_5
REMARK    3  A    between atoms: C_1  and  C_8
REMARK    4  A    between atoms: C_5  and  O_6
REMARK    5  A    between atoms: C_8  and  C_9
REMARK    6  A    between atoms: C_9  and  C_10
REMARK    7  A    between atoms: C_10  and  C_11
REMARK    8  A    between atoms: C_11  and  C_12
REMARK                            x       y       z     vdW  Elec       q    Type
REMARK                         _______ _______ _______ _____ _____    ______ ____
ROOT
ATOM      1  C   UNL     1      34.977 -17.893 -21.454  0.00  0.00    +0.209 C 
ENDROOT
BRANCH   1   2
ATOM      2  O   UNL     1      35.999 -18.358 -20.574  0.00  0.00    -0.374 OA
ATOM      3  H   UNL     1      35.765 -18.133 -19.660  0.00  0.00    +0.211 HD
ENDBRANCH   1   2
BRANCH   1   5
ATOM      4  O   UNL     1      34.916 -15.807 -20.209  0.00  0.00    -0.248 OA
ATOM      5  C   UNL     1      34.917 -16.388 -21.286  0.00  0.00    +0.341 C 
BRANCH   5   6
ATOM      6  O   UNL     1      34.873 -15.737 -22.475  0.00  0.00    -0.479 OA
ATOM      7  H   UNL     1      34.268 -15.033 -22.602  0.00  0.00    +0.295 HD
ENDBRANCH   5   6
ENDBRANCH   1   5
BRANCH   1   8
ATOM      8  C   UNL     1      33.672 -18.575 -21.036  0.00  0.00    +0.041 C 
BRANCH   8   9
ATOM      9  C   UNL     1      33.737 -20.101 -21.088  0.00  0.00    +0.003 C 
BRANCH   9  10
ATOM     10  C   UNL     1      33.151 -20.775 -19.842  0.00  0.00    +0.000 C 
BRANCH  10  11
ATOM     11  C   UNL     1      34.017 -21.867 -19.205  0.00  0.00    +0.000 C 
BRANCH  11  12
ATOM     12  C   UNL     1      35.468 -21.851 -19.685  0.00  0.00    +0.000 C 
ATOM     13  C   UNL     1      36.425 -21.526 -18.548  0.00  0.00    +0.000 C 
ENDBRANCH  11  12
ENDBRANCH  10  11
ENDBRANCH   9  10
ENDBRANCH   8   9
ENDBRANCH   1   8
TORSDOF 8
ENDMDL
MODEL 9
REMARK VINA RESULT:      -5.5      2.711      3.334
REMARK  Name = 6995013
REMARK  8 active torsions:
REMARK  status: ('A' for Active; 'I' for Inactive)
REMARK    1  A    between atoms: C_1  and  O_2
REMARK    2  A    between atoms: C_1  and  C_5
REMARK    3  A    between atoms: C_1  and  C_8
REMARK    4  A    between atoms: C_5  and  O_6
REMARK    5  A    between atoms: C_8  and  C_9
REMARK    6  A    between atoms: C_9  and  C_10
REMARK    7  A    between atoms: C_10  and  C_11
REMARK    8  A    between atoms: C_11  and  C_12
REMARK                            x       y       z     vdW  Elec       q    Type
REMARK                         _______ _______ _______ _____ _____    ______ ____
ROOT
ATOM      1  C   UNL     1      34.078 -16.327 -24.818  0.00  0.00    +0.209 C 
ENDROOT
BRANCH   1   2
ATOM      2  O   UNL     1      34.976 -16.908 -25.761  0.00  0.00    -0.374 OA
ATOM      3  H   UNL     1      34.721 -16.639 -26.658  0.00  0.00    +0.211 HD
ENDBRANCH   1   2
BRANCH   1   5
ATOM      4  O   UNL     1      32.919 -14.195 -24.932  0.00  0.00    -0.248 OA
ATOM      5  C   UNL     1      33.435 -15.142 -25.510  0.00  0.00    +0.341 C 
BRANCH   5   6
ATOM      6  O   UNL     1      33.498 -15.236 -26.862  0.00  0.00    -0.479 OA
ATOM      7  H   UNL     1      32.952 -14.692 -27.395  0.00  0.00    +0.295 HD
ENDBRANCH   5   6
ENDBRANCH   1   5
BRANCH   1   8
ATOM      8  C   UNL     1      34.905 -15.909 -23.601  0.00  0.00    +0.041 C 
BRANCH   8   9
ATOM      9  C   UNL     1      35.227 -17.065 -22.654  0.00  0.00    +0.003 C 
BRANCH   9  10
ATOM     10  C   UNL     1      34.697 -16.850 -21.232  0.00  0.00    +0.000 C 
BRANCH  10  11
ATOM     11  C   UNL     1      34.552 -15.391 -20.788  0.00  0.00    +0.000 C 
BRANCH  11  12
ATOM     12  C   UNL     1      33.125 -15.017 -20.383  0.00  0.00    +0.000 C 
ATOM     13  C   UNL     1      32.368 -14.387 -21.542  0.00  0.00    +0.000 C 
ENDBRANCH  11  12
ENDBRANCH  10  11
ENDBRANCH   9  10
ENDBRANCH   8   9
ENDBRANCH   1   8
TORSDOF 8
ENDMDL
