MODEL 1
REMARK VINA RESULT:      -6.2      0.000      0.000
REMARK  Name = 17753774
REMARK  1 active torsions:
REMARK  status: ('A' for Active; 'I' for Inactive)
REMARK    1  A    between atoms: C_1  and  N_9
REMARK                            x       y       z     vdW  Elec       q    Type
REMARK                         _______ _______ _______ _____ _____    ______ ____
ROOT
ATOM      1  C   UNL     1      35.589 -20.044 -20.887  0.00  0.00    +0.018 C 
ATOM      2  C   UNL     1      35.263 -21.007 -19.747  0.00  0.00    -0.011 C 
ATOM      3  C   UNL     1      34.365 -19.592 -21.684  0.00  0.00    -0.011 C 
ATOM      4  C   UNL     1      33.993 -21.254 -19.378  0.00  0.00    -0.003 C 
ATOM      5  C   UNL     1      33.050 -19.856 -21.126  0.00  0.00    -0.003 C 
ATOM      6  C   UNL     1      36.418 -21.691 -19.070  0.00  0.00    +0.032 C 
ATOM      7  C   UNL     1      32.881 -20.622 -20.039  0.00  0.00    -0.001 C 
ATOM      8  C   UNL     1      34.490 -18.978 -22.873  0.00  0.00    +0.032 C 
ENDROOT
BRANCH   1   9
ATOM      9  N   UNL     1      36.334 -18.874 -20.399  0.00  0.00    -0.416 NA
ATOM     10  H   UNL     1      36.977 -19.164 -19.661  0.00  0.00    +0.121 HD
ATOM     11  H   UNL     1      35.680 -18.185 -20.028  0.00  0.00    +0.121 HD
ATOM     12  H   UNL     1      36.863 -18.462 -21.168  0.00  0.00    +0.121 HD
ENDBRANCH   1   9
TORSDOF 1
ENDMDL
MODEL 2
REMARK VINA RESULT:      -6.0      2.759      4.316
REMARK  Name = 17753774
REMARK  1 active torsions:
REMARK  status: ('A' for Active; 'I' for Inactive)
REMARK    1  A    between atoms: C_1  and  N_9
REMARK                            x       y       z     vdW  Elec       q    Type
REMARK                         _______ _______ _______ _____ _____    ______ ____
ROOT
ATOM      1  C   UNL     1      34.659 -16.909 -23.078  0.00  0.00    +0.018 C 
ATOM      2  C   UNL     1      34.660 -18.309 -23.686  0.00  0.00    -0.011 C 
ATOM      3  C   UNL     1      34.843 -16.892 -21.560  0.00  0.00    -0.011 C 
ATOM      4  C   UNL     1      34.995 -19.390 -22.959  0.00  0.00    -0.003 C 
ATOM      5  C   UNL     1      35.287 -18.115 -20.913  0.00  0.00    -0.003 C 
ATOM      6  C   UNL     1      34.242 -18.437 -25.125  0.00  0.00    +0.032 C 
ATOM      7  C   UNL     1      35.371 -19.278 -21.573  0.00  0.00    -0.001 C 
ATOM      8  C   UNL     1      34.593 -15.789 -20.835  0.00  0.00    +0.032 C 
ENDROOT
BRANCH   1   9
ATOM      9  N   UNL     1      35.666 -16.050 -23.718  0.00  0.00    -0.416 NA
ATOM     10  H   UNL     1      36.031 -16.515 -24.550  0.00  0.00    +0.121 HD
ATOM     11  H   UNL     1      36.430 -15.876 -23.064  0.00  0.00    +0.121 HD
ATOM     12  H   UNL     1      35.238 -15.163 -23.984  0.00  0.00    +0.121 HD
ENDBRANCH   1   9
TORSDOF 1
ENDMDL
MODEL 3
REMARK VINA RESULT:      -5.9      2.112      4.538
REMARK  Name = 17753774
REMARK  1 active torsions:
REMARK  status: ('A' for Active; 'I' for Inactive)
REMARK    1  A    between atoms: C_1  and  N_9
REMARK                            x       y       z     vdW  Elec       q    Type
REMARK                         _______ _______ _______ _____ _____    ______ ____
ROOT
ATOM      1  C   UNL     1      34.336 -17.281 -21.569  0.00  0.00    +0.018 C 
ATOM      2  C   UNL     1      34.597 -16.483 -22.845  0.00  0.00    -0.011 C 
ATOM      3  C   UNL     1      34.293 -18.794 -21.782  0.00  0.00    -0.011 C 
ATOM      4  C   UNL     1      34.952 -17.091 -23.992  0.00  0.00    -0.003 C 
ATOM      5  C   UNL     1      34.784 -19.321 -23.044  0.00  0.00    -0.003 C 
ATOM      6  C   UNL     1      34.414 -14.993 -22.778  0.00  0.00    +0.032 C 
ATOM      7  C   UNL     1      35.105 -18.521 -24.070  0.00  0.00    -0.001 C 
ATOM      8  C   UNL     1      33.806 -19.621 -20.841  0.00  0.00    +0.032 C 
ENDROOT
BRANCH   1   9
ATOM      9  N   UNL     1      35.313 -16.946 -20.522  0.00  0.00    -0.416 NA
ATOM     10  H   UNL     1      35.738 -16.041 -20.731  0.00  0.00    +0.121 HD
ATOM     11  H   UNL     1      36.038 -17.663 -20.492  0.00  0.00    +0.121 HD
ATOM     12  H   UNL     1      34.842 -16.899 -19.619  0.00  0.00    +0.121 HD
ENDBRANCH   1   9
TORSDOF 1
ENDMDL
MODEL 4
REMARK VINA RESULT:      -5.9      2.195      3.219
REMARK  Name = 17753774
REMARK  1 active torsions:
REMARK  status: ('A' for Active; 'I' for Inactive)
REMARK    1  A    between atoms: C_1  and  N_9
REMARK                            x       y       z     vdW  Elec       q    Type
REMARK                         _______ _______ _______ _____ _____    ______ ____
ROOT
ATOM      1  C   UNL     1      34.229 -21.994 -18.718  0.00  0.00    +0.018 C 
ATOM      2  C   UNL     1      35.613 -22.033 -18.075  0.00  0.00    -0.011 C 
ATOM      3  C   UNL     1      34.121 -21.027 -19.898  0.00  0.00    -0.011 C 
ATOM      4  C   UNL     1      36.667 -21.417 -18.641  0.00  0.00    -0.003 C 
ATOM      5  C   UNL     1      35.351 -20.498 -20.463  0.00  0.00    -0.003 C 
ATOM      6  C   UNL     1      35.747 -22.763 -16.768  0.00  0.00    +0.032 C 
ATOM      7  C   UNL     1      36.542 -20.695 -19.880  0.00  0.00    -0.001 C 
ATOM      8  C   UNL     1      32.928 -20.661 -20.398  0.00  0.00    +0.032 C 
ENDROOT
BRANCH   1   9
ATOM      9  N   UNL     1      33.793 -23.338 -19.126  0.00  0.00    -0.416 NA
ATOM     10  H   UNL     1      33.090 -23.681 -18.470  0.00  0.00    +0.121 HD
ATOM     11  H   UNL     1      34.594 -23.969 -19.127  0.00  0.00    +0.121 HD
ATOM     12  H   UNL     1      33.391 -23.296 -20.063  0.00  0.00    +0.121 HD
ENDBRANCH   1   9
TORSDOF 1
ENDMDL
MODEL 5
REMARK VINA RESULT:      -5.7      3.710      4.827
REMARK  Name = 17753774
REMARK  1 active torsions:
REMARK  status: ('A' for Active; 'I' for Inactive)
REMARK    1  A    between atoms: C_1  and  N_9
REMARK                            x       y       z     vdW  Elec       q    Type
REMARK                         _______ _______ _______ _____ _____    ______ ____
ROOT
ATOM      1  C   UNL     1      35.082 -17.880 -22.784  0.00  0.00    +0.018 C 
ATOM      2  C   UNL     1      34.687 -16.458 -22.389  0.00  0.00    -0.011 C 
ATOM      3  C   UNL     1      34.743 -18.238 -24.231  0.00  0.00    -0.011 C 
ATOM      4  C   UNL     1      34.269 -15.566 -23.305  0.00  0.00    -0.003 C 
ATOM      5  C   UNL     1      34.382 -17.159 -25.135  0.00  0.00    -0.003 C 
ATOM      6  C   UNL     1      34.756 -16.103 -20.930  0.00  0.00    +0.032 C 
ATOM      7  C   UNL     1      34.176 -15.908 -24.701  0.00  0.00    -0.001 C 
ATOM      8  C   UNL     1      34.762 -19.511 -24.662  0.00  0.00    +0.032 C 
ENDROOT
BRANCH   1   9
ATOM      9  N   UNL     1      36.508 -18.128 -22.523  0.00  0.00    -0.416 NA
ATOM     10  H   UNL     1      36.675 -19.134 -22.481  0.00  0.00    +0.121 HD
ATOM     11  H   UNL     1      36.770 -17.702 -21.635  0.00  0.00    +0.121 HD
ATOM     12  H   UNL     1      37.067 -17.722 -23.274  0.00  0.00    +0.121 HD
ENDBRANCH   1   9
TORSDOF 1
ENDMDL
MODEL 6
REMARK VINA RESULT:      -5.6      3.059      4.479
REMARK  Name = 17753774
REMARK  1 active torsions:
REMARK  status: ('A' for Active; 'I' for Inactive)
REMARK    1  A    between atoms: C_1  and  N_9
REMARK                            x       y       z     vdW  Elec       q    Type
REMARK                         _______ _______ _______ _____ _____    ______ ____
ROOT
ATOM      1  C   UNL     1      34.954 -16.578 -22.183  0.00  0.00    +0.018 C 
ATOM      2  C   UNL     1      35.465 -17.989 -22.467  0.00  0.00    -0.011 C 
ATOM      3  C   UNL     1      34.514 -15.816 -23.432  0.00  0.00    -0.011 C 
ATOM      4  C   UNL     1      35.338 -18.550 -23.683  0.00  0.00    -0.003 C 
ATOM      5  C   UNL     1      34.338 -16.566 -24.665  0.00  0.00    -0.003 C 
ATOM      6  C   UNL     1      36.144 -18.717 -21.341  0.00  0.00    +0.032 C 
ATOM      7  C   UNL     1      34.711 -17.849 -24.774  0.00  0.00    -0.001 C 
ATOM      8  C   UNL     1      34.303 -14.488 -23.407  0.00  0.00    +0.032 C 
ENDROOT
BRANCH   1   9
ATOM      9  N   UNL     1      33.867 -16.595 -21.192  0.00  0.00    -0.416 NA
ATOM     10  H   UNL     1      32.972 -16.696 -21.672  0.00  0.00    +0.121 HD
ATOM     11  H   UNL     1      33.874 -15.723 -20.665  0.00  0.00    +0.121 HD
ATOM     12  H   UNL     1      34.001 -17.380 -20.554  0.00  0.00    +0.121 HD
ENDBRANCH   1   9
TORSDOF 1
ENDMDL
MODEL 7
REMARK VINA RESULT:      -5.6      3.815      5.319
REMARK  Name = 17753774
REMARK  1 active torsions:
REMARK  status: ('A' for Active; 'I' for Inactive)
REMARK    1  A    between atoms: C_1  and  N_9
REMARK                            x       y       z     vdW  Elec       q    Type
REMARK                         _______ _______ _______ _____ _____    ______ ____
ROOT
ATOM      1  C   UNL     1      34.039 -15.549 -22.896  0.00  0.00    +0.018 C 
ATOM      2  C   UNL     1      34.694 -16.686 -23.679  0.00  0.00    -0.011 C 
ATOM      3  C   UNL     1      34.013 -15.772 -21.384  0.00  0.00    -0.011 C 
ATOM      4  C   UNL     1      35.355 -17.678 -23.054  0.00  0.00    -0.003 C 
ATOM      5  C   UNL     1      34.841 -16.833 -20.836  0.00  0.00    -0.003 C 
ATOM      6  C   UNL     1      34.546 -16.669 -25.174  0.00  0.00    +0.032 C 
ATOM      7  C   UNL     1      35.479 -17.713 -21.620  0.00  0.00    -0.001 C 
ATOM      8  C   UNL     1      33.242 -15.023 -20.578  0.00  0.00    +0.032 C 
ENDROOT
BRANCH   1   9
ATOM      9  N   UNL     1      34.671 -14.258 -23.206  0.00  0.00    -0.416 NA
ATOM     10  H   UNL     1      35.159 -14.324 -24.099  0.00  0.00    +0.121 HD
ATOM     11  H   UNL     1      35.337 -14.020 -22.471  0.00  0.00    +0.121 HD
ATOM     12  H   UNL     1      33.954 -13.533 -23.262  0.00  0.00    +0.121 HD
ENDBRANCH   1   9
TORSDOF 1
ENDMDL
MODEL 8
REMARK VINA RESULT:      -5.6      4.444      6.187
REMARK  Name = 17753774
REMARK  1 active torsions:
REMARK  status: ('A' for Active; 'I' for Inactive)
REMARK    1  A    between atoms: C_1  and  N_9
REMARK                            x       y       z     vdW  Elec       q    Type
REMARK                         _______ _______ _______ _____ _____    ______ ____
ROOT
ATOM      1  C   UNL     1      33.916 -15.236 -23.295  0.00  0.00    +0.018 C 
ATOM      2  C   UNL     1      33.829 -15.695 -24.749  0.00  0.00    -0.011 C 
ATOM      3  C   UNL     1      34.495 -16.287 -22.348  0.00  0.00    -0.011 C 
ATOM      4  C   UNL     1      34.400 -16.841 -25.159  0.00  0.00    -0.003 C 
ATOM      5  C   UNL     1      35.158 -17.442 -22.931  0.00  0.00    -0.003 C 
ATOM      6  C   UNL     1      33.052 -14.828 -25.701  0.00  0.00    +0.032 C 
ATOM      7  C   UNL     1      35.124 -17.689 -24.248  0.00  0.00    -0.001 C 
ATOM      8  C   UNL     1      34.389 -16.164 -21.014  0.00  0.00    +0.032 C 
ENDROOT
BRANCH   1   9
ATOM      9  N   UNL     1      34.672 -13.980 -23.177  0.00  0.00    -0.416 NA
ATOM     10  H   UNL     1      34.201 -13.249 -23.713  0.00  0.00    +0.121 HD
ATOM     11  H   UNL     1      35.614 -14.115 -23.542  0.00  0.00    +0.121 HD
ATOM     12  H   UNL     1      34.723 -13.704 -22.197  0.00  0.00    +0.121 HD
ENDBRANCH   1   9
TORSDOF 1
ENDMDL
MODEL 9
REMARK VINA RESULT:      -5.5      2.952      4.871
REMARK  Name = 17753774
REMARK  1 active torsions:
REMARK  status: ('A' for Active; 'I' for Inactive)
REMARK    1  A    between atoms: C_1  and  N_9
REMARK                            x       y       z     vdW  Elec       q    Type
REMARK                         _______ _______ _______ _____ _____    ______ ____
ROOT
ATOM      1  C   UNL     1      35.405 -18.133 -23.166  0.00  0.00    +0.018 C 
ATOM      2  C   UNL     1      34.826 -16.856 -23.772  0.00  0.00    -0.011 C 
ATOM      3  C   UNL     1      35.637 -18.052 -21.657  0.00  0.00    -0.011 C 
ATOM      4  C   UNL     1      34.385 -15.848 -22.996  0.00  0.00    -0.003 C 
ATOM      5  C   UNL     1      35.033 -16.948 -20.930  0.00  0.00    -0.003 C 
ATOM      6  C   UNL     1      34.794 -16.756 -25.271  0.00  0.00    +0.032 C 
ATOM      7  C   UNL     1      34.436 -15.927 -21.559  0.00  0.00    -0.001 C 
ATOM      8  C   UNL     1      36.387 -18.963 -21.013  0.00  0.00    +0.032 C 
ENDROOT
BRANCH   1   9
ATOM      9  N   UNL     1      34.569 -19.300 -23.486  0.00  0.00    -0.416 NA
ATOM     10  H   UNL     1      34.847 -19.678 -24.393  0.00  0.00    +0.121 HD
ATOM     11  H   UNL     1      33.590 -19.018 -23.521  0.00  0.00    +0.121 HD
ATOM     12  H   UNL     1      34.693 -20.014 -22.768  0.00  0.00    +0.121 HD
ENDBRANCH   1   9
TORSDOF 1
ENDMDL
