MODEL 1
REMARK VINA RESULT:      -7.6      0.000      0.000
REMARK  Name = 12675
REMARK  4 active torsions:
REMARK  status: ('A' for Active; 'I' for Inactive)
REMARK    1  A    between atoms: C_3  and  C_6
REMARK    2  A    between atoms: C_3  and  C_13
REMARK    3  A    between atoms: C_6  and  C_10
REMARK    4  A    between atoms: C_13  and  C_17
REMARK                            x       y       z     vdW  Elec       q    Type
REMARK                         _______ _______ _______ _____ _____    ______ ____
ROOT
ATOM      1  F   UNL     1      33.345 -17.236 -21.147  0.00  0.00    -0.192 F 
ATOM      2  F   UNL     1      35.497 -17.069 -20.870  0.00  0.00    -0.192 F 
ATOM      3  C   UNL     1      34.441 -16.528 -21.544  0.00  0.00    +0.390 C 
ENDROOT
BRANCH   3   6
ATOM      4  F   UNL     1      35.053 -14.867 -19.989  0.00  0.00    -0.189 F 
ATOM      5  F   UNL     1      34.721 -14.273 -22.050  0.00  0.00    -0.189 F 
ATOM      6  C   UNL     1      34.260 -15.097 -21.065  0.00  0.00    +0.409 C 
BRANCH   6  10
ATOM      7  F   UNL     1      31.993 -15.010 -21.722  0.00  0.00    -0.165 F 
ATOM      8  F   UNL     1      32.408 -15.229 -19.590  0.00  0.00    -0.165 F 
ATOM      9  F   UNL     1      32.789 -13.330 -20.581  0.00  0.00    -0.165 F 
ATOM     10  C   UNL     1      32.851 -14.672 -20.736  0.00  0.00    +0.460 C 
ENDBRANCH   6  10
ENDBRANCH   3   6
BRANCH   3  13
ATOM     11  F   UNL     1      33.620 -16.290 -23.739  0.00  0.00    -0.189 F 
ATOM     12  F   UNL     1      35.755 -16.073 -23.411  0.00  0.00    -0.189 F 
ATOM     13  C   UNL     1      34.660 -16.790 -23.025  0.00  0.00    +0.409 C 
BRANCH  13  17
ATOM     14  F   UNL     1      34.185 -19.084 -22.658  0.00  0.00    -0.165 F 
ATOM     15  F   UNL     1      36.191 -18.560 -23.341  0.00  0.00    -0.165 F 
ATOM     16  F   UNL     1      34.497 -18.422 -24.707  0.00  0.00    -0.165 F 
ATOM     17  C   UNL     1      34.887 -18.226 -23.427  0.00  0.00    +0.460 C 
ENDBRANCH  13  17
ENDBRANCH   3  13
TORSDOF 4
ENDMDL
MODEL 2
REMARK VINA RESULT:      -7.6      0.023      4.425
REMARK  Name = 12675
REMARK  4 active torsions:
REMARK  status: ('A' for Active; 'I' for Inactive)
REMARK    1  A    between atoms: C_3  and  C_6
REMARK    2  A    between atoms: C_3  and  C_13
REMARK    3  A    between atoms: C_6  and  C_10
REMARK    4  A    between atoms: C_13  and  C_17
REMARK                            x       y       z     vdW  Elec       q    Type
REMARK                         _______ _______ _______ _____ _____    ______ ____
ROOT
ATOM      1  F   UNL     1      35.476 -17.070 -20.861  0.00  0.00    -0.192 F 
ATOM      2  F   UNL     1      33.325 -17.223 -21.156  0.00  0.00    -0.192 F 
ATOM      3  C   UNL     1      34.429 -16.521 -21.543  0.00  0.00    +0.390 C 
ENDROOT
BRANCH   3   6
ATOM      4  F   UNL     1      33.618 -16.297 -23.743  0.00  0.00    -0.189 F 
ATOM      5  F   UNL     1      35.748 -16.056 -23.403  0.00  0.00    -0.189 F 
ATOM      6  C   UNL     1      34.659 -16.783 -23.022  0.00  0.00    +0.409 C 
BRANCH   6  10
ATOM      7  F   UNL     1      36.210 -18.542 -23.303  0.00  0.00    -0.165 F 
ATOM      8  F   UNL     1      34.193 -19.080 -22.668  0.00  0.00    -0.165 F 
ATOM      9  F   UNL     1      34.547 -18.416 -24.708  0.00  0.00    -0.165 F 
ATOM     10  C   UNL     1      34.905 -18.217 -23.420  0.00  0.00    +0.460 C 
ENDBRANCH   6  10
ENDBRANCH   3   6
BRANCH   3  13
ATOM     11  F   UNL     1      35.048 -14.865 -19.986  0.00  0.00    -0.189 F 
ATOM     12  F   UNL     1      34.719 -14.268 -22.047  0.00  0.00    -0.189 F 
ATOM     13  C   UNL     1      34.254 -15.090 -21.063  0.00  0.00    +0.409 C 
BRANCH  13  17
ATOM     14  F   UNL     1      32.399 -15.221 -19.592  0.00  0.00    -0.165 F 
ATOM     15  F   UNL     1      31.989 -14.984 -21.722  0.00  0.00    -0.165 F 
ATOM     16  F   UNL     1      32.793 -13.318 -20.569  0.00  0.00    -0.165 F 
ATOM     17  C   UNL     1      32.847 -14.659 -20.733  0.00  0.00    +0.460 C 
ENDBRANCH  13  17
ENDBRANCH   3  13
TORSDOF 4
ENDMDL
MODEL 3
REMARK VINA RESULT:      -7.6      0.847      2.139
REMARK  Name = 12675
REMARK  4 active torsions:
REMARK  status: ('A' for Active; 'I' for Inactive)
REMARK    1  A    between atoms: C_3  and  C_6
REMARK    2  A    between atoms: C_3  and  C_13
REMARK    3  A    between atoms: C_6  and  C_10
REMARK    4  A    between atoms: C_13  and  C_17
REMARK                            x       y       z     vdW  Elec       q    Type
REMARK                         _______ _______ _______ _____ _____    ______ ____
ROOT
ATOM      1  F   UNL     1      35.609 -15.988 -22.978  0.00  0.00    -0.192 F 
ATOM      2  F   UNL     1      33.493 -16.449 -23.187  0.00  0.00    -0.192 F 
ATOM      3  C   UNL     1      34.500 -16.351 -22.271  0.00  0.00    +0.390 C 
ENDROOT
BRANCH   3   6
ATOM      4  F   UNL     1      34.714 -15.442 -20.108  0.00  0.00    -0.189 F 
ATOM      5  F   UNL     1      34.783 -14.089 -21.803  0.00  0.00    -0.189 F 
ATOM      6  C   UNL     1      34.166 -15.208 -21.326  0.00  0.00    +0.409 C 
BRANCH   6  10
ATOM      7  F   UNL     1      32.181 -14.354 -22.279  0.00  0.00    -0.165 F 
ATOM      8  F   UNL     1      31.978 -15.976 -20.832  0.00  0.00    -0.165 F 
ATOM      9  F   UNL     1      32.535 -13.984 -20.159  0.00  0.00    -0.165 F 
ATOM     10  C   UNL     1      32.702 -14.885 -21.153  0.00  0.00    +0.460 C 
ENDBRANCH   6  10
ENDBRANCH   3   6
BRANCH   3  13
ATOM     11  F   UNL     1      35.712 -17.687 -20.756  0.00  0.00    -0.189 F 
ATOM     12  F   UNL     1      33.602 -18.111 -21.043  0.00  0.00    -0.189 F 
ATOM     13  C   UNL     1      34.738 -17.738 -21.700  0.00  0.00    +0.409 C 
BRANCH  13  17
ATOM     14  F   UNL     1      36.232 -18.585 -23.334  0.00  0.00    -0.165 F 
ATOM     15  F   UNL     1      34.100 -18.960 -23.617  0.00  0.00    -0.165 F 
ATOM     16  F   UNL     1      35.202 -20.013 -22.058  0.00  0.00    -0.165 F 
ATOM     17  C   UNL     1      35.071 -18.825 -22.691  0.00  0.00    +0.460 C 
ENDBRANCH  13  17
ENDBRANCH   3  13
TORSDOF 4
ENDMDL
MODEL 4
REMARK VINA RESULT:      -7.5      0.847      4.427
REMARK  Name = 12675
REMARK  4 active torsions:
REMARK  status: ('A' for Active; 'I' for Inactive)
REMARK    1  A    between atoms: C_3  and  C_6
REMARK    2  A    between atoms: C_3  and  C_13
REMARK    3  A    between atoms: C_6  and  C_10
REMARK    4  A    between atoms: C_13  and  C_17
REMARK                            x       y       z     vdW  Elec       q    Type
REMARK                         _______ _______ _______ _____ _____    ______ ____
ROOT
ATOM      1  F   UNL     1      33.488 -16.454 -23.188  0.00  0.00    -0.192 F 
ATOM      2  F   UNL     1      35.606 -15.993 -22.990  0.00  0.00    -0.192 F 
ATOM      3  C   UNL     1      34.499 -16.353 -22.277  0.00  0.00    +0.390 C 
ENDROOT
BRANCH   3   6
ATOM      4  F   UNL     1      35.711 -17.688 -20.760  0.00  0.00    -0.189 F 
ATOM      5  F   UNL     1      33.603 -18.116 -21.050  0.00  0.00    -0.189 F 
ATOM      6  C   UNL     1      34.740 -17.740 -21.705  0.00  0.00    +0.409 C 
BRANCH   6  10
ATOM      7  F   UNL     1      34.119 -18.944 -23.640  0.00  0.00    -0.165 F 
ATOM      8  F   UNL     1      36.250 -18.598 -23.319  0.00  0.00    -0.165 F 
ATOM      9  F   UNL     1      35.180 -20.020 -22.068  0.00  0.00    -0.165 F 
ATOM     10  C   UNL     1      35.076 -18.827 -22.696  0.00  0.00    +0.460 C 
ENDBRANCH   6  10
ENDBRANCH   3   6
BRANCH   3  13
ATOM     11  F   UNL     1      34.721 -15.445 -20.115  0.00  0.00    -0.189 F 
ATOM     12  F   UNL     1      34.788 -14.092 -21.811  0.00  0.00    -0.189 F 
ATOM     13  C   UNL     1      34.170 -15.209 -21.333  0.00  0.00    +0.409 C 
BRANCH  13  17
ATOM     14  F   UNL     1      31.983 -15.973 -20.828  0.00  0.00    -0.165 F 
ATOM     15  F   UNL     1      32.182 -14.355 -22.280  0.00  0.00    -0.165 F 
ATOM     16  F   UNL     1      32.545 -13.980 -20.163  0.00  0.00    -0.165 F 
ATOM     17  C   UNL     1      32.708 -14.884 -21.156  0.00  0.00    +0.460 C 
ENDBRANCH  13  17
ENDBRANCH   3  13
TORSDOF 4
ENDMDL
MODEL 5
REMARK VINA RESULT:      -7.3      1.220      2.571
REMARK  Name = 12675
REMARK  4 active torsions:
REMARK  status: ('A' for Active; 'I' for Inactive)
REMARK    1  A    between atoms: C_3  and  C_6
REMARK    2  A    between atoms: C_3  and  C_13
REMARK    3  A    between atoms: C_6  and  C_10
REMARK    4  A    between atoms: C_13  and  C_17
REMARK                            x       y       z     vdW  Elec       q    Type
REMARK                         _______ _______ _______ _____ _____    ______ ____
ROOT
ATOM      1  F   UNL     1      35.804 -16.202 -23.257  0.00  0.00    -0.192 F 
ATOM      2  F   UNL     1      34.030 -17.427 -23.551  0.00  0.00    -0.192 F 
ATOM      3  C   UNL     1      34.871 -16.944 -22.592  0.00  0.00    +0.390 C 
ENDROOT
BRANCH   3   6
ATOM      4  F   UNL     1      33.120 -16.683 -21.038  0.00  0.00    -0.189 F 
ATOM      5  F   UNL     1      34.931 -15.522 -20.750  0.00  0.00    -0.189 F 
ATOM      6  C   UNL     1      34.080 -15.996 -21.705  0.00  0.00    +0.409 C 
BRANCH   6  10
ATOM      7  F   UNL     1      34.315 -13.775 -22.473  0.00  0.00    -0.165 F 
ATOM      8  F   UNL     1      33.029 -15.103 -23.634  0.00  0.00    -0.165 F 
ATOM      9  F   UNL     1      32.372 -14.382 -21.690  0.00  0.00    -0.165 F 
ATOM     10  C   UNL     1      33.450 -14.807 -22.387  0.00  0.00    +0.460 C 
ENDBRANCH   6  10
ENDBRANCH   3   6
BRANCH   3  13
ATOM     11  F   UNL     1      36.829 -18.249 -22.474  0.00  0.00    -0.189 F 
ATOM     12  F   UNL     1      35.744 -17.852 -20.636  0.00  0.00    -0.189 F 
ATOM     13  C   UNL     1      35.578 -18.131 -21.960  0.00  0.00    +0.409 C 
BRANCH  13  17
ATOM     14  F   UNL     1      33.587 -19.388 -21.678  0.00  0.00    -0.165 F 
ATOM     15  F   UNL     1      35.486 -20.399 -21.306  0.00  0.00    -0.165 F 
ATOM     16  F   UNL     1      34.889 -19.901 -23.343  0.00  0.00    -0.165 F 
ATOM     17  C   UNL     1      34.877 -19.463 -22.064  0.00  0.00    +0.460 C 
ENDBRANCH  13  17
ENDBRANCH   3  13
TORSDOF 4
ENDMDL
MODEL 6
REMARK VINA RESULT:      -7.2      2.126      4.005
REMARK  Name = 12675
REMARK  4 active torsions:
REMARK  status: ('A' for Active; 'I' for Inactive)
REMARK    1  A    between atoms: C_3  and  C_6
REMARK    2  A    between atoms: C_3  and  C_13
REMARK    3  A    between atoms: C_6  and  C_10
REMARK    4  A    between atoms: C_13  and  C_17
REMARK                            x       y       z     vdW  Elec       q    Type
REMARK                         _______ _______ _______ _____ _____    ______ ____
ROOT
ATOM      1  F   UNL     1      36.226 -18.443 -23.272  0.00  0.00    -0.192 F 
ATOM      2  F   UNL     1      34.170 -19.119 -23.503  0.00  0.00    -0.192 F 
ATOM      3  C   UNL     1      34.942 -18.168 -22.901  0.00  0.00    +0.390 C 
ENDROOT
BRANCH   3   6
ATOM      4  F   UNL     1      33.527 -16.286 -22.816  0.00  0.00    -0.189 F 
ATOM      5  F   UNL     1      35.624 -15.976 -23.280  0.00  0.00    -0.189 F 
ATOM      6  C   UNL     1      34.573 -16.818 -23.495  0.00  0.00    +0.409 C 
BRANCH   6  10
ATOM      7  F   UNL     1      35.390 -16.679 -25.707  0.00  0.00    -0.165 F 
ATOM      8  F   UNL     1      33.619 -17.911 -25.371  0.00  0.00    -0.165 F 
ATOM      9  F   UNL     1      33.470 -15.743 -25.269  0.00  0.00    -0.165 F 
ATOM     10  C   UNL     1      34.264 -16.796 -24.971  0.00  0.00    +0.460 C 
ENDBRANCH   6  10
ENDBRANCH   3   6
BRANCH   3  13
ATOM     11  F   UNL     1      35.381 -17.313 -20.751  0.00  0.00    -0.189 F 
ATOM     12  F   UNL     1      33.505 -18.356 -21.081  0.00  0.00    -0.189 F 
ATOM     13  C   UNL     1      34.831 -18.371 -21.400  0.00  0.00    +0.409 C 
BRANCH  13  17
ATOM     14  F   UNL     1      35.514 -20.608 -21.789  0.00  0.00    -0.165 F 
ATOM     15  F   UNL     1      34.681 -20.128 -19.829  0.00  0.00    -0.165 F 
ATOM     16  F   UNL     1      36.669 -19.421 -20.378  0.00  0.00    -0.165 F 
ATOM     17  C   UNL     1      35.421 -19.645 -20.848  0.00  0.00    +0.460 C 
ENDBRANCH  13  17
ENDBRANCH   3  13
TORSDOF 4
ENDMDL
MODEL 7
REMARK VINA RESULT:      -7.2      2.140      3.900
REMARK  Name = 12675
REMARK  4 active torsions:
REMARK  status: ('A' for Active; 'I' for Inactive)
REMARK    1  A    between atoms: C_3  and  C_6
REMARK    2  A    between atoms: C_3  and  C_13
REMARK    3  A    between atoms: C_6  and  C_10
REMARK    4  A    between atoms: C_13  and  C_17
REMARK                            x       y       z     vdW  Elec       q    Type
REMARK                         _______ _______ _______ _____ _____    ______ ____
ROOT
ATOM      1  F   UNL     1      34.192 -19.142 -23.508  0.00  0.00    -0.192 F 
ATOM      2  F   UNL     1      36.241 -18.441 -23.286  0.00  0.00    -0.192 F 
ATOM      3  C   UNL     1      34.954 -18.175 -22.917  0.00  0.00    +0.390 C 
ENDROOT
BRANCH   3   6
ATOM      4  F   UNL     1      35.382 -17.294 -20.775  0.00  0.00    -0.189 F 
ATOM      5  F   UNL     1      33.521 -18.363 -21.094  0.00  0.00    -0.189 F 
ATOM      6  C   UNL     1      34.847 -18.364 -21.413  0.00  0.00    +0.409 C 
BRANCH   6  10
ATOM      7  F   UNL     1      36.706 -19.410 -20.399  0.00  0.00    -0.165 F 
ATOM      8  F   UNL     1      34.724 -20.125 -19.831  0.00  0.00    -0.165 F 
ATOM      9  F   UNL     1      35.518 -20.581 -21.803  0.00  0.00    -0.165 F 
ATOM     10  C   UNL     1      35.452 -19.626 -20.850  0.00  0.00    +0.460 C 
ENDBRANCH   6  10
ENDBRANCH   3   6
BRANCH   3  13
ATOM     11  F   UNL     1      33.520 -16.308 -22.848  0.00  0.00    -0.189 F 
ATOM     12  F   UNL     1      35.613 -15.981 -23.322  0.00  0.00    -0.189 F 
ATOM     13  C   UNL     1      34.570 -16.837 -23.525  0.00  0.00    +0.409 C 
BRANCH  13  17
ATOM     14  F   UNL     1      33.614 -17.957 -25.383  0.00  0.00    -0.165 F 
ATOM     15  F   UNL     1      35.376 -16.718 -25.742  0.00  0.00    -0.165 F 
ATOM     16  F   UNL     1      33.452 -15.789 -25.306  0.00  0.00    -0.165 F 
ATOM     17  C   UNL     1      34.255 -16.833 -25.000  0.00  0.00    +0.460 C 
ENDBRANCH  13  17
ENDBRANCH   3  13
TORSDOF 4
ENDMDL
MODEL 8
REMARK VINA RESULT:      -7.2      9.980     11.376
REMARK  Name = 12675
REMARK  4 active torsions:
REMARK  status: ('A' for Active; 'I' for Inactive)
REMARK    1  A    between atoms: C_3  and  C_6
REMARK    2  A    between atoms: C_3  and  C_13
REMARK    3  A    between atoms: C_6  and  C_10
REMARK    4  A    between atoms: C_13  and  C_17
REMARK                            x       y       z     vdW  Elec       q    Type
REMARK                         _______ _______ _______ _____ _____    ______ ____
ROOT
ATOM      1  F   UNL     1      28.777 -24.969 -14.548  0.00  0.00    -0.192 F 
ATOM      2  F   UNL     1      30.306 -25.120 -16.089  0.00  0.00    -0.192 F 
ATOM      3  C   UNL     1      29.856 -24.322 -15.078  0.00  0.00    +0.390 C 
ENDROOT
BRANCH   3   6
ATOM      4  F   UNL     1      30.422 -23.734 -12.868  0.00  0.00    -0.189 F 
ATOM      5  F   UNL     1      31.260 -25.557 -13.693  0.00  0.00    -0.189 F 
ATOM      6  C   UNL     1      30.930 -24.271 -14.004  0.00  0.00    +0.409 C 
BRANCH   6  10
ATOM      7  F   UNL     1      32.621 -23.871 -15.606  0.00  0.00    -0.165 F 
ATOM      8  F   UNL     1      32.057 -22.207 -14.311  0.00  0.00    -0.165 F 
ATOM      9  F   UNL     1      33.191 -23.876 -13.501  0.00  0.00    -0.165 F 
ATOM     10  C   UNL     1      32.204 -23.546 -14.363  0.00  0.00    +0.460 C 
ENDBRANCH   6  10
ENDBRANCH   3   6
BRANCH   3  13
ATOM     11  F   UNL     1      29.307 -22.054 -14.753  0.00  0.00    -0.189 F 
ATOM     12  F   UNL     1      30.316 -22.616 -16.591  0.00  0.00    -0.189 F 
ATOM     13  C   UNL     1      29.368 -23.024 -15.700  0.00  0.00    +0.409 C 
BRANCH  13  17
ATOM     14  F   UNL     1      27.005 -22.858 -15.604  0.00  0.00    -0.165 F 
ATOM     15  F   UNL     1      27.865 -24.282 -17.018  0.00  0.00    -0.165 F 
ATOM     16  F   UNL     1      28.005 -22.139 -17.397  0.00  0.00    -0.165 F 
ATOM     17  C   UNL     1      28.049 -23.082 -16.428  0.00  0.00    +0.460 C 
ENDBRANCH  13  17
ENDBRANCH   3  13
TORSDOF 4
ENDMDL
MODEL 9
REMARK VINA RESULT:      -7.2     10.051     11.500
REMARK  Name = 12675
REMARK  4 active torsions:
REMARK  status: ('A' for Active; 'I' for Inactive)
REMARK    1  A    between atoms: C_3  and  C_6
REMARK    2  A    between atoms: C_3  and  C_13
REMARK    3  A    between atoms: C_6  and  C_10
REMARK    4  A    between atoms: C_13  and  C_17
REMARK                            x       y       z     vdW  Elec       q    Type
REMARK                         _______ _______ _______ _____ _____    ______ ____
ROOT
ATOM      1  F   UNL     1      29.672 -22.331 -14.429  0.00  0.00    -0.192 F 
ATOM      2  F   UNL     1      30.239 -24.053 -13.226  0.00  0.00    -0.192 F 
ATOM      3  C   UNL     1      30.255 -23.563 -14.499  0.00  0.00    +0.390 C 
ENDROOT
BRANCH   3   6
ATOM      4  F   UNL     1      31.822 -23.460 -16.256  0.00  0.00    -0.189 F 
ATOM      5  F   UNL     1      32.043 -22.077 -14.597  0.00  0.00    -0.189 F 
ATOM      6  C   UNL     1      31.704 -23.361 -14.908  0.00  0.00    +0.409 C 
BRANCH   6  10
ATOM      7  F   UNL     1      33.176 -23.749 -13.101  0.00  0.00    -0.165 F 
ATOM      8  F   UNL     1      32.208 -25.490 -13.993  0.00  0.00    -0.165 F 
ATOM      9  F   UNL     1      33.780 -24.449 -15.076  0.00  0.00    -0.165 F 
ATOM     10  C   UNL     1      32.718 -24.271 -14.259  0.00  0.00    +0.460 C 
ENDBRANCH   6  10
ENDBRANCH   3   6
BRANCH   3  13
ATOM     11  F   UNL     1      30.120 -25.387 -15.984  0.00  0.00    -0.189 F 
ATOM     12  F   UNL     1      28.557 -25.154 -14.496  0.00  0.00    -0.189 F 
ATOM     13  C   UNL     1      29.364 -24.458 -15.346  0.00  0.00    +0.409 C 
BRANCH  13  17
ATOM     14  F   UNL     1      29.159 -22.854 -17.080  0.00  0.00    -0.165 F 
ATOM     15  F   UNL     1      27.449 -23.138 -15.754  0.00  0.00    -0.165 F 
ATOM     16  F   UNL     1      27.965 -24.666 -17.221  0.00  0.00    -0.165 F 
ATOM     17  C   UNL     1      28.481 -23.766 -16.354  0.00  0.00    +0.460 C 
ENDBRANCH  13  17
ENDBRANCH   3  13
TORSDOF 4
ENDMDL
