MODEL 1
REMARK VINA RESULT:     -10.2      0.000      0.000
REMARK  Name = 961704
REMARK  6 active torsions:
REMARK  status: ('A' for Active; 'I' for Inactive)
REMARK    1  A    between atoms: N_1  and  C_15
REMARK    2  A    between atoms: C_15  and  C_16
REMARK    3  A    between atoms: C_16  and  O_17
REMARK    4  A    between atoms: C_16  and  C_19
REMARK    5  A    between atoms: C_19  and  N_20
REMARK    6  A    between atoms: N_20  and  C_23
REMARK                            x       y       z     vdW  Elec       q    Type
REMARK                         _______ _______ _______ _____ _____    ______ ____
ROOT
ATOM      1  N   UNL     1      32.998 -14.831 -22.088  0.00  0.00    -0.329 N 
ATOM      2  C   UNL     1      32.486 -13.674 -21.578  0.00  0.00    +0.033 A 
ATOM      3  C   UNL     1      32.329 -12.771 -22.609  0.00  0.00    -0.009 A 
ATOM      4  C   UNL     1      32.131 -13.453 -20.151  0.00  0.00    +0.043 C 
ATOM      5  C   UNL     1      31.802 -11.394 -22.389  0.00  0.00    +0.028 C 
ATOM      6  C   UNL     1      31.919 -11.950 -19.895  0.00  0.00    +0.007 C 
ATOM      7  C   UNL     1      32.775 -13.406 -23.802  0.00  0.00    +0.013 A 
ATOM      8  C   UNL     1      31.107 -11.276 -21.018  0.00  0.00    +0.005 C 
ATOM      9  C   UNL     1      33.188 -14.696 -23.447  0.00  0.00    +0.059 A 
ATOM     10  C   UNL     1      32.871 -13.014 -25.151  0.00  0.00    -0.003 C 
ATOM     11  C   UNL     1      33.690 -15.610 -24.381  0.00  0.00    +0.017 C 
ATOM     12  C   UNL     1      33.372 -13.918 -26.095  0.00  0.00    -0.022 C 
ATOM     13  C   UNL     1      33.774 -15.196 -25.713  0.00  0.00    -0.003 C 
ATOM     14  C   UNL     1      33.477 -13.506 -27.526  0.00  0.00    +0.031 C 
ENDROOT
BRANCH   1  15
ATOM     15  C   UNL     1      33.294 -16.025 -21.324  0.00  0.00    +0.133 C 
BRANCH  15  16
ATOM     16  C   UNL     1      34.797 -16.197 -21.073  0.00  0.00    +0.112 C 
BRANCH  16  17
ATOM     17  O   UNL     1      35.065 -15.861 -19.710  0.00  0.00    -0.385 OA
ATOM     18  H   UNL     1      35.775 -16.430 -19.370  0.00  0.00    +0.210 HD
ENDBRANCH  16  17
BRANCH  16  19
ATOM     19  C   UNL     1      35.270 -17.636 -21.306  0.00  0.00    -0.050 C 
BRANCH  19  20
ATOM     20  N   UNL     1      34.184 -18.508 -21.733  0.00  0.00    +0.387 N 
ATOM     21  H   UNL     1      33.304 -18.153 -21.359  0.00  0.00    -0.084 HD
ATOM     22  H   UNL     1      34.158 -18.521 -22.752  0.00  0.00    -0.084 HD
BRANCH  20  23
ATOM     23  C   UNL     1      34.390 -19.873 -21.254  0.00  0.00    -0.062 C 
ATOM     24  C   UNL     1      35.766 -19.990 -20.590  0.00  0.00    -0.021 C 
ATOM     25  C   UNL     1      33.271 -20.258 -20.281  0.00  0.00    -0.021 C 
ATOM     26  C   UNL     1      35.987 -21.386 -20.009  0.00  0.00    -0.002 C 
ATOM     27  C   UNL     1      33.495 -21.653 -19.699  0.00  0.00    -0.002 C 
ATOM     28  C   UNL     1      34.869 -21.778 -19.047  0.00  0.00    -0.000 C 
ENDBRANCH  20  23
ENDBRANCH  19  20
ENDBRANCH  16  19
ENDBRANCH  15  16
ENDBRANCH   1  15
TORSDOF 6
ENDMDL
MODEL 2
REMARK VINA RESULT:      -9.9      2.541      5.411
REMARK  Name = 961704
REMARK  6 active torsions:
REMARK  status: ('A' for Active; 'I' for Inactive)
REMARK    1  A    between atoms: N_1  and  C_15
REMARK    2  A    between atoms: C_15  and  C_16
REMARK    3  A    between atoms: C_16  and  O_17
REMARK    4  A    between atoms: C_16  and  C_19
REMARK    5  A    between atoms: C_19  and  N_20
REMARK    6  A    between atoms: N_20  and  C_23
REMARK                            x       y       z     vdW  Elec       q    Type
REMARK                         _______ _______ _______ _____ _____    ______ ____
ROOT
ATOM      1  N   UNL     1      32.657 -11.746 -22.982  0.00  0.00    -0.329 N 
ATOM      2  C   UNL     1      33.485 -11.362 -23.997  0.00  0.00    +0.033 A 
ATOM      3  C   UNL     1      33.814 -10.035 -23.817  0.00  0.00    -0.009 A 
ATOM      4  C   UNL     1      33.968 -12.251 -25.086  0.00  0.00    +0.043 C 
ATOM      5  C   UNL     1      34.697  -9.297 -24.765  0.00  0.00    +0.028 C 
ATOM      6  C   UNL     1      34.582 -11.402 -26.214  0.00  0.00    +0.007 C 
ATOM      7  C   UNL     1      33.147  -9.587 -22.642  0.00  0.00    +0.013 A 
ATOM      8  C   UNL     1      35.477 -10.271 -25.671  0.00  0.00    +0.005 C 
ATOM      9  C   UNL     1      32.431 -10.679 -22.139  0.00  0.00    +0.059 A 
ATOM     10  C   UNL     1      33.080  -8.359 -21.954  0.00  0.00    -0.003 C 
ATOM     11  C   UNL     1      31.652 -10.599 -20.978  0.00  0.00    +0.017 C 
ATOM     12  C   UNL     1      32.304  -8.266 -20.793  0.00  0.00    -0.022 C 
ATOM     13  C   UNL     1      31.603  -9.369 -20.315  0.00  0.00    -0.003 C 
ATOM     14  C   UNL     1      32.229  -6.967 -20.061  0.00  0.00    +0.031 C 
ENDROOT
BRANCH   1  15
ATOM     15  C   UNL     1      32.102 -13.072 -22.809  0.00  0.00    +0.133 C 
BRANCH  15  16
ATOM     16  C   UNL     1      32.874 -13.894 -21.770  0.00  0.00    +0.112 C 
BRANCH  16  17
ATOM     17  O   UNL     1      32.108 -15.061 -21.463  0.00  0.00    -0.385 OA
ATOM     18  H   UNL     1      32.492 -15.507 -20.691  0.00  0.00    +0.210 HD
ENDBRANCH  16  17
BRANCH  16  19
ATOM     19  C   UNL     1      34.244 -14.350 -22.284  0.00  0.00    -0.050 C 
BRANCH  19  20
ATOM     20  N   UNL     1      34.638 -15.637 -21.727  0.00  0.00    +0.387 N 
ATOM     21  H   UNL     1      35.412 -15.496 -21.077  0.00  0.00    -0.084 HD
ATOM     22  H   UNL     1      33.837 -16.043 -21.244  0.00  0.00    -0.084 HD
BRANCH  20  23
ATOM     23  C   UNL     1      35.061 -16.556 -22.781  0.00  0.00    -0.062 C 
ATOM     24  C   UNL     1      34.712 -17.996 -22.388  0.00  0.00    -0.021 C 
ATOM     25  C   UNL     1      34.399 -16.168 -24.107  0.00  0.00    -0.021 C 
ATOM     26  C   UNL     1      35.072 -18.979 -23.501  0.00  0.00    -0.002 C 
ATOM     27  C   UNL     1      34.758 -17.154 -25.218  0.00  0.00    -0.002 C 
ATOM     28  C   UNL     1      34.423 -18.590 -24.827  0.00  0.00    -0.000 C 
ENDBRANCH  20  23
ENDBRANCH  19  20
ENDBRANCH  16  19
ENDBRANCH  15  16
ENDBRANCH   1  15
TORSDOF 6
ENDMDL
MODEL 3
REMARK VINA RESULT:      -9.9      0.449      3.592
REMARK  Name = 961704
REMARK  6 active torsions:
REMARK  status: ('A' for Active; 'I' for Inactive)
REMARK    1  A    between atoms: N_1  and  C_15
REMARK    2  A    between atoms: C_15  and  C_16
REMARK    3  A    between atoms: C_16  and  O_17
REMARK    4  A    between atoms: C_16  and  C_19
REMARK    5  A    between atoms: C_19  and  N_20
REMARK    6  A    between atoms: N_20  and  C_23
REMARK                            x       y       z     vdW  Elec       q    Type
REMARK                         _______ _______ _______ _____ _____    ______ ____
ROOT
ATOM      1  N   UNL     1      33.120 -15.031 -22.368  0.00  0.00    -0.329 N 
ATOM      2  C   UNL     1      33.261 -14.880 -23.717  0.00  0.00    +0.033 A 
ATOM      3  C   UNL     1      32.914 -13.587 -24.052  0.00  0.00    -0.009 A 
ATOM      4  C   UNL     1      33.742 -15.933 -24.649  0.00  0.00    +0.043 C 
ATOM      5  C   UNL     1      32.941 -13.094 -25.458  0.00  0.00    +0.028 C 
ATOM      6  C   UNL     1      33.440 -15.519 -26.100  0.00  0.00    +0.007 C 
ATOM      7  C   UNL     1      32.536 -12.923 -22.851  0.00  0.00    +0.013 A 
ATOM      8  C   UNL     1      33.763 -14.036 -26.362  0.00  0.00    +0.005 C 
ATOM      9  C   UNL     1      32.675 -13.850 -21.812  0.00  0.00    +0.059 A 
ATOM     10  C   UNL     1      32.086 -11.624 -22.542  0.00  0.00    -0.003 C 
ATOM     11  C   UNL     1      32.389 -13.536 -20.478  0.00  0.00    +0.017 C 
ATOM     12  C   UNL     1      31.795 -11.298 -21.213  0.00  0.00    -0.022 C 
ATOM     13  C   UNL     1      31.945 -12.240 -20.199  0.00  0.00    -0.003 C 
ATOM     14  C   UNL     1      31.318  -9.923 -20.880  0.00  0.00    +0.031 C 
ENDROOT
BRANCH   1  15
ATOM     15  C   UNL     1      33.400 -16.244 -21.627  0.00  0.00    +0.133 C 
BRANCH  15  16
ATOM     16  C   UNL     1      34.883 -16.368 -21.256  0.00  0.00    +0.112 C 
BRANCH  16  17
ATOM     17  O   UNL     1      35.045 -15.928 -19.906  0.00  0.00    -0.385 OA
ATOM     18  H   UNL     1      35.650 -16.527 -19.440  0.00  0.00    +0.210 HD
ENDBRANCH  16  17
BRANCH  16  19
ATOM     19  C   UNL     1      35.390 -17.812 -21.345  0.00  0.00    -0.050 C 
BRANCH  19  20
ATOM     20  N   UNL     1      34.358 -18.729 -21.810  0.00  0.00    +0.387 N 
ATOM     21  H   UNL     1      33.444 -18.366 -21.540  0.00  0.00    -0.084 HD
ATOM     22  H   UNL     1      34.425 -18.807 -22.824  0.00  0.00    -0.084 HD
BRANCH  20  23
ATOM     23  C   UNL     1      34.536 -20.056 -21.226  0.00  0.00    -0.062 C 
ATOM     24  C   UNL     1      35.881 -20.127 -20.493  0.00  0.00    -0.021 C 
ATOM     25  C   UNL     1      33.373 -20.371 -20.280  0.00  0.00    -0.021 C 
ATOM     26  C   UNL     1      36.069 -21.478 -19.805  0.00  0.00    -0.002 C 
ATOM     27  C   UNL     1      33.565 -21.721 -19.591  0.00  0.00    -0.002 C 
ATOM     28  C   UNL     1      34.906 -21.800 -18.870  0.00  0.00    -0.000 C 
ENDBRANCH  20  23
ENDBRANCH  19  20
ENDBRANCH  16  19
ENDBRANCH  15  16
ENDBRANCH   1  15
TORSDOF 6
ENDMDL
MODEL 4
REMARK VINA RESULT:      -9.8      2.366      7.086
REMARK  Name = 961704
REMARK  6 active torsions:
REMARK  status: ('A' for Active; 'I' for Inactive)
REMARK    1  A    between atoms: N_1  and  C_15
REMARK    2  A    between atoms: C_15  and  C_16
REMARK    3  A    between atoms: C_16  and  O_17
REMARK    4  A    between atoms: C_16  and  C_19
REMARK    5  A    between atoms: C_19  and  N_20
REMARK    6  A    between atoms: N_20  and  C_23
REMARK                            x       y       z     vdW  Elec       q    Type
REMARK                         _______ _______ _______ _____ _____    ______ ____
ROOT
ATOM      1  N   UNL     1      34.026 -14.911 -23.102  0.00  0.00    -0.329 N 
ATOM      2  C   UNL     1      33.750 -14.266 -24.273  0.00  0.00    +0.033 A 
ATOM      3  C   UNL     1      33.810 -15.183 -25.302  0.00  0.00    -0.009 A 
ATOM      4  C   UNL     1      33.410 -12.824 -24.395  0.00  0.00    +0.043 C 
ATOM      5  C   UNL     1      33.574 -14.801 -26.724  0.00  0.00    +0.028 C 
ATOM      6  C   UNL     1      33.508 -12.391 -25.869  0.00  0.00    +0.007 C 
ATOM      7  C   UNL     1      34.147 -16.442 -24.732  0.00  0.00    +0.013 A 
ATOM      8  C   UNL     1      32.882 -13.426 -26.823  0.00  0.00    +0.005 C 
ATOM      9  C   UNL     1      34.275 -16.244 -23.352  0.00  0.00    +0.059 A 
ATOM     10  C   UNL     1      34.358 -17.735 -25.250  0.00  0.00    -0.003 C 
ATOM     11  C   UNL     1      34.601 -17.279 -22.468  0.00  0.00    +0.017 C 
ATOM     12  C   UNL     1      34.686 -18.779 -24.378  0.00  0.00    -0.022 C 
ATOM     13  C   UNL     1      34.805 -18.552 -23.009  0.00  0.00    -0.003 C 
ATOM     14  C   UNL     1      34.911 -20.151 -24.922  0.00  0.00    +0.031 C 
ENDROOT
BRANCH   1  15
ATOM     15  C   UNL     1      34.048 -14.294 -21.792  0.00  0.00    +0.133 C 
BRANCH  15  16
ATOM     16  C   UNL     1      32.667 -14.295 -21.126  0.00  0.00    +0.112 C 
BRANCH  16  17
ATOM     17  O   UNL     1      32.718 -15.160 -19.990  0.00  0.00    -0.385 OA
ATOM     18  H   UNL     1      32.792 -16.081 -20.287  0.00  0.00    +0.210 HD
ENDBRANCH  16  17
BRANCH  16  19
ATOM     19  C   UNL     1      32.249 -12.902 -20.640  0.00  0.00    -0.050 C 
BRANCH  19  20
ATOM     20  N   UNL     1      31.343 -12.244 -21.572  0.00  0.00    +0.387 N 
ATOM     21  H   UNL     1      31.688 -12.379 -22.522  0.00  0.00    -0.084 HD
ATOM     22  H   UNL     1      30.415 -12.654 -21.467  0.00  0.00    -0.084 HD
BRANCH  20  23
ATOM     23  C   UNL     1      31.255 -10.813 -21.293  0.00  0.00    -0.062 C 
ATOM     24  C   UNL     1      31.735 -10.529 -19.865  0.00  0.00    -0.021 C 
ATOM     25  C   UNL     1      32.081 -10.030 -22.320  0.00  0.00    -0.021 C 
ATOM     26  C   UNL     1      31.729  -9.032 -19.563  0.00  0.00    -0.002 C 
ATOM     27  C   UNL     1      32.075  -8.533 -22.014  0.00  0.00    -0.002 C 
ATOM     28  C   UNL     1      32.541  -8.247 -20.590  0.00  0.00    -0.000 C 
ENDBRANCH  20  23
ENDBRANCH  19  20
ENDBRANCH  16  19
ENDBRANCH  15  16
ENDBRANCH   1  15
TORSDOF 6
ENDMDL
MODEL 5
REMARK VINA RESULT:      -9.7      5.360     11.129
REMARK  Name = 961704
REMARK  6 active torsions:
REMARK  status: ('A' for Active; 'I' for Inactive)
REMARK    1  A    between atoms: N_1  and  C_15
REMARK    2  A    between atoms: C_15  and  C_16
REMARK    3  A    between atoms: C_16  and  O_17
REMARK    4  A    between atoms: C_16  and  C_19
REMARK    5  A    between atoms: C_19  and  N_20
REMARK    6  A    between atoms: N_20  and  C_23
REMARK                            x       y       z     vdW  Elec       q    Type
REMARK                         _______ _______ _______ _____ _____    ______ ____
ROOT
ATOM      1  N   UNL     1      35.705 -23.328 -15.343  0.00  0.00    -0.329 N 
ATOM      2  C   UNL     1      36.050 -23.543 -14.040  0.00  0.00    +0.033 A 
ATOM      3  C   UNL     1      34.899 -23.757 -13.310  0.00  0.00    -0.009 A 
ATOM      4  C   UNL     1      37.442 -23.571 -13.519  0.00  0.00    +0.043 C 
ATOM      5  C   UNL     1      34.922 -24.008 -11.841  0.00  0.00    +0.028 C 
ATOM      6  C   UNL     1      37.423 -23.490 -11.982  0.00  0.00    +0.007 C 
ATOM      7  C   UNL     1      33.800 -23.659 -14.210  0.00  0.00    +0.013 A 
ATOM      8  C   UNL     1      36.337 -24.392 -11.364  0.00  0.00    +0.005 C 
ATOM      9  C   UNL     1      34.334 -23.391 -15.476  0.00  0.00    +0.059 A 
ATOM     10  C   UNL     1      32.403 -23.771 -14.076  0.00  0.00    -0.003 C 
ATOM     11  C   UNL     1      33.533 -23.233 -16.613  0.00  0.00    +0.017 C 
ATOM     12  C   UNL     1      31.590 -23.613 -15.204  0.00  0.00    -0.022 C 
ATOM     13  C   UNL     1      32.149 -23.349 -16.452  0.00  0.00    -0.003 C 
ATOM     14  C   UNL     1      30.108 -23.729 -15.067  0.00  0.00    +0.031 C 
ENDROOT
BRANCH   1  15
ATOM     15  C   UNL     1      36.634 -23.078 -16.425  0.00  0.00    +0.133 C 
BRANCH  15  16
ATOM     16  C   UNL     1      36.536 -21.642 -16.954  0.00  0.00    +0.112 C 
BRANCH  16  17
ATOM     17  O   UNL     1      37.665 -20.910 -16.472  0.00  0.00    -0.385 OA
ATOM     18  H   UNL     1      37.766 -21.061 -15.519  0.00  0.00    +0.210 HD
ENDBRANCH  16  17
BRANCH  16  19
ATOM     19  C   UNL     1      36.551 -21.578 -18.485  0.00  0.00    -0.050 C 
BRANCH  19  20
ATOM     20  N   UNL     1      35.377 -22.211 -19.072  0.00  0.00    +0.387 N 
ATOM     21  H   UNL     1      35.648 -23.108 -19.475  0.00  0.00    -0.084 HD
ATOM     22  H   UNL     1      34.679 -22.345 -18.341  0.00  0.00    -0.084 HD
BRANCH  20  23
ATOM     23  C   UNL     1      34.800 -21.372 -20.120  0.00  0.00    -0.062 C 
ATOM     24  C   UNL     1      33.402 -20.903 -19.701  0.00  0.00    -0.021 C 
ATOM     25  C   UNL     1      35.722 -20.182 -20.402  0.00  0.00    -0.021 C 
ATOM     26  C   UNL     1      32.797 -19.960 -20.740  0.00  0.00    -0.002 C 
ATOM     27  C   UNL     1      35.114 -19.240 -21.439  0.00  0.00    -0.002 C 
ATOM     28  C   UNL     1      33.718 -18.778 -21.032  0.00  0.00    -0.000 C 
ENDBRANCH  20  23
ENDBRANCH  19  20
ENDBRANCH  16  19
ENDBRANCH  15  16
ENDBRANCH   1  15
TORSDOF 6
ENDMDL
MODEL 6
REMARK VINA RESULT:      -9.7      2.961      8.052
REMARK  Name = 961704
REMARK  6 active torsions:
REMARK  status: ('A' for Active; 'I' for Inactive)
REMARK    1  A    between atoms: N_1  and  C_15
REMARK    2  A    between atoms: C_15  and  C_16
REMARK    3  A    between atoms: C_16  and  O_17
REMARK    4  A    between atoms: C_16  and  C_19
REMARK    5  A    between atoms: C_19  and  N_20
REMARK    6  A    between atoms: N_20  and  C_23
REMARK                            x       y       z     vdW  Elec       q    Type
REMARK                         _______ _______ _______ _____ _____    ______ ____
ROOT
ATOM      1  N   UNL     1      32.722 -13.905 -23.286  0.00  0.00    -0.329 N 
ATOM      2  C   UNL     1      33.507 -14.865 -22.717  0.00  0.00    +0.033 A 
ATOM      3  C   UNL     1      33.542 -14.652 -21.354  0.00  0.00    -0.009 A 
ATOM      4  C   UNL     1      34.176 -15.969 -23.454  0.00  0.00    +0.043 C 
ATOM      5  C   UNL     1      34.328 -15.520 -20.432  0.00  0.00    +0.028 C 
ATOM      6  C   UNL     1      35.233 -16.630 -22.551  0.00  0.00    +0.007 C 
ATOM      7  C   UNL     1      32.748 -13.502 -21.083  0.00  0.00    +0.013 A 
ATOM      8  C   UNL     1      34.720 -16.846 -21.114  0.00  0.00    +0.005 C 
ATOM      9  C   UNL     1      32.246 -13.055 -22.311  0.00  0.00    +0.059 A 
ATOM     10  C   UNL     1      32.405 -12.794 -19.915  0.00  0.00    -0.003 C 
ATOM     11  C   UNL     1      31.415 -11.934 -22.422  0.00  0.00    +0.017 C 
ATOM     12  C   UNL     1      31.577 -11.670 -20.012  0.00  0.00    -0.022 C 
ATOM     13  C   UNL     1      31.091 -11.249 -21.247  0.00  0.00    -0.003 C 
ATOM     14  C   UNL     1      31.212 -10.915 -18.777  0.00  0.00    +0.031 C 
ENDROOT
BRANCH   1  15
ATOM     15  C   UNL     1      32.427 -13.794 -24.700  0.00  0.00    +0.133 C 
BRANCH  15  16
ATOM     16  C   UNL     1      33.581 -13.161 -25.487  0.00  0.00    +0.112 C 
BRANCH  16  17
ATOM     17  O   UNL     1      33.441 -13.528 -26.861  0.00  0.00    -0.385 OA
ATOM     18  H   UNL     1      33.266 -14.481 -26.925  0.00  0.00    +0.210 HD
ENDBRANCH  16  17
BRANCH  16  19
ATOM     19  C   UNL     1      33.576 -11.631 -25.405  0.00  0.00    -0.050 C 
BRANCH  19  20
ATOM     20  N   UNL     1      34.640 -11.123 -24.548  0.00  0.00    +0.387 N 
ATOM     21  H   UNL     1      34.904 -11.848 -23.881  0.00  0.00    -0.084 HD
ATOM     22  H   UNL     1      35.436 -10.870 -25.133  0.00  0.00    -0.084 HD
BRANCH  20  23
ATOM     23  C   UNL     1      34.202  -9.937 -23.817  0.00  0.00    -0.062 C 
ATOM     24  C   UNL     1      35.101  -8.747 -24.167  0.00  0.00    -0.021 C 
ATOM     25  C   UNL     1      32.735  -9.636 -24.142  0.00  0.00    -0.021 C 
ATOM     26  C   UNL     1      34.627  -7.468 -23.478  0.00  0.00    -0.002 C 
ATOM     27  C   UNL     1      32.263  -8.357 -23.453  0.00  0.00    -0.002 C 
ATOM     28  C   UNL     1      33.162  -7.171 -23.790  0.00  0.00    -0.000 C 
ENDBRANCH  20  23
ENDBRANCH  19  20
ENDBRANCH  16  19
ENDBRANCH  15  16
ENDBRANCH   1  15
TORSDOF 6
ENDMDL
MODEL 7
REMARK VINA RESULT:      -9.4      2.523      8.252
REMARK  Name = 961704
REMARK  6 active torsions:
REMARK  status: ('A' for Active; 'I' for Inactive)
REMARK    1  A    between atoms: N_1  and  C_15
REMARK    2  A    between atoms: C_15  and  C_16
REMARK    3  A    between atoms: C_16  and  O_17
REMARK    4  A    between atoms: C_16  and  C_19
REMARK    5  A    between atoms: C_19  and  N_20
REMARK    6  A    between atoms: N_20  and  C_23
REMARK                            x       y       z     vdW  Elec       q    Type
REMARK                         _______ _______ _______ _____ _____    ______ ____
ROOT
ATOM      1  N   UNL     1      33.637 -13.760 -22.928  0.00  0.00    -0.329 N 
ATOM      2  C   UNL     1      33.446 -14.043 -24.249  0.00  0.00    +0.033 A 
ATOM      3  C   UNL     1      33.779 -15.364 -24.468  0.00  0.00    -0.009 A 
ATOM      4  C   UNL     1      32.932 -13.084 -25.262  0.00  0.00    +0.043 C 
ATOM      5  C   UNL     1      33.699 -15.993 -25.817  0.00  0.00    +0.028 C 
ATOM      6  C   UNL     1      33.180 -13.641 -26.676  0.00  0.00    +0.007 C 
ATOM      7  C   UNL     1      34.201 -15.908 -23.222  0.00  0.00    +0.013 A 
ATOM      8  C   UNL     1      32.846 -15.141 -26.778  0.00  0.00    +0.005 C 
ATOM      9  C   UNL     1      34.101 -14.883 -22.275  0.00  0.00    +0.059 A 
ATOM     10  C   UNL     1      34.660 -17.172 -22.803  0.00  0.00    -0.003 C 
ATOM     11  C   UNL     1      34.436 -15.065 -20.928  0.00  0.00    +0.017 C 
ATOM     12  C   UNL     1      35.000 -17.368 -21.460  0.00  0.00    -0.022 C 
ATOM     13  C   UNL     1      34.889 -16.329 -20.539  0.00  0.00    -0.003 C 
ATOM     14  C   UNL     1      35.488 -18.705 -21.011  0.00  0.00    +0.031 C 
ENDROOT
BRANCH   1  15
ATOM     15  C   UNL     1      33.386 -12.479 -22.300  0.00  0.00    +0.133 C 
BRANCH  15  16
ATOM     16  C   UNL     1      31.948 -12.358 -21.782  0.00  0.00    +0.112 C 
BRANCH  16  17
ATOM     17  O   UNL     1      31.939 -12.716 -20.398  0.00  0.00    -0.385 OA
ATOM     18  H   UNL     1      32.486 -13.506 -20.264  0.00  0.00    +0.210 HD
ENDBRANCH  16  17
BRANCH  16  19
ATOM     19  C   UNL     1      31.398 -10.933 -21.905  0.00  0.00    -0.050 C 
BRANCH  19  20
ATOM     20  N   UNL     1      32.109 -10.155 -22.910  0.00  0.00    +0.387 N 
ATOM     21  H   UNL     1      32.939 -10.669 -23.204  0.00  0.00    -0.084 HD
ATOM     22  H   UNL     1      31.486 -10.002 -23.703  0.00  0.00    -0.084 HD
BRANCH  20  23
ATOM     23  C   UNL     1      32.514  -8.856 -22.378  0.00  0.00    -0.062 C 
ATOM     24  C   UNL     1      31.760  -7.737 -23.104  0.00  0.00    -0.021 C 
ATOM     25  C   UNL     1      32.256  -8.809 -20.868  0.00  0.00    -0.021 C 
ATOM     26  C   UNL     1      32.102  -6.367 -22.521  0.00  0.00    -0.002 C 
ATOM     27  C   UNL     1      32.597  -7.437 -20.288  0.00  0.00    -0.002 C 
ATOM     28  C   UNL     1      31.857  -6.318 -21.015  0.00  0.00    -0.000 C 
ENDBRANCH  20  23
ENDBRANCH  19  20
ENDBRANCH  16  19
ENDBRANCH  15  16
ENDBRANCH   1  15
TORSDOF 6
ENDMDL
MODEL 8
REMARK VINA RESULT:      -9.3      2.906      4.756
REMARK  Name = 961704
REMARK  6 active torsions:
REMARK  status: ('A' for Active; 'I' for Inactive)
REMARK    1  A    between atoms: N_1  and  C_15
REMARK    2  A    between atoms: C_15  and  C_16
REMARK    3  A    between atoms: C_16  and  O_17
REMARK    4  A    between atoms: C_16  and  C_19
REMARK    5  A    between atoms: C_19  and  N_20
REMARK    6  A    between atoms: N_20  and  C_23
REMARK                            x       y       z     vdW  Elec       q    Type
REMARK                         _______ _______ _______ _____ _____    ______ ____
ROOT
ATOM      1  N   UNL     1      32.337 -10.494 -22.422  0.00  0.00    -0.329 N 
ATOM      2  C   UNL     1      32.397  -9.188 -22.029  0.00  0.00    +0.033 A 
ATOM      3  C   UNL     1      33.272  -8.519 -22.859  0.00  0.00    -0.009 A 
ATOM      4  C   UNL     1      31.616  -8.597 -20.911  0.00  0.00    +0.043 C 
ATOM      5  C   UNL     1      33.579  -7.070 -22.692  0.00  0.00    +0.028 C 
ATOM      6  C   UNL     1      32.194  -7.217 -20.546  0.00  0.00    +0.007 C 
ATOM      7  C   UNL     1      33.775  -9.464 -23.797  0.00  0.00    +0.013 A 
ATOM      8  C   UNL     1      32.532  -6.379 -21.794  0.00  0.00    +0.005 C 
ATOM      9  C   UNL     1      33.173 -10.692 -23.501  0.00  0.00    +0.059 A 
ATOM     10  C   UNL     1      34.686  -9.399 -24.870  0.00  0.00    -0.003 C 
ATOM     11  C   UNL     1      33.438 -11.857 -24.231  0.00  0.00    +0.017 C 
ATOM     12  C   UNL     1      34.961 -10.557 -25.606  0.00  0.00    -0.022 C 
ATOM     13  C   UNL     1      34.345 -11.765 -25.290  0.00  0.00    -0.003 C 
ATOM     14  C   UNL     1      35.926 -10.494 -26.744  0.00  0.00    +0.031 C 
ENDROOT
BRANCH   1  15
ATOM     15  C   UNL     1      31.518 -11.517 -21.807  0.00  0.00    +0.133 C 
BRANCH  15  16
ATOM     16  C   UNL     1      32.195 -12.144 -20.582  0.00  0.00    +0.112 C 
BRANCH  16  17
ATOM     17  O   UNL     1      31.484 -11.727 -19.415  0.00  0.00    -0.385 OA
ATOM     18  H   UNL     1      32.090 -11.262 -18.816  0.00  0.00    +0.210 HD
ENDBRANCH  16  17
BRANCH  16  19
ATOM     19  C   UNL     1      32.178 -13.677 -20.623  0.00  0.00    -0.050 C 
BRANCH  19  20
ATOM     20  N   UNL     1      32.372 -14.192 -21.971  0.00  0.00    +0.387 N 
ATOM     21  H   UNL     1      31.609 -14.830 -22.197  0.00  0.00    -0.084 HD
ATOM     22  H   UNL     1      32.385 -13.407 -22.621  0.00  0.00    -0.084 HD
BRANCH  20  23
ATOM     23  C   UNL     1      33.641 -14.908 -22.080  0.00  0.00    -0.062 C 
ATOM     24  C   UNL     1      33.705 -16.018 -21.024  0.00  0.00    -0.021 C 
ATOM     25  C   UNL     1      33.799 -15.478 -23.493  0.00  0.00    -0.021 C 
ATOM     26  C   UNL     1      34.987 -16.838 -21.156  0.00  0.00    -0.002 C 
ATOM     27  C   UNL     1      35.080 -16.300 -23.622  0.00  0.00    -0.002 C 
ATOM     28  C   UNL     1      35.154 -17.399 -22.566  0.00  0.00    -0.000 C 
ENDBRANCH  20  23
ENDBRANCH  19  20
ENDBRANCH  16  19
ENDBRANCH  15  16
ENDBRANCH   1  15
TORSDOF 6
ENDMDL
MODEL 9
REMARK VINA RESULT:      -9.3      2.991      7.577
REMARK  Name = 961704
REMARK  6 active torsions:
REMARK  status: ('A' for Active; 'I' for Inactive)
REMARK    1  A    between atoms: N_1  and  C_15
REMARK    2  A    between atoms: C_15  and  C_16
REMARK    3  A    between atoms: C_16  and  O_17
REMARK    4  A    between atoms: C_16  and  C_19
REMARK    5  A    between atoms: C_19  and  N_20
REMARK    6  A    between atoms: N_20  and  C_23
REMARK                            x       y       z     vdW  Elec       q    Type
REMARK                         _______ _______ _______ _____ _____    ______ ____
ROOT
ATOM      1  N   UNL     1      33.032 -14.402 -24.174  0.00  0.00    -0.329 N 
ATOM      2  C   UNL     1      32.744 -13.946 -22.920  0.00  0.00    +0.033 A 
ATOM      3  C   UNL     1      33.258 -14.837 -22.001  0.00  0.00    -0.009 A 
ATOM      4  C   UNL     1      32.025 -12.681 -22.616  0.00  0.00    +0.043 C 
ATOM      5  C   UNL     1      33.102 -14.643 -20.531  0.00  0.00    +0.028 C 
ATOM      6  C   UNL     1      31.585 -12.676 -21.141  0.00  0.00    +0.007 C 
ATOM      7  C   UNL     1      33.880 -15.889 -22.729  0.00  0.00    +0.013 A 
ATOM      8  C   UNL     1      32.691 -13.194 -20.201  0.00  0.00    +0.005 C 
ATOM      9  C   UNL     1      33.725 -15.591 -24.088  0.00  0.00    +0.059 A 
ATOM     10  C   UNL     1      34.560 -17.069 -22.370  0.00  0.00    -0.003 C 
ATOM     11  C   UNL     1      34.222 -16.418 -25.103  0.00  0.00    +0.017 C 
ATOM     12  C   UNL     1      35.061 -17.905 -23.374  0.00  0.00    -0.022 C 
ATOM     13  C   UNL     1      34.893 -17.582 -24.719  0.00  0.00    -0.003 C 
ATOM     14  C   UNL     1      35.782 -19.157 -22.999  0.00  0.00    +0.031 C 
ENDROOT
BRANCH   1  15
ATOM     15  C   UNL     1      32.673 -13.739 -25.410  0.00  0.00    +0.133 C 
BRANCH  15  16
ATOM     16  C   UNL     1      33.825 -12.899 -25.975  0.00  0.00    +0.112 C 
BRANCH  16  17
ATOM     17  O   UNL     1      33.770 -12.966 -27.402  0.00  0.00    -0.385 OA
ATOM     18  H   UNL     1      33.727 -12.068 -27.767  0.00  0.00    +0.210 HD
ENDBRANCH  16  17
BRANCH  16  19
ATOM     19  C   UNL     1      33.730 -11.424 -25.569  0.00  0.00    -0.050 C 
BRANCH  19  20
ATOM     20  N   UNL     1      34.665 -11.087 -24.504  0.00  0.00    +0.387 N 
ATOM     21  H   UNL     1      34.726 -11.871 -23.853  0.00  0.00    -0.084 HD
ATOM     22  H   UNL     1      35.577 -10.898 -24.919  0.00  0.00    -0.084 HD
BRANCH  20  23
ATOM     23  C   UNL     1      34.226  -9.897 -23.779  0.00  0.00    -0.062 C 
ATOM     24  C   UNL     1      35.010  -8.673 -24.266  0.00  0.00    -0.021 C 
ATOM     25  C   UNL     1      32.719  -9.699 -23.966  0.00  0.00    -0.021 C 
ATOM     26  C   UNL     1      34.525  -7.395 -23.584  0.00  0.00    -0.002 C 
ATOM     27  C   UNL     1      32.236  -8.420 -23.285  0.00  0.00    -0.002 C 
ATOM     28  C   UNL     1      33.021  -7.200 -23.758  0.00  0.00    -0.000 C 
ENDBRANCH  20  23
ENDBRANCH  19  20
ENDBRANCH  16  19
ENDBRANCH  15  16
ENDBRANCH   1  15
TORSDOF 6
ENDMDL
