MODEL 1
REMARK VINA RESULT:      -9.0      0.000      0.000
REMARK  Name = 3034034
REMARK  5 active torsions:
REMARK  status: ('A' for Active; 'I' for Inactive)
REMARK    1  A    between atoms: C_1  and  C_3
REMARK    2  A    between atoms: C_1  and  C_16
REMARK    3  A    between atoms: C_1  and  O_25
REMARK    4  A    between atoms: C_10  and  O_12
REMARK    5  A    between atoms: C_18  and  C_23
REMARK                            x       y       z     vdW  Elec       q    Type
REMARK                         _______ _______ _______ _____ _____    ______ ____
ROOT
ATOM      1  C   UNL     1      34.163 -10.470 -23.721  0.00  0.00    +0.114 C 
ENDROOT
BRANCH   1   3
ATOM      2  N   UNL     1      33.342 -13.793 -26.288  0.00  0.00    -0.244 NA
ATOM      3  C   UNL     1      33.878 -11.664 -24.595  0.00  0.00    +0.005 C 
ATOM      4  C   UNL     1      33.814 -12.958 -24.076  0.00  0.00    +0.019 C 
ATOM      5  C   UNL     1      33.677 -11.426 -25.943  0.00  0.00    +0.019 C 
ATOM      6  C   UNL     1      33.538 -14.011 -24.974  0.00  0.00    +0.081 C 
ATOM      7  C   UNL     1      34.013 -13.223 -22.711  0.00  0.00    +0.038 C 
ATOM      8  C   UNL     1      33.414 -12.520 -26.742  0.00  0.00    +0.099 C 
ATOM      9  C   UNL     1      33.472 -15.305 -24.464  0.00  0.00    +0.022 C 
ATOM     10  C   UNL     1      33.941 -14.527 -22.229  0.00  0.00    +0.139 C 
ATOM     11  C   UNL     1      33.671 -15.569 -23.107  0.00  0.00    +0.038 C 
BRANCH  10  12
ATOM     12  O   UNL     1      34.134 -14.778 -20.906  0.00  0.00    -0.471 OA
ATOM     13  C   UNL     1      34.686 -16.048 -20.559  0.00  0.00    +0.252 C 
ENDBRANCH  10  12
ENDBRANCH   1   3
BRANCH   1  16
ATOM     14  N   UNL     1      31.955  -9.521 -23.008  0.00  0.00    +0.390 N 
ATOM     15  C   UNL     1      32.916  -7.115 -22.791  0.00  0.00    -0.002 C 
ATOM     16  C   UNL     1      33.124  -9.361 -23.914  0.00  0.00    -0.026 C 
ATOM     17  C   UNL     1      33.752  -7.958 -23.774  0.00  0.00    -0.018 C 
ATOM     18  C   UNL     1      31.434  -7.080 -23.230  0.00  0.00    +0.001 C 
ATOM     19  C   UNL     1      32.965  -7.854 -21.440  0.00  0.00    -0.023 C 
ATOM     20  C   UNL     1      30.930  -8.529 -23.417  0.00  0.00    -0.073 C 
ATOM     21  C   UNL     1      32.334  -9.246 -21.604  0.00  0.00    -0.077 C 
ATOM     22  H   UNL     1      31.607 -10.478 -23.071  0.00  0.00    -0.079 HD
BRANCH  18  23
ATOM     23  C   UNL     1      31.221  -6.253 -24.464  0.00  0.00    -0.029 C 
ATOM     24  C   UNL     1      31.253  -4.917 -24.484  0.00  0.00    -0.005 C 
ENDBRANCH  18  23
ENDBRANCH   1  16
BRANCH   1  25
ATOM     25  O   UNL     1      35.458  -9.958 -24.023  0.00  0.00    -0.382 OA
ATOM     26  H   UNL     1      35.474  -9.638 -24.938  0.00  0.00    +0.211 HD
ENDBRANCH   1  25
TORSDOF 5
ENDMDL
MODEL 2
REMARK VINA RESULT:      -8.5     13.033     15.060
REMARK  Name = 3034034
REMARK  5 active torsions:
REMARK  status: ('A' for Active; 'I' for Inactive)
REMARK    1  A    between atoms: C_1  and  C_3
REMARK    2  A    between atoms: C_1  and  C_16
REMARK    3  A    between atoms: C_1  and  O_25
REMARK    4  A    between atoms: C_10  and  O_12
REMARK    5  A    between atoms: C_18  and  C_23
REMARK                            x       y       z     vdW  Elec       q    Type
REMARK                         _______ _______ _______ _____ _____    ______ ____
ROOT
ATOM      1  C   UNL     1      32.906 -23.699 -15.634  0.00  0.00    +0.114 C 
ENDROOT
BRANCH   1   3
ATOM      2  N   UNL     1      35.233 -22.033 -18.814  0.00  0.00    -0.244 NA
ATOM      3  C   UNL     1      33.756 -23.111 -16.731  0.00  0.00    +0.005 C 
ATOM      4  C   UNL     1      35.112 -22.838 -16.545  0.00  0.00    +0.019 C 
ATOM      5  C   UNL     1      33.137 -22.852 -17.940  0.00  0.00    +0.019 C 
ATOM      6  C   UNL     1      35.825 -22.290 -17.632  0.00  0.00    +0.081 C 
ATOM      7  C   UNL     1      35.762 -23.094 -15.326  0.00  0.00    +0.038 C 
ATOM      8  C   UNL     1      33.916 -22.316 -18.944  0.00  0.00    +0.099 C 
ATOM      9  C   UNL     1      37.179 -22.016 -17.456  0.00  0.00    +0.022 C 
ATOM     10  C   UNL     1      37.117 -22.810 -15.178  0.00  0.00    +0.139 C 
ATOM     11  C   UNL     1      37.825 -22.270 -16.244  0.00  0.00    +0.038 C 
BRANCH  10  12
ATOM     12  O   UNL     1      37.743 -23.060 -13.996  0.00  0.00    -0.471 OA
ATOM     13  C   UNL     1      36.916 -23.368 -12.875  0.00  0.00    +0.252 C 
ENDBRANCH  10  12
ENDBRANCH   1   3
BRANCH   1  16
ATOM     14  N   UNL     1      30.698 -24.873 -15.808  0.00  0.00    +0.390 N 
ATOM     15  C   UNL     1      29.476 -23.046 -14.418  0.00  0.00    -0.002 C 
ATOM     16  C   UNL     1      31.411 -23.574 -15.942  0.00  0.00    -0.026 C 
ATOM     17  C   UNL     1      30.740 -22.477 -15.089  0.00  0.00    -0.018 C 
ATOM     18  C   UNL     1      28.529 -23.660 -15.477  0.00  0.00    +0.001 C 
ATOM     19  C   UNL     1      29.949 -24.203 -13.517  0.00  0.00    -0.023 C 
ATOM     20  C   UNL     1      29.319 -24.684 -16.324  0.00  0.00    -0.073 C 
ATOM     21  C   UNL     1      30.611 -25.282 -14.388  0.00  0.00    -0.077 C 
ATOM     22  H   UNL     1      31.204 -25.591 -16.325  0.00  0.00    -0.079 HD
BRANCH  18  23
ATOM     23  C   UNL     1      27.874 -22.617 -16.333  0.00  0.00    -0.029 C 
ATOM     24  C   UNL     1      26.670 -22.092 -16.083  0.00  0.00    -0.005 C 
ENDBRANCH  18  23
ENDBRANCH   1  16
BRANCH   1  25
ATOM     25  O   UNL     1      33.190 -23.037 -14.406  0.00  0.00    -0.382 OA
ATOM     26  H   UNL     1      33.690 -22.225 -14.584  0.00  0.00    +0.211 HD
ENDBRANCH   1  25
TORSDOF 5
ENDMDL
MODEL 3
REMARK VINA RESULT:      -8.0     10.224     15.641
REMARK  Name = 3034034
REMARK  5 active torsions:
REMARK  status: ('A' for Active; 'I' for Inactive)
REMARK    1  A    between atoms: C_1  and  C_3
REMARK    2  A    between atoms: C_1  and  C_16
REMARK    3  A    between atoms: C_1  and  O_25
REMARK    4  A    between atoms: C_10  and  O_12
REMARK    5  A    between atoms: C_18  and  C_23
REMARK                            x       y       z     vdW  Elec       q    Type
REMARK                         _______ _______ _______ _____ _____    ______ ____
ROOT
ATOM      1  C   UNL     1      36.489 -23.083 -16.151  0.00  0.00    +0.114 C 
ENDROOT
BRANCH   1   3
ATOM      2  N   UNL     1      32.600 -22.711 -17.895  0.00  0.00    -0.244 NA
ATOM      3  C   UNL     1      35.133 -22.929 -16.793  0.00  0.00    +0.005 C 
ATOM      4  C   UNL     1      34.955 -22.204 -17.972  0.00  0.00    +0.019 C 
ATOM      5  C   UNL     1      34.064 -23.542 -16.165  0.00  0.00    +0.019 C 
ATOM      6  C   UNL     1      33.649 -22.119 -18.497  0.00  0.00    +0.081 C 
ATOM      7  C   UNL     1      36.027 -21.575 -18.627  0.00  0.00    +0.038 C 
ATOM      8  C   UNL     1      32.824 -23.403 -16.754  0.00  0.00    +0.099 C 
ATOM      9  C   UNL     1      33.462 -21.398 -19.674  0.00  0.00    +0.022 C 
ATOM     10  C   UNL     1      35.811 -20.860 -19.803  0.00  0.00    +0.139 C 
ATOM     11  C   UNL     1      34.527 -20.772 -20.326  0.00  0.00    +0.038 C 
BRANCH  10  12
ATOM     12  O   UNL     1      36.851 -20.253 -20.434  0.00  0.00    -0.471 OA
ATOM     13  C   UNL     1      36.590 -18.995 -21.056  0.00  0.00    +0.252 C 
ENDBRANCH  10  12
ENDBRANCH   1   3
BRANCH   1  16
ATOM     14  N   UNL     1      36.476 -25.148 -14.730  0.00  0.00    +0.390 N 
ATOM     15  C   UNL     1      38.192 -24.155 -13.049  0.00  0.00    -0.002 C 
ATOM     16  C   UNL     1      36.387 -23.663 -14.738  0.00  0.00    -0.026 C 
ATOM     17  C   UNL     1      37.429 -23.037 -13.786  0.00  0.00    -0.018 C 
ATOM     18  C   UNL     1      37.204 -25.105 -12.333  0.00  0.00    +0.001 C 
ATOM     19  C   UNL     1      38.900 -24.983 -14.138  0.00  0.00    -0.023 C 
ATOM     20  C   UNL     1      36.161 -25.611 -13.356  0.00  0.00    -0.073 C 
ATOM     21  C   UNL     1      37.844 -25.597 -15.071  0.00  0.00    -0.077 C 
ATOM     22  H   UNL     1      35.826 -25.528 -15.419  0.00  0.00    -0.079 HD
BRANCH  18  23
ATOM     23  C   UNL     1      36.552 -24.463 -11.144  0.00  0.00    -0.029 C 
ATOM     24  C   UNL     1      35.233 -24.455 -10.928  0.00  0.00    -0.005 C 
ENDBRANCH  18  23
ENDBRANCH   1  16
BRANCH   1  25
ATOM     25  O   UNL     1      37.134 -21.814 -16.094  0.00  0.00    -0.382 OA
ATOM     26  H   UNL     1      36.684 -21.196 -16.690  0.00  0.00    +0.211 HD
ENDBRANCH   1  25
TORSDOF 5
ENDMDL
MODEL 4
REMARK VINA RESULT:      -7.9     13.076     16.319
REMARK  Name = 3034034
REMARK  5 active torsions:
REMARK  status: ('A' for Active; 'I' for Inactive)
REMARK    1  A    between atoms: C_1  and  C_3
REMARK    2  A    between atoms: C_1  and  C_16
REMARK    3  A    between atoms: C_1  and  O_25
REMARK    4  A    between atoms: C_10  and  O_12
REMARK    5  A    between atoms: C_18  and  C_23
REMARK                            x       y       z     vdW  Elec       q    Type
REMARK                         _______ _______ _______ _____ _____    ______ ____
ROOT
ATOM      1  C   UNL     1      33.622 -23.810 -13.810  0.00  0.00    +0.114 C 
ENDROOT
BRANCH   1   3
ATOM      2  N   UNL     1      31.351 -22.986 -17.341  0.00  0.00    -0.244 NA
ATOM      3  C   UNL     1      32.854 -23.509 -15.072  0.00  0.00    +0.005 C 
ATOM      4  C   UNL     1      33.493 -23.089 -16.240  0.00  0.00    +0.019 C 
ATOM      5  C   UNL     1      31.481 -23.670 -15.029  0.00  0.00    +0.019 C 
ATOM      6  C   UNL     1      32.688 -22.835 -17.371  0.00  0.00    +0.081 C 
ATOM      7  C   UNL     1      34.886 -22.920 -16.307  0.00  0.00    +0.038 C 
ATOM      8  C   UNL     1      30.780 -23.396 -16.185  0.00  0.00    +0.099 C 
ATOM      9  C   UNL     1      33.317 -22.416 -18.541  0.00  0.00    +0.022 C 
ATOM     10  C   UNL     1      35.489 -22.501 -17.490  0.00  0.00    +0.139 C 
ATOM     11  C   UNL     1      34.703 -22.248 -18.607  0.00  0.00    +0.038 C 
BRANCH  10  12
ATOM     12  O   UNL     1      36.837 -22.339 -17.550  0.00  0.00    -0.471 OA
ATOM     13  C   UNL     1      37.407 -21.316 -16.735  0.00  0.00    +0.252 C 
ENDBRANCH  10  12
ENDBRANCH   1   3
BRANCH   1  16
ATOM     14  N   UNL     1      35.933 -23.118 -13.128  0.00  0.00    +0.390 N 
ATOM     15  C   UNL     1      36.808 -25.566 -13.149  0.00  0.00    -0.002 C 
ATOM     16  C   UNL     1      35.125 -23.934 -14.074  0.00  0.00    -0.026 C 
ATOM     17  C   UNL     1      35.586 -25.408 -14.074  0.00  0.00    -0.018 C 
ATOM     18  C   UNL     1      37.926 -24.577 -13.552  0.00  0.00    +0.001 C 
ATOM     19  C   UNL     1      36.337 -25.159 -11.740  0.00  0.00    -0.023 C 
ATOM     20  C   UNL     1      37.340 -23.147 -13.598  0.00  0.00    -0.073 C 
ATOM     21  C   UNL     1      35.885 -23.690 -11.764  0.00  0.00    -0.077 C 
ATOM     22  H   UNL     1      35.560 -22.169 -13.098  0.00  0.00    -0.079 HD
BRANCH  18  23
ATOM     23  C   UNL     1      38.582 -24.951 -14.849  0.00  0.00    -0.029 C 
ATOM     24  C   UNL     1      39.873 -25.276 -14.967  0.00  0.00    -0.005 C 
ENDBRANCH  18  23
ENDBRANCH   1  16
BRANCH   1  25
ATOM     25  O   UNL     1      33.142 -25.024 -13.241  0.00  0.00    -0.382 OA
ATOM     26  H   UNL     1      33.894 -25.587 -12.998  0.00  0.00    +0.211 HD
ENDBRANCH   1  25
TORSDOF 5
ENDMDL
MODEL 5
REMARK VINA RESULT:      -7.9      1.803      2.240
REMARK  Name = 3034034
REMARK  5 active torsions:
REMARK  status: ('A' for Active; 'I' for Inactive)
REMARK    1  A    between atoms: C_1  and  C_3
REMARK    2  A    between atoms: C_1  and  C_16
REMARK    3  A    between atoms: C_1  and  O_25
REMARK    4  A    between atoms: C_10  and  O_12
REMARK    5  A    between atoms: C_18  and  C_23
REMARK                            x       y       z     vdW  Elec       q    Type
REMARK                         _______ _______ _______ _____ _____    ______ ____
ROOT
ATOM      1  C   UNL     1      34.124  -8.688 -23.300  0.00  0.00    +0.114 C 
ENDROOT
BRANCH   1   3
ATOM      2  N   UNL     1      34.588 -12.007 -25.959  0.00  0.00    -0.244 NA
ATOM      3  C   UNL     1      34.267  -9.879 -24.212  0.00  0.00    +0.005 C 
ATOM      4  C   UNL     1      33.666 -11.105 -23.922  0.00  0.00    +0.019 C 
ATOM      5  C   UNL     1      35.020  -9.709 -25.360  0.00  0.00    +0.019 C 
ATOM      6  C   UNL     1      33.856 -12.160 -24.839  0.00  0.00    +0.081 C 
ATOM      7  C   UNL     1      32.895 -11.300 -22.764  0.00  0.00    +0.038 C 
ATOM      8  C   UNL     1      35.149 -10.799 -26.195  0.00  0.00    +0.099 C 
ATOM      9  C   UNL     1      33.259 -13.387 -24.558  0.00  0.00    +0.022 C 
ATOM     10  C   UNL     1      32.310 -12.537 -22.508  0.00  0.00    +0.139 C 
ATOM     11  C   UNL     1      32.493 -13.581 -23.406  0.00  0.00    +0.038 C 
BRANCH  10  12
ATOM     12  O   UNL     1      31.565 -12.722 -21.385  0.00  0.00    -0.471 OA
ATOM     13  C   UNL     1      31.443 -11.612 -20.496  0.00  0.00    +0.252 C 
ENDBRANCH  10  12
ENDBRANCH   1   3
BRANCH   1  16
ATOM     14  N   UNL     1      31.691  -8.115 -23.106  0.00  0.00    +0.390 N 
ATOM     15  C   UNL     1      32.185  -5.586 -22.763  0.00  0.00    -0.002 C 
ATOM     16  C   UNL     1      32.987  -7.763 -23.745  0.00  0.00    -0.026 C 
ATOM     17  C   UNL     1      33.337  -6.276 -23.517  0.00  0.00    -0.018 C 
ATOM     18  C   UNL     1      30.846  -5.790 -23.510  0.00  0.00    +0.001 C 
ATOM     19  C   UNL     1      32.058  -6.312 -21.410  0.00  0.00    -0.023 C 
ATOM     20  C   UNL     1      30.633  -7.301 -23.756  0.00  0.00    -0.073 C 
ATOM     21  C   UNL     1      31.708  -7.788 -21.662  0.00  0.00    -0.077 C 
ATOM     22  H   UNL     1      31.523  -9.115 -23.212  0.00  0.00    -0.079 HD
BRANCH  18  23
ATOM     23  C   UNL     1      30.776  -5.004 -24.786  0.00  0.00    -0.029 C 
ATOM     24  C   UNL     1      31.027  -3.694 -24.872  0.00  0.00    -0.005 C 
ENDBRANCH  18  23
ENDBRANCH   1  16
BRANCH   1  25
ATOM     25  O   UNL     1      35.345  -7.956 -23.280  0.00  0.00    -0.382 OA
ATOM     26  H   UNL     1      35.862  -8.210 -22.499  0.00  0.00    +0.211 HD
ENDBRANCH   1  25
TORSDOF 5
ENDMDL
MODEL 6
REMARK VINA RESULT:      -7.7     14.270     16.110
REMARK  Name = 3034034
REMARK  5 active torsions:
REMARK  status: ('A' for Active; 'I' for Inactive)
REMARK    1  A    between atoms: C_1  and  C_3
REMARK    2  A    between atoms: C_1  and  C_16
REMARK    3  A    between atoms: C_1  and  O_25
REMARK    4  A    between atoms: C_10  and  O_12
REMARK    5  A    between atoms: C_18  and  C_23
REMARK                            x       y       z     vdW  Elec       q    Type
REMARK                         _______ _______ _______ _____ _____    ______ ____
ROOT
ATOM      1  C   UNL     1      32.300 -23.720 -14.350  0.00  0.00    +0.114 C 
ENDROOT
BRANCH   1   3
ATOM      2  N   UNL     1      35.971 -23.195 -16.484  0.00  0.00    -0.244 NA
ATOM      3  C   UNL     1      33.612 -23.547 -15.071  0.00  0.00    +0.005 C 
ATOM      4  C   UNL     1      34.828 -23.899 -14.482  0.00  0.00    +0.019 C 
ATOM      5  C   UNL     1      33.566 -23.025 -16.351  0.00  0.00    +0.019 C 
ATOM      6  C   UNL     1      36.003 -23.703 -15.237  0.00  0.00    +0.081 C 
ATOM      7  C   UNL     1      34.898 -24.432 -13.183  0.00  0.00    +0.038 C 
ATOM      8  C   UNL     1      34.768 -22.870 -17.011  0.00  0.00    +0.099 C 
ATOM      9  C   UNL     1      37.220 -24.052 -14.657  0.00  0.00    +0.022 C 
ATOM     10  C   UNL     1      36.129 -24.773 -12.628  0.00  0.00    +0.139 C 
ATOM     11  C   UNL     1      37.290 -24.581 -13.366  0.00  0.00    +0.038 C 
BRANCH  10  12
ATOM     12  O   UNL     1      36.193 -25.289 -11.372  0.00  0.00    -0.471 OA
ATOM     13  C   UNL     1      35.645 -24.500 -10.316  0.00  0.00    +0.252 C 
ENDBRANCH  10  12
ENDBRANCH   1   3
BRANCH   1  16
ATOM     14  N   UNL     1      30.654 -24.710 -15.961  0.00  0.00    +0.390 N 
ATOM     15  C   UNL     1      28.633 -23.563 -14.796  0.00  0.00    -0.002 C 
ATOM     16  C   UNL     1      31.105 -23.470 -15.274  0.00  0.00    -0.026 C 
ATOM     17  C   UNL     1      29.937 -22.788 -14.529  0.00  0.00    -0.018 C 
ATOM     18  C   UNL     1      28.387 -23.703 -16.317  0.00  0.00    +0.001 C 
ATOM     19  C   UNL     1      28.855 -24.985 -14.246  0.00  0.00    -0.023 C 
ATOM     20  C   UNL     1      29.642 -24.320 -16.975  0.00  0.00    -0.073 C 
ATOM     21  C   UNL     1      30.019 -25.643 -15.004  0.00  0.00    -0.077 C 
ATOM     22  H   UNL     1      31.459 -25.173 -16.384  0.00  0.00    -0.079 HD
BRANCH  18  23
ATOM     23  C   UNL     1      28.005 -22.402 -16.958  0.00  0.00    -0.029 C 
ATOM     24  C   UNL     1      26.779 -21.873 -16.905  0.00  0.00    -0.005 C 
ENDBRANCH  18  23
ENDBRANCH   1  16
BRANCH   1  25
ATOM     25  O   UNL     1      32.240 -22.818 -13.249  0.00  0.00    -0.382 OA
ATOM     26  H   UNL     1      32.670 -21.983 -13.492  0.00  0.00    +0.211 HD
ENDBRANCH   1  25
TORSDOF 5
ENDMDL
MODEL 7
REMARK VINA RESULT:      -7.6      3.016      8.565
REMARK  Name = 3034034
REMARK  5 active torsions:
REMARK  status: ('A' for Active; 'I' for Inactive)
REMARK    1  A    between atoms: C_1  and  C_3
REMARK    2  A    between atoms: C_1  and  C_16
REMARK    3  A    between atoms: C_1  and  O_25
REMARK    4  A    between atoms: C_10  and  O_12
REMARK    5  A    between atoms: C_18  and  C_23
REMARK                            x       y       z     vdW  Elec       q    Type
REMARK                         _______ _______ _______ _____ _____    ______ ____
ROOT
ATOM      1  C   UNL     1      34.214 -15.904 -23.110  0.00  0.00    +0.114 C 
ENDROOT
BRANCH   1   3
ATOM      2  N   UNL     1      32.013 -12.955 -20.927  0.00  0.00    -0.244 NA
ATOM      3  C   UNL     1      33.448 -14.839 -22.367  0.00  0.00    +0.005 C 
ATOM      4  C   UNL     1      33.320 -13.541 -22.865  0.00  0.00    +0.019 C 
ATOM      5  C   UNL     1      32.868 -15.200 -21.165  0.00  0.00    +0.019 C 
ATOM      6  C   UNL     1      32.581 -12.615 -22.099  0.00  0.00    +0.081 C 
ATOM      7  C   UNL     1      33.899 -13.152 -24.085  0.00  0.00    +0.038 C 
ATOM      8  C   UNL     1      32.165 -14.225 -20.487  0.00  0.00    +0.099 C 
ATOM      9  C   UNL     1      32.448 -11.318 -22.589  0.00  0.00    +0.022 C 
ATOM     10  C   UNL     1      33.750 -11.849 -24.551  0.00  0.00    +0.139 C 
ATOM     11  C   UNL     1      33.024 -10.931 -23.801  0.00  0.00    +0.038 C 
BRANCH  10  12
ATOM     12  O   UNL     1      34.312 -11.476 -25.732  0.00  0.00    -0.471 OA
ATOM     13  C   UNL     1      35.273 -10.423 -25.692  0.00  0.00    +0.252 C 
ENDBRANCH  10  12
ENDBRANCH   1   3
BRANCH   1  16
ATOM     14  N   UNL     1      34.432 -18.390 -23.336  0.00  0.00    +0.390 N 
ATOM     15  C   UNL     1      35.864 -18.587 -21.175  0.00  0.00    -0.002 C 
ATOM     16  C   UNL     1      34.115 -17.265 -22.416  0.00  0.00    -0.026 C 
ATOM     17  C   UNL     1      34.985 -17.323 -21.142  0.00  0.00    -0.018 C 
ATOM     18  C   UNL     1      34.993 -19.849 -21.376  0.00  0.00    +0.001 C 
ATOM     19  C   UNL     1      36.760 -18.458 -22.421  0.00  0.00    -0.023 C 
ATOM     20  C   UNL     1      34.107 -19.654 -22.628  0.00  0.00    -0.073 C 
ATOM     21  C   UNL     1      35.873 -18.404 -23.676  0.00  0.00    -0.077 C 
ATOM     22  H   UNL     1      33.894 -18.285 -24.196  0.00  0.00    -0.079 HD
BRANCH  18  23
ATOM     23  C   UNL     1      34.175 -20.181 -20.163  0.00  0.00    -0.029 C 
ATOM     24  C   UNL     1      32.839 -20.215 -20.147  0.00  0.00    -0.005 C 
ENDBRANCH  18  23
ENDBRANCH   1  16
BRANCH   1  25
ATOM     25  O   UNL     1      35.583 -15.523 -23.207  0.00  0.00    -0.382 OA
ATOM     26  H   UNL     1      35.729 -15.051 -24.041  0.00  0.00    +0.211 HD
ENDBRANCH   1  25
TORSDOF 5
ENDMDL
MODEL 8
REMARK VINA RESULT:      -7.4      2.329      6.905
REMARK  Name = 3034034
REMARK  5 active torsions:
REMARK  status: ('A' for Active; 'I' for Inactive)
REMARK    1  A    between atoms: C_1  and  C_3
REMARK    2  A    between atoms: C_1  and  C_16
REMARK    3  A    between atoms: C_1  and  O_25
REMARK    4  A    between atoms: C_10  and  O_12
REMARK    5  A    between atoms: C_18  and  C_23
REMARK                            x       y       z     vdW  Elec       q    Type
REMARK                         _______ _______ _______ _____ _____    ______ ____
ROOT
ATOM      1  C   UNL     1      32.715 -12.581 -22.884  0.00  0.00    +0.114 C 
ENDROOT
BRANCH   1   3
ATOM      2  N   UNL     1      34.834  -9.664 -25.187  0.00  0.00    -0.244 NA
ATOM      3  C   UNL     1      33.448 -11.526 -23.672  0.00  0.00    +0.005 C 
ATOM      4  C   UNL     1      33.417 -10.179 -23.306  0.00  0.00    +0.019 C 
ATOM      5  C   UNL     1      34.161 -11.946 -24.780  0.00  0.00    +0.019 C 
ATOM      6  C   UNL     1      34.137  -9.267 -24.106  0.00  0.00    +0.081 C 
ATOM      7  C   UNL     1      32.701  -9.730 -22.184  0.00  0.00    +0.038 C 
ATOM      8  C   UNL     1      34.833 -10.980 -25.500  0.00  0.00    +0.099 C 
ATOM      9  C   UNL     1      34.113  -7.921 -23.747  0.00  0.00    +0.022 C 
ATOM     10  C   UNL     1      32.694  -8.379 -21.848  0.00  0.00    +0.139 C 
ATOM     11  C   UNL     1      33.400  -7.474 -22.631  0.00  0.00    +0.038 C 
BRANCH  10  12
ATOM     12  O   UNL     1      32.000  -7.948 -20.761  0.00  0.00    -0.471 OA
ATOM     13  C   UNL     1      31.917  -8.838 -19.648  0.00  0.00    +0.252 C 
ENDBRANCH  10  12
ENDBRANCH   1   3
BRANCH   1  16
ATOM     14  N   UNL     1      33.867 -13.829 -21.040  0.00  0.00    +0.390 N 
ATOM     15  C   UNL     1      33.068 -16.136 -21.931  0.00  0.00    -0.002 C 
ATOM     16  C   UNL     1      33.631 -13.749 -22.506  0.00  0.00    -0.026 C 
ATOM     17  C   UNL     1      33.107 -15.090 -23.062  0.00  0.00    -0.018 C 
ATOM     18  C   UNL     1      34.454 -16.256 -21.254  0.00  0.00    +0.001 C 
ATOM     19  C   UNL     1      32.096 -15.588 -20.869  0.00  0.00    -0.023 C 
ATOM     20  C   UNL     1      34.918 -14.850 -20.808  0.00  0.00    -0.073 C 
ATOM     21  C   UNL     1      32.639 -14.254 -20.330  0.00  0.00    -0.077 C 
ATOM     22  H   UNL     1      34.144 -12.910 -20.692  0.00  0.00    -0.079 HD
BRANCH  18  23
ATOM     23  C   UNL     1      35.467 -16.923 -22.136  0.00  0.00    -0.029 C 
ATOM     24  C   UNL     1      35.417 -18.210 -22.493  0.00  0.00    -0.005 C 
ENDBRANCH  18  23
ENDBRANCH   1  16
BRANCH   1  25
ATOM     25  O   UNL     1      31.620 -13.072 -23.651  0.00  0.00    -0.382 OA
ATOM     26  H   UNL     1      31.844 -13.037 -24.594  0.00  0.00    +0.211 HD
ENDBRANCH   1  25
TORSDOF 5
ENDMDL
MODEL 9
REMARK VINA RESULT:      -7.4      2.524      7.061
REMARK  Name = 3034034
REMARK  5 active torsions:
REMARK  status: ('A' for Active; 'I' for Inactive)
REMARK    1  A    between atoms: C_1  and  C_3
REMARK    2  A    between atoms: C_1  and  C_16
REMARK    3  A    between atoms: C_1  and  O_25
REMARK    4  A    between atoms: C_10  and  O_12
REMARK    5  A    between atoms: C_18  and  C_23
REMARK                            x       y       z     vdW  Elec       q    Type
REMARK                         _______ _______ _______ _____ _____    ______ ____
ROOT
ATOM      1  C   UNL     1      32.907 -13.707 -23.338  0.00  0.00    +0.114 C 
ENDROOT
BRANCH   1   3
ATOM      2  N   UNL     1      33.933 -13.244 -27.466  0.00  0.00    -0.244 NA
ATOM      3  C   UNL     1      33.284 -13.509 -24.785  0.00  0.00    +0.005 C 
ATOM      4  C   UNL     1      33.965 -12.371 -25.219  0.00  0.00    +0.019 C 
ATOM      5  C   UNL     1      32.927 -14.508 -25.672  0.00  0.00    +0.019 C 
ATOM      6  C   UNL     1      34.276 -12.279 -26.592  0.00  0.00    +0.081 C 
ATOM      7  C   UNL     1      34.339 -11.345 -24.335  0.00  0.00    +0.038 C 
ATOM      8  C   UNL     1      33.273 -14.328 -26.995  0.00  0.00    +0.099 C 
ATOM      9  C   UNL     1      34.957 -11.147 -27.035  0.00  0.00    +0.022 C 
ATOM     10  C   UNL     1      35.019 -10.225 -24.805  0.00  0.00    +0.139 C 
ATOM     11  C   UNL     1      35.327 -10.126 -26.156  0.00  0.00    +0.038 C 
BRANCH  10  12
ATOM     12  O   UNL     1      35.379  -9.234 -23.946  0.00  0.00    -0.471 OA
ATOM     13  C   UNL     1      34.472  -8.142 -23.797  0.00  0.00    +0.252 C 
ENDBRANCH  10  12
ENDBRANCH   1   3
BRANCH   1  16
ATOM     14  N   UNL     1      34.703 -15.325 -22.676  0.00  0.00    +0.390 N 
ATOM     15  C   UNL     1      33.449 -16.023 -20.508  0.00  0.00    -0.002 C 
ATOM     16  C   UNL     1      33.241 -15.119 -22.850  0.00  0.00    -0.026 C 
ATOM     17  C   UNL     1      32.468 -15.478 -21.563  0.00  0.00    -0.018 C 
ATOM     18  C   UNL     1      34.260 -17.208 -21.082  0.00  0.00    +0.001 C 
ATOM     19  C   UNL     1      34.453 -14.889 -20.225  0.00  0.00    -0.023 C 
ATOM     20  C   UNL     1      34.926 -16.767 -22.406  0.00  0.00    -0.073 C 
ATOM     21  C   UNL     1      35.210 -14.552 -21.520  0.00  0.00    -0.077 C 
ATOM     22  H   UNL     1      35.191 -15.014 -23.516  0.00  0.00    -0.079 HD
BRANCH  18  23
ATOM     23  C   UNL     1      33.424 -18.441 -21.264  0.00  0.00    -0.029 C 
ATOM     24  C   UNL     1      33.766 -19.650 -20.809  0.00  0.00    -0.005 C 
ENDBRANCH  18  23
ENDBRANCH   1  16
BRANCH   1  25
ATOM     25  O   UNL     1      31.513 -13.469 -23.174  0.00  0.00    -0.382 OA
ATOM     26  H   UNL     1      31.360 -13.007 -22.334  0.00  0.00    +0.211 HD
ENDBRANCH   1  25
TORSDOF 5
ENDMDL
