MODEL 1
REMARK VINA RESULT:      -5.7      0.000      0.000
REMARK  Name = 7933
REMARK  1 active torsions:
REMARK  status: ('A' for Active; 'I' for Inactive)
REMARK    1  A    between atoms: C_2  and  O_8
REMARK                            x       y       z     vdW  Elec       q    Type
REMARK                         _______ _______ _______ _____ _____    ______ ____
ROOT
ATOM      1 CL   UNL     1      36.388 -18.619 -21.845  0.00  0.00    -0.082 Cl
ATOM      2  C   UNL     1      34.752 -21.464 -19.557  0.00  0.00    +0.135 C 
ATOM      3  C   UNL     1      35.680 -20.668 -20.229  0.00  0.00    +0.048 C 
ATOM      4  C   UNL     1      33.388 -21.191 -19.670  0.00  0.00    +0.037 C 
ATOM      5  C   UNL     1      35.244 -19.601 -21.015  0.00  0.00    +0.061 C 
ATOM      6  C   UNL     1      32.952 -20.124 -20.456  0.00  0.00    +0.004 C 
ATOM      7  C   UNL     1      33.880 -19.329 -21.128  0.00  0.00    +0.012 C 
ENDROOT
BRANCH   2   8
ATOM      8  O   UNL     1      35.176 -22.504 -18.790  0.00  0.00    -0.505 OA
ATOM      9  H   UNL     1      35.373 -22.370 -17.884  0.00  0.00    +0.292 HD
ENDBRANCH   2   8
TORSDOF 1
ENDMDL
MODEL 2
REMARK VINA RESULT:      -5.6      1.365      2.209
REMARK  Name = 7933
REMARK  1 active torsions:
REMARK  status: ('A' for Active; 'I' for Inactive)
REMARK    1  A    between atoms: C_2  and  O_8
REMARK                            x       y       z     vdW  Elec       q    Type
REMARK                         _______ _______ _______ _____ _____    ______ ____
ROOT
ATOM      1 CL   UNL     1      34.294 -18.598 -21.867  0.00  0.00    -0.082 Cl
ATOM      2  C   UNL     1      33.595 -21.590 -19.305  0.00  0.00    +0.135 C 
ATOM      3  C   UNL     1      33.413 -20.523 -20.185  0.00  0.00    +0.048 C 
ATOM      4  C   UNL     1      34.881 -22.047 -19.020  0.00  0.00    +0.037 C 
ATOM      5  C   UNL     1      34.518 -19.914 -20.780  0.00  0.00    +0.061 C 
ATOM      6  C   UNL     1      35.986 -21.438 -19.615  0.00  0.00    +0.004 C 
ATOM      7  C   UNL     1      35.804 -20.371 -20.496  0.00  0.00    +0.012 C 
ENDROOT
BRANCH   2   8
ATOM      8  O   UNL     1      32.517 -22.184 -18.725  0.00  0.00    -0.505 OA
ATOM      9  H   UNL     1      32.026 -22.828 -19.196  0.00  0.00    +0.292 HD
ENDBRANCH   2   8
TORSDOF 1
ENDMDL
MODEL 3
REMARK VINA RESULT:      -5.4      4.684      5.607
REMARK  Name = 7933
REMARK  1 active torsions:
REMARK  status: ('A' for Active; 'I' for Inactive)
REMARK    1  A    between atoms: C_2  and  O_8
REMARK                            x       y       z     vdW  Elec       q    Type
REMARK                         _______ _______ _______ _____ _____    ______ ____
ROOT
ATOM      1 CL   UNL     1      34.939 -16.427 -20.990  0.00  0.00    -0.082 Cl
ATOM      2  C   UNL     1      34.405 -16.912 -24.925  0.00  0.00    +0.135 C 
ATOM      3  C   UNL     1      34.530 -16.335 -23.661  0.00  0.00    +0.048 C 
ATOM      4  C   UNL     1      34.534 -18.292 -25.077  0.00  0.00    +0.037 C 
ATOM      5  C   UNL     1      34.784 -17.139 -22.550  0.00  0.00    +0.061 C 
ATOM      6  C   UNL     1      34.789 -19.096 -23.966  0.00  0.00    +0.004 C 
ATOM      7  C   UNL     1      34.914 -18.519 -22.702  0.00  0.00    +0.012 C 
ENDROOT
BRANCH   2   8
ATOM      8  O   UNL     1      34.157 -16.128 -26.009  0.00  0.00    -0.505 OA
ATOM      9  H   UNL     1      34.558 -15.284 -26.079  0.00  0.00    +0.292 HD
ENDBRANCH   2   8
TORSDOF 1
ENDMDL
MODEL 4
REMARK VINA RESULT:      -5.4      3.451      4.168
REMARK  Name = 7933
REMARK  1 active torsions:
REMARK  status: ('A' for Active; 'I' for Inactive)
REMARK    1  A    between atoms: C_2  and  O_8
REMARK                            x       y       z     vdW  Elec       q    Type
REMARK                         _______ _______ _______ _____ _____    ______ ____
ROOT
ATOM      1 CL   UNL     1      34.869 -16.806 -25.320  0.00  0.00    -0.082 Cl
ATOM      2  C   UNL     1      35.019 -17.192 -21.341  0.00  0.00    +0.135 C 
ATOM      3  C   UNL     1      35.004 -16.645 -22.625  0.00  0.00    +0.048 C 
ATOM      4  C   UNL     1      34.916 -18.573 -21.171  0.00  0.00    +0.037 C 
ATOM      5  C   UNL     1      34.887 -17.480 -23.737  0.00  0.00    +0.061 C 
ATOM      6  C   UNL     1      34.799 -19.407 -22.282  0.00  0.00    +0.004 C 
ATOM      7  C   UNL     1      34.785 -18.860 -23.566  0.00  0.00    +0.012 C 
ENDROOT
BRANCH   2   8
ATOM      8  O   UNL     1      35.133 -16.379 -20.257  0.00  0.00    -0.505 OA
ATOM      9  H   UNL     1      34.364 -16.037 -19.844  0.00  0.00    +0.292 HD
ENDBRANCH   2   8
TORSDOF 1
ENDMDL
MODEL 5
REMARK VINA RESULT:      -5.3      2.578      3.045
REMARK  Name = 7933
REMARK  1 active torsions:
REMARK  status: ('A' for Active; 'I' for Inactive)
REMARK    1  A    between atoms: C_2  and  O_8
REMARK                            x       y       z     vdW  Elec       q    Type
REMARK                         _______ _______ _______ _____ _____    ______ ____
ROOT
ATOM      1 CL   UNL     1      33.764 -22.810 -18.682  0.00  0.00    -0.082 Cl
ATOM      2  C   UNL     1      35.768 -19.888 -20.539  0.00  0.00    +0.135 C 
ATOM      3  C   UNL     1      35.466 -21.022 -19.784  0.00  0.00    +0.048 C 
ATOM      4  C   UNL     1      34.742 -19.145 -21.122  0.00  0.00    +0.037 C 
ATOM      5  C   UNL     1      34.137 -21.411 -19.613  0.00  0.00    +0.061 C 
ATOM      6  C   UNL     1      33.414 -19.534 -20.951  0.00  0.00    +0.004 C 
ATOM      7  C   UNL     1      33.111 -20.668 -20.196  0.00  0.00    +0.012 C 
ENDROOT
BRANCH   2   8
ATOM      8  O   UNL     1      37.064 -19.508 -20.706  0.00  0.00    -0.505 OA
ATOM      9  H   UNL     1      37.753 -20.135 -20.607  0.00  0.00    +0.292 HD
ENDBRANCH   2   8
TORSDOF 1
ENDMDL
MODEL 6
REMARK VINA RESULT:      -5.1      2.279      3.013
REMARK  Name = 7933
REMARK  1 active torsions:
REMARK  status: ('A' for Active; 'I' for Inactive)
REMARK    1  A    between atoms: C_2  and  O_8
REMARK                            x       y       z     vdW  Elec       q    Type
REMARK                         _______ _______ _______ _____ _____    ______ ____
ROOT
ATOM      1 CL   UNL     1      36.657 -21.809 -18.657  0.00  0.00    -0.082 Cl
ATOM      2  C   UNL     1      33.685 -20.143 -20.753  0.00  0.00    +0.135 C 
ATOM      3  C   UNL     1      34.397 -20.957 -19.871  0.00  0.00    +0.048 C 
ATOM      4  C   UNL     1      34.354 -19.178 -21.506  0.00  0.00    +0.037 C 
ATOM      5  C   UNL     1      35.778 -20.805 -19.744  0.00  0.00    +0.061 C 
ATOM      6  C   UNL     1      35.735 -19.027 -21.378  0.00  0.00    +0.004 C 
ATOM      7  C   UNL     1      36.447 -19.841 -20.497  0.00  0.00    +0.012 C 
ENDROOT
BRANCH   2   8
ATOM      8  O   UNL     1      32.338 -20.290 -20.877  0.00  0.00    -0.505 OA
ATOM      9  H   UNL     1      31.988 -20.857 -21.536  0.00  0.00    +0.292 HD
ENDBRANCH   2   8
TORSDOF 1
ENDMDL
MODEL 7
REMARK VINA RESULT:      -5.1      4.299      5.231
REMARK  Name = 7933
REMARK  1 active torsions:
REMARK  status: ('A' for Active; 'I' for Inactive)
REMARK    1  A    between atoms: C_2  and  O_8
REMARK                            x       y       z     vdW  Elec       q    Type
REMARK                         _______ _______ _______ _____ _____    ______ ____
ROOT
ATOM      1 CL   UNL     1      35.531 -19.590 -21.188  0.00  0.00    -0.082 Cl
ATOM      2  C   UNL     1      34.925 -16.372 -23.486  0.00  0.00    +0.135 C 
ATOM      3  C   UNL     1      35.212 -17.192 -22.394  0.00  0.00    +0.048 C 
ATOM      4  C   UNL     1      34.603 -16.941 -24.718  0.00  0.00    +0.037 C 
ATOM      5  C   UNL     1      35.177 -18.579 -22.535  0.00  0.00    +0.061 C 
ATOM      6  C   UNL     1      34.568 -18.328 -24.859  0.00  0.00    +0.004 C 
ATOM      7  C   UNL     1      34.855 -19.147 -23.767  0.00  0.00    +0.012 C 
ENDROOT
BRANCH   2   8
ATOM      8  O   UNL     1      34.960 -15.019 -23.349  0.00  0.00    -0.505 OA
ATOM      9  H   UNL     1      35.734 -14.600 -23.029  0.00  0.00    +0.292 HD
ENDBRANCH   2   8
TORSDOF 1
ENDMDL
MODEL 8
REMARK VINA RESULT:      -5.1      5.033      5.953
REMARK  Name = 7933
REMARK  1 active torsions:
REMARK  status: ('A' for Active; 'I' for Inactive)
REMARK    1  A    between atoms: C_2  and  O_8
REMARK                            x       y       z     vdW  Elec       q    Type
REMARK                         _______ _______ _______ _____ _____    ______ ____
ROOT
ATOM      1 CL   UNL     1      35.370 -18.346 -23.766  0.00  0.00    -0.082 Cl
ATOM      2  C   UNL     1      34.471 -14.602 -22.683  0.00  0.00    +0.135 C 
ATOM      3  C   UNL     1      34.784 -15.726 -23.447  0.00  0.00    +0.048 C 
ATOM      4  C   UNL     1      34.358 -14.710 -21.297  0.00  0.00    +0.037 C 
ATOM      5  C   UNL     1      34.984 -16.958 -22.824  0.00  0.00    +0.061 C 
ATOM      6  C   UNL     1      34.558 -15.942 -20.674  0.00  0.00    +0.004 C 
ATOM      7  C   UNL     1      34.871 -17.066 -21.438  0.00  0.00    +0.012 C 
ENDROOT
BRANCH   2   8
ATOM      8  O   UNL     1      34.276 -13.400 -23.290  0.00  0.00    -0.505 OA
ATOM      9  H   UNL     1      34.868 -13.109 -23.956  0.00  0.00    +0.292 HD
ENDBRANCH   2   8
TORSDOF 1
ENDMDL
MODEL 9
REMARK VINA RESULT:      -5.1      2.839      3.773
REMARK  Name = 7933
REMARK  1 active torsions:
REMARK  status: ('A' for Active; 'I' for Inactive)
REMARK    1  A    between atoms: C_2  and  O_8
REMARK                            x       y       z     vdW  Elec       q    Type
REMARK                         _______ _______ _______ _____ _____    ______ ____
ROOT
ATOM      1 CL   UNL     1      33.430 -22.066 -19.208  0.00  0.00    -0.082 Cl
ATOM      2  C   UNL     1      34.847 -18.941 -21.266  0.00  0.00    +0.135 C 
ATOM      3  C   UNL     1      33.983 -19.875 -20.693  0.00  0.00    +0.048 C 
ATOM      4  C   UNL     1      36.223 -19.048 -21.062  0.00  0.00    +0.037 C 
ATOM      5  C   UNL     1      34.496 -20.914 -19.916  0.00  0.00    +0.061 C 
ATOM      6  C   UNL     1      36.735 -20.087 -20.285  0.00  0.00    +0.004 C 
ATOM      7  C   UNL     1      35.871 -21.020 -19.712  0.00  0.00    +0.012 C 
ENDROOT
BRANCH   2   8
ATOM      8  O   UNL     1      34.348 -17.928 -22.024  0.00  0.00    -0.505 OA
ATOM      9  H   UNL     1      34.879 -17.533 -22.687  0.00  0.00    +0.292 HD
ENDBRANCH   2   8
TORSDOF 1
ENDMDL
