MODEL 1
REMARK VINA RESULT:      -8.8      0.000      0.000
REMARK  Name = 64972
REMARK  3 active torsions:
REMARK  status: ('A' for Active; 'I' for Inactive)
REMARK    1  A    between atoms: C_6  and  O_24
REMARK    2  A    between atoms: C_17  and  C_26
REMARK    3  A    between atoms: C_26  and  C_27
REMARK                            x       y       z     vdW  Elec       q    Type
REMARK                         _______ _______ _______ _____ _____    ______ ____
ROOT
ATOM      1  O   UNL     1      32.567 -21.454 -19.077  0.00  0.00    -0.479 OA
ATOM      2  O   UNL     1      32.349 -23.799 -14.905  0.00  0.00    -0.478 OA
ATOM      3  O   UNL     1      36.644 -22.694 -16.822  0.00  0.00    -0.421 OA
ATOM      4  O   UNL     1      38.600 -23.201 -15.759  0.00  0.00    -0.244 OA
ATOM      5  C   UNL     1      34.622 -21.124 -20.324  0.00  0.00    +0.071 C 
ATOM      6  C   UNL     1      35.472 -21.542 -19.110  0.00  0.00    +0.142 C 
ATOM      7  C   UNL     1      33.328 -20.482 -19.810  0.00  0.00    +0.169 C 
ATOM      8  C   UNL     1      34.632 -22.126 -17.994  0.00  0.00    +0.073 A 
ATOM      9  C   UNL     1      33.237 -22.059 -18.041  0.00  0.00    +0.142 A 
ATOM     10  C   UNL     1      32.458 -22.641 -17.026  0.00  0.00    +0.068 A 
ATOM     11  C   UNL     1      35.226 -22.719 -16.863  0.00  0.00    +0.152 A 
ATOM     12  C   UNL     1      34.494 -23.297 -15.815  0.00  0.00    +0.065 A 
ATOM     13  C   UNL     1      33.088 -23.261 -15.927  0.00  0.00    +0.144 A 
ATOM     14  C   UNL     1      35.429 -20.209 -21.249  0.00  0.00    +0.007 C 
ATOM     15  C   UNL     1      30.956 -24.102 -15.108  0.00  0.00    +0.152 C 
ATOM     16  C   UNL     1      32.415 -19.985 -20.927  0.00  0.00    +0.047 C 
ATOM     17  C   UNL     1      35.259 -23.895 -14.693  0.00  0.00    -0.010 C 
ATOM     18  C   UNL     1      30.997 -22.588 -17.075  0.00  0.00    +0.005 C 
ATOM     19  C   UNL     1      30.294 -23.285 -16.182  0.00  0.00    +0.013 C 
ATOM     20  C   UNL     1      30.273 -23.822 -13.765  0.00  0.00    +0.048 C 
ATOM     21  C   UNL     1      30.846 -25.596 -15.437  0.00  0.00    +0.048 C 
ATOM     22  C   UNL     1      36.600 -23.851 -14.705  0.00  0.00    +0.078 C 
ATOM     23  C   UNL     1      37.376 -23.232 -15.784  0.00  0.00    +0.346 C 
ENDROOT
BRANCH   6  24
ATOM     24  O   UNL     1      36.454 -22.475 -19.569  0.00  0.00    -0.380 OA
ATOM     25  H   UNL     1      36.011 -23.223 -19.999  0.00  0.00    +0.211 HD
ENDBRANCH   6  24
BRANCH  17  26
ATOM     26  C   UNL     1      34.574 -24.563 -13.533  0.00  0.00    +0.027 C 
BRANCH  26  27
ATOM     27  C   UNL     1      34.895 -23.841 -12.234  0.00  0.00    +0.005 C 
ATOM     28  C   UNL     1      35.688 -24.702 -11.261  0.00  0.00    +0.000 C 
ENDBRANCH  26  27
ENDBRANCH  17  26
TORSDOF 3
ENDMDL
MODEL 2
REMARK VINA RESULT:      -8.6      1.476      5.605
REMARK  Name = 64972
REMARK  3 active torsions:
REMARK  status: ('A' for Active; 'I' for Inactive)
REMARK    1  A    between atoms: C_6  and  O_24
REMARK    2  A    between atoms: C_17  and  C_26
REMARK    3  A    between atoms: C_26  and  C_27
REMARK                            x       y       z     vdW  Elec       q    Type
REMARK                         _______ _______ _______ _____ _____    ______ ____
ROOT
ATOM      1  O   UNL     1      35.529 -24.972 -13.720  0.00  0.00    -0.479 OA
ATOM      2  O   UNL     1      32.075 -23.286 -16.579  0.00  0.00    -0.478 OA
ATOM      3  O   UNL     1      36.710 -22.439 -17.648  0.00  0.00    -0.421 OA
ATOM      4  O   UNL     1      37.321 -21.302 -19.532  0.00  0.00    -0.244 OA
ATOM      5  C   UNL     1      37.866 -24.355 -13.933  0.00  0.00    +0.071 C 
ATOM      6  C   UNL     1      37.620 -23.748 -15.326  0.00  0.00    +0.142 C 
ATOM      7  C   UNL     1      36.866 -25.497 -13.720  0.00  0.00    +0.169 C 
ATOM      8  C   UNL     1      36.145 -23.643 -15.655  0.00  0.00    +0.073 A 
ATOM      9  C   UNL     1      35.188 -24.248 -14.837  0.00  0.00    +0.142 A 
ATOM     10  C   UNL     1      33.817 -24.112 -15.120  0.00  0.00    +0.068 A 
ATOM     11  C   UNL     1      35.698 -22.968 -16.808  0.00  0.00    +0.152 A 
ATOM     12  C   UNL     1      34.344 -22.821 -17.144  0.00  0.00    +0.065 A 
ATOM     13  C   UNL     1      33.404 -23.396 -16.262  0.00  0.00    +0.144 A 
ATOM     14  C   UNL     1      39.327 -24.792 -13.793  0.00  0.00    +0.007 C 
ATOM     15  C   UNL     1      31.073 -23.537 -15.577  0.00  0.00    +0.152 C 
ATOM     16  C   UNL     1      37.039 -26.210 -12.381  0.00  0.00    +0.047 C 
ATOM     17  C   UNL     1      34.024 -22.074 -18.385  0.00  0.00    -0.010 C 
ATOM     18  C   UNL     1      32.807 -24.730 -14.260  0.00  0.00    +0.005 C 
ATOM     19  C   UNL     1      31.521 -24.448 -14.469  0.00  0.00    +0.013 C 
ATOM     20  C   UNL     1      29.898 -24.182 -16.320  0.00  0.00    +0.048 C 
ATOM     21  C   UNL     1      30.636 -22.183 -15.004  0.00  0.00    +0.048 C 
ATOM     22  C   UNL     1      35.019 -21.587 -19.142  0.00  0.00    +0.078 C 
ATOM     23  C   UNL     1      36.437 -21.752 -18.812  0.00  0.00    +0.346 C 
ENDROOT
BRANCH   6  24
ATOM     24  O   UNL     1      38.255 -22.468 -15.359  0.00  0.00    -0.380 OA
ATOM     25  H   UNL     1      39.107 -22.542 -15.817  0.00  0.00    +0.211 HD
ENDBRANCH   6  24
BRANCH  17  26
ATOM     26  C   UNL     1      32.605 -21.836 -18.824  0.00  0.00    +0.027 C 
BRANCH  26  27
ATOM     27  C   UNL     1      32.567 -21.302 -20.247  0.00  0.00    +0.005 C 
ATOM     28  C   UNL     1      32.609 -19.783 -20.308  0.00  0.00    +0.000 C 
ENDBRANCH  26  27
ENDBRANCH  17  26
TORSDOF 3
ENDMDL
MODEL 3
REMARK VINA RESULT:      -8.2      1.850      5.331
REMARK  Name = 64972
REMARK  3 active torsions:
REMARK  status: ('A' for Active; 'I' for Inactive)
REMARK    1  A    between atoms: C_6  and  O_24
REMARK    2  A    between atoms: C_17  and  C_26
REMARK    3  A    between atoms: C_26  and  C_27
REMARK                            x       y       z     vdW  Elec       q    Type
REMARK                         _______ _______ _______ _____ _____    ______ ____
ROOT
ATOM      1  O   UNL     1      32.199 -24.001 -13.820  0.00  0.00    -0.479 OA
ATOM      2  O   UNL     1      36.983 -23.845 -13.623  0.00  0.00    -0.478 OA
ATOM      3  O   UNL     1      34.686 -22.311 -17.588  0.00  0.00    -0.421 OA
ATOM      4  O   UNL     1      35.817 -21.441 -19.370  0.00  0.00    -0.244 OA
ATOM      5  C   UNL     1      30.926 -23.587 -15.843  0.00  0.00    +0.071 C 
ATOM      6  C   UNL     1      32.159 -22.990 -16.544  0.00  0.00    +0.142 C 
ATOM      7  C   UNL     1      31.047 -23.318 -14.339  0.00  0.00    +0.169 C 
ATOM      8  C   UNL     1      33.432 -23.209 -15.754  0.00  0.00    +0.073 A 
ATOM      9  C   UNL     1      33.384 -23.706 -14.449  0.00  0.00    +0.142 A 
ATOM     10  C   UNL     1      34.569 -23.952 -13.733  0.00  0.00    +0.068 A 
ATOM     11  C   UNL     1      34.694 -22.887 -16.291  0.00  0.00    +0.152 A 
ATOM     12  C   UNL     1      35.903 -23.094 -15.611  0.00  0.00    +0.065 A 
ATOM     13  C   UNL     1      35.817 -23.653 -14.319  0.00  0.00    +0.144 A 
ATOM     14  C   UNL     1      29.641 -23.026 -16.459  0.00  0.00    +0.007 C 
ATOM     15  C   UNL     1      36.999 -24.709 -12.472  0.00  0.00    +0.152 C 
ATOM     16  C   UNL     1      29.855 -23.829 -13.535  0.00  0.00    +0.047 C 
ATOM     17  C   UNL     1      37.156 -22.716 -16.310  0.00  0.00    -0.010 C 
ATOM     18  C   UNL     1      34.528 -24.486 -12.372  0.00  0.00    +0.005 C 
ATOM     19  C   UNL     1      35.669 -24.853 -11.787  0.00  0.00    +0.013 C 
ATOM     20  C   UNL     1      38.004 -24.080 -11.499  0.00  0.00    +0.048 C 
ATOM     21  C   UNL     1      37.513 -26.081 -12.924  0.00  0.00    +0.048 C 
ATOM     22  C   UNL     1      37.095 -22.181 -17.539  0.00  0.00    +0.078 C 
ATOM     23  C   UNL     1      35.837 -21.940 -18.252  0.00  0.00    +0.346 C 
ENDROOT
BRANCH   6  24
ATOM     24  O   UNL     1      32.244 -23.576 -17.845  0.00  0.00    -0.380 OA
ATOM     25  H   UNL     1      31.708 -24.384 -17.871  0.00  0.00    +0.211 HD
ENDBRANCH   6  24
BRANCH  17  26
ATOM     26  C   UNL     1      38.507 -22.920 -15.683  0.00  0.00    +0.027 C 
BRANCH  26  27
ATOM     27  C   UNL     1      38.985 -24.348 -15.894  0.00  0.00    +0.005 C 
ATOM     28  C   UNL     1      40.087 -24.750 -14.924  0.00  0.00    +0.000 C 
ENDBRANCH  26  27
ENDBRANCH  17  26
TORSDOF 3
ENDMDL
MODEL 4
REMARK VINA RESULT:      -8.2      1.452      4.573
REMARK  Name = 64972
REMARK  3 active torsions:
REMARK  status: ('A' for Active; 'I' for Inactive)
REMARK    1  A    between atoms: C_6  and  O_24
REMARK    2  A    between atoms: C_17  and  C_26
REMARK    3  A    between atoms: C_26  and  C_27
REMARK                            x       y       z     vdW  Elec       q    Type
REMARK                         _______ _______ _______ _____ _____    ______ ____
ROOT
ATOM      1  O   UNL     1      36.072 -21.931 -18.432  0.00  0.00    -0.479 OA
ATOM      2  O   UNL     1      34.761 -24.330 -14.499  0.00  0.00    -0.478 OA
ATOM      3  O   UNL     1      31.400 -22.787 -17.607  0.00  0.00    -0.421 OA
ATOM      4  O   UNL     1      29.181 -23.227 -17.294  0.00  0.00    -0.244 OA
ATOM      5  C   UNL     1      34.502 -20.810 -19.904  0.00  0.00    +0.071 C 
ATOM      6  C   UNL     1      33.313 -21.543 -19.259  0.00  0.00    +0.142 C 
ATOM      7  C   UNL     1      35.736 -21.715 -19.812  0.00  0.00    +0.169 C 
ATOM      8  C   UNL     1      33.711 -22.292 -18.004  0.00  0.00    +0.073 A 
ATOM      9  C   UNL     1      35.056 -22.437 -17.657  0.00  0.00    +0.142 A 
ATOM     10  C   UNL     1      35.422 -23.093 -16.469  0.00  0.00    +0.068 A 
ATOM     11  C   UNL     1      32.746 -22.893 -17.172  0.00  0.00    +0.152 A 
ATOM     12  C   UNL     1      33.060 -23.575 -15.988  0.00  0.00    +0.065 A 
ATOM     13  C   UNL     1      34.426 -23.650 -15.640  0.00  0.00    +0.144 A 
ATOM     14  C   UNL     1      34.158 -20.396 -21.338  0.00  0.00    +0.007 C 
ATOM     15  C   UNL     1      36.065 -24.153 -13.914  0.00  0.00    +0.152 C 
ATOM     16  C   UNL     1      36.979 -21.111 -20.460  0.00  0.00    +0.047 C 
ATOM     17  C   UNL     1      31.935 -24.147 -15.208  0.00  0.00    -0.010 C 
ATOM     18  C   UNL     1      36.828 -23.237 -16.091  0.00  0.00    +0.005 C 
ATOM     19  C   UNL     1      37.127 -23.722 -14.886  0.00  0.00    +0.013 C 
ATOM     20  C   UNL     1      36.441 -25.518 -13.325  0.00  0.00    +0.048 C 
ATOM     21  C   UNL     1      35.934 -23.126 -12.783  0.00  0.00    +0.048 C 
ATOM     22  C   UNL     1      30.679 -24.014 -15.659  0.00  0.00    +0.078 C 
ATOM     23  C   UNL     1      30.340 -23.322 -16.906  0.00  0.00    +0.346 C 
ENDROOT
BRANCH   6  24
ATOM     24  O   UNL     1      32.300 -20.571 -18.989  0.00  0.00    -0.380 OA
ATOM     25  H   UNL     1      31.620 -20.964 -18.419  0.00  0.00    +0.211 HD
ENDBRANCH   6  24
BRANCH  17  26
ATOM     26  C   UNL     1      32.158 -24.875 -13.910  0.00  0.00    +0.027 C 
BRANCH  26  27
ATOM     27  C   UNL     1      30.844 -25.066 -13.171  0.00  0.00    +0.005 C 
ATOM     28  C   UNL     1      30.408 -23.822 -12.411  0.00  0.00    +0.000 C 
ENDBRANCH  26  27
ENDBRANCH  17  26
TORSDOF 3
ENDMDL
MODEL 5
REMARK VINA RESULT:      -7.2      1.438      4.483
REMARK  Name = 64972
REMARK  3 active torsions:
REMARK  status: ('A' for Active; 'I' for Inactive)
REMARK    1  A    between atoms: C_6  and  O_24
REMARK    2  A    between atoms: C_17  and  C_26
REMARK    3  A    between atoms: C_26  and  C_27
REMARK                            x       y       z     vdW  Elec       q    Type
REMARK                         _______ _______ _______ _____ _____    ______ ____
ROOT
ATOM      1  O   UNL     1      36.115 -21.118 -19.188  0.00  0.00    -0.479 OA
ATOM      2  O   UNL     1      35.739 -23.820 -15.251  0.00  0.00    -0.478 OA
ATOM      3  O   UNL     1      31.777 -22.658 -17.759  0.00  0.00    -0.421 OA
ATOM      4  O   UNL     1      29.708 -23.419 -17.160  0.00  0.00    -0.244 OA
ATOM      5  C   UNL     1      34.208 -20.178 -20.357  0.00  0.00    +0.071 C 
ATOM      6  C   UNL     1      33.237 -21.096 -19.592  0.00  0.00    +0.142 C 
ATOM      7  C   UNL     1      35.553 -20.902 -20.492  0.00  0.00    +0.169 C 
ATOM      8  C   UNL     1      33.914 -21.825 -18.451  0.00  0.00    +0.073 A 
ATOM      9  C   UNL     1      35.303 -21.791 -18.307  0.00  0.00    +0.142 A 
ATOM     10  C   UNL     1      35.926 -22.431 -17.222  0.00  0.00    +0.068 A 
ATOM     11  C   UNL     1      33.174 -22.587 -17.526  0.00  0.00    +0.152 A 
ATOM     12  C   UNL     1      33.749 -23.260 -16.438  0.00  0.00    +0.065 A 
ATOM     13  C   UNL     1      35.148 -23.153 -16.293  0.00  0.00    +0.144 A 
ATOM     14  C   UNL     1      33.602 -19.766 -21.702  0.00  0.00    +0.007 C 
ATOM     15  C   UNL     1      37.079 -23.481 -14.847  0.00  0.00    +0.152 C 
ATOM     16  C   UNL     1      36.593 -20.105 -21.275  0.00  0.00    +0.047 C 
ATOM     17  C   UNL     1      32.840 -24.014 -15.540  0.00  0.00    -0.010 C 
ATOM     18  C   UNL     1      37.379 -22.387 -17.056  0.00  0.00    +0.005 C 
ATOM     19  C   UNL     1      37.916 -22.869 -15.935  0.00  0.00    +0.013 C 
ATOM     20  C   UNL     1      37.719 -24.799 -14.396  0.00  0.00    +0.048 C 
ATOM     21  C   UNL     1      36.980 -22.525 -13.653  0.00  0.00    +0.048 C 
ATOM     22  C   UNL     1      31.524 -24.044 -15.801  0.00  0.00    +0.078 C 
ATOM     23  C   UNL     1      30.913 -23.362 -16.946  0.00  0.00    +0.346 C 
ENDROOT
BRANCH   6  24
ATOM     24  O   UNL     1      32.153 -20.288 -19.127  0.00  0.00    -0.380 OA
ATOM     25  H   UNL     1      31.340 -20.541 -19.592  0.00  0.00    +0.211 HD
ENDBRANCH   6  24
BRANCH  17  26
ATOM     26  C   UNL     1      33.349 -24.749 -14.331  0.00  0.00    +0.027 C 
BRANCH  26  27
ATOM     27  C   UNL     1      33.408 -23.823 -13.127  0.00  0.00    +0.005 C 
ATOM     28  C   UNL     1      34.492 -24.215 -12.134  0.00  0.00    +0.000 C 
ENDBRANCH  26  27
ENDBRANCH  17  26
TORSDOF 3
ENDMDL
MODEL 6
REMARK VINA RESULT:      -6.9      1.535      6.119
REMARK  Name = 64972
REMARK  3 active torsions:
REMARK  status: ('A' for Active; 'I' for Inactive)
REMARK    1  A    between atoms: C_6  and  O_24
REMARK    2  A    between atoms: C_17  and  C_26
REMARK    3  A    between atoms: C_26  and  C_27
REMARK                            x       y       z     vdW  Elec       q    Type
REMARK                         _______ _______ _______ _____ _____    ______ ____
ROOT
ATOM      1  O   UNL     1      31.786 -24.161 -13.952  0.00  0.00    -0.479 OA
ATOM      2  O   UNL     1      36.187 -23.332 -15.651  0.00  0.00    -0.478 OA
ATOM      3  O   UNL     1      32.324 -22.148 -18.299  0.00  0.00    -0.421 OA
ATOM      4  O   UNL     1      32.528 -21.132 -20.334  0.00  0.00    -0.244 OA
ATOM      5  C   UNL     1      29.770 -23.935 -15.284  0.00  0.00    +0.071 C 
ATOM      6  C   UNL     1      30.533 -23.173 -16.382  0.00  0.00    +0.142 C 
ATOM      7  C   UNL     1      30.445 -23.647 -13.937  0.00  0.00    +0.169 C 
ATOM      8  C   UNL     1      32.033 -23.209 -16.170  0.00  0.00    +0.073 A 
ATOM      9  C   UNL     1      32.573 -23.703 -14.981  0.00  0.00    +0.142 A 
ATOM     10  C   UNL     1      33.966 -23.778 -14.805  0.00  0.00    +0.068 A 
ATOM     11  C   UNL     1      32.922 -22.713 -17.144  0.00  0.00    +0.152 A 
ATOM     12  C   UNL     1      34.318 -22.746 -17.008  0.00  0.00    +0.065 A 
ATOM     13  C   UNL     1      34.827 -23.308 -15.818  0.00  0.00    +0.144 A 
ATOM     14  C   UNL     1      28.285 -23.563 -15.311  0.00  0.00    +0.007 C 
ATOM     15  C   UNL     1      36.773 -24.182 -14.647  0.00  0.00    +0.152 C 
ATOM     16  C   UNL     1      29.748 -24.319 -12.757  0.00  0.00    +0.047 C 
ATOM     17  C   UNL     1      35.128 -22.198 -18.123  0.00  0.00    -0.010 C 
ATOM     18  C   UNL     1      34.541 -24.309 -13.569  0.00  0.00    +0.005 C 
ATOM     19  C   UNL     1      35.857 -24.510 -13.502  0.00  0.00    +0.013 C 
ATOM     20  C   UNL     1      37.991 -23.416 -14.118  0.00  0.00    +0.048 C 
ATOM     21  C   UNL     1      37.238 -25.469 -15.338  0.00  0.00    +0.048 C 
ATOM     22  C   UNL     1      34.513 -21.680 -19.198  0.00  0.00    +0.078 C 
ATOM     23  C   UNL     1      33.056 -21.621 -19.343  0.00  0.00    +0.346 C 
ENDROOT
BRANCH   6  24
ATOM     24  O   UNL     1      30.169 -23.744 -17.640  0.00  0.00    -0.380 OA
ATOM     25  H   UNL     1      29.224 -23.966 -17.632  0.00  0.00    +0.211 HD
ENDBRANCH   6  24
BRANCH  17  26
ATOM     26  C   UNL     1      36.631 -22.208 -18.092  0.00  0.00    +0.027 C 
BRANCH  26  27
ATOM     27  C   UNL     1      37.182 -20.817 -18.359  0.00  0.00    +0.005 C 
ATOM     28  C   UNL     1      37.177 -20.453 -19.836  0.00  0.00    +0.000 C 
ENDBRANCH  26  27
ENDBRANCH  17  26
TORSDOF 3
ENDMDL
MODEL 7
REMARK VINA RESULT:      -6.7     12.162     15.058
REMARK  Name = 64972
REMARK  3 active torsions:
REMARK  status: ('A' for Active; 'I' for Inactive)
REMARK    1  A    between atoms: C_6  and  O_24
REMARK    2  A    between atoms: C_17  and  C_26
REMARK    3  A    between atoms: C_26  and  C_27
REMARK                            x       y       z     vdW  Elec       q    Type
REMARK                         _______ _______ _______ _____ _____    ______ ____
ROOT
ATOM      1  O   UNL     1      32.924 -13.004 -24.042  0.00  0.00    -0.479 OA
ATOM      2  O   UNL     1      31.750  -9.689 -20.789  0.00  0.00    -0.478 OA
ATOM      3  O   UNL     1      34.039  -8.383 -24.839  0.00  0.00    -0.421 OA
ATOM      4  O   UNL     1      34.528  -6.199 -25.291  0.00  0.00    -0.244 OA
ATOM      5  C   UNL     1      34.356 -12.563 -25.950  0.00  0.00    +0.071 C 
ATOM      6  C   UNL     1      34.226 -11.043 -25.745  0.00  0.00    +0.142 C 
ATOM      7  C   UNL     1      33.067 -13.230 -25.453  0.00  0.00    +0.169 C 
ATOM      8  C   UNL     1      33.555 -10.695 -24.434  0.00  0.00    +0.073 A 
ATOM      9  C   UNL     1      32.952 -11.686 -23.656  0.00  0.00    +0.142 A 
ATOM     10  C   UNL     1      32.369 -11.367 -22.417  0.00  0.00    +0.068 A 
ATOM     11  C   UNL     1      33.484  -9.364 -23.977  0.00  0.00    +0.152 A 
ATOM     12  C   UNL     1      32.896  -8.991 -22.759  0.00  0.00    +0.065 A 
ATOM     13  C   UNL     1      32.350 -10.029 -21.974  0.00  0.00    +0.144 A 
ATOM     14  C   UNL     1      34.677 -12.878 -27.413  0.00  0.00    +0.007 C 
ATOM     15  C   UNL     1      31.489 -10.702 -19.799  0.00  0.00    +0.152 C 
ATOM     16  C   UNL     1      33.058 -14.744 -25.642  0.00  0.00    +0.047 C 
ATOM     17  C   UNL     1      32.907  -7.551 -22.405  0.00  0.00    -0.010 C 
ATOM     18  C   UNL     1      31.749 -12.402 -21.589  0.00  0.00    +0.005 C 
ATOM     19  C   UNL     1      31.349 -12.090 -20.356  0.00  0.00    +0.013 C 
ATOM     20  C   UNL     1      30.175 -10.290 -19.126  0.00  0.00    +0.048 C 
ATOM     21  C   UNL     1      32.628 -10.656 -18.773  0.00  0.00    +0.048 C 
ATOM     22  C   UNL     1      33.450  -6.663 -23.253  0.00  0.00    +0.078 C 
ATOM     23  C   UNL     1      34.049  -7.037 -24.537  0.00  0.00    +0.346 C 
ENDROOT
BRANCH   6  24
ATOM     24  O   UNL     1      35.538 -10.482 -25.827  0.00  0.00    -0.380 OA
ATOM     25  H   UNL     1      35.612  -9.742 -25.203  0.00  0.00    +0.211 HD
ENDBRANCH   6  24
BRANCH  17  26
ATOM     26  C   UNL     1      32.327  -7.047 -21.113  0.00  0.00    +0.027 C 
BRANCH  26  27
ATOM     27  C   UNL     1      31.848  -5.612 -21.263  0.00  0.00    +0.005 C 
ATOM     28  C   UNL     1      30.430  -5.517 -21.805  0.00  0.00    +0.000 C 
ENDBRANCH  26  27
ENDBRANCH  17  26
TORSDOF 3
ENDMDL
MODEL 8
REMARK VINA RESULT:      -6.4     10.291     14.107
REMARK  Name = 64972
REMARK  3 active torsions:
REMARK  status: ('A' for Active; 'I' for Inactive)
REMARK    1  A    between atoms: C_6  and  O_24
REMARK    2  A    between atoms: C_17  and  C_26
REMARK    3  A    between atoms: C_26  and  C_27
REMARK                            x       y       z     vdW  Elec       q    Type
REMARK                         _______ _______ _______ _____ _____    ______ ____
ROOT
ATOM      1  O   UNL     1      32.929  -8.350 -24.311  0.00  0.00    -0.479 OA
ATOM      2  O   UNL     1      32.730 -13.087 -23.632  0.00  0.00    -0.478 OA
ATOM      3  O   UNL     1      31.755 -10.088 -19.971  0.00  0.00    -0.421 OA
ATOM      4  O   UNL     1      31.130 -10.864 -17.916  0.00  0.00    -0.244 OA
ATOM      5  C   UNL     1      32.797  -6.730 -22.510  0.00  0.00    +0.071 C 
ATOM      6  C   UNL     1      32.296  -7.804 -21.528  0.00  0.00    +0.142 C 
ATOM      7  C   UNL     1      32.326  -7.107 -23.920  0.00  0.00    +0.169 C 
ATOM      8  C   UNL     1      32.401  -9.202 -22.101  0.00  0.00    +0.073 A 
ATOM      9  C   UNL     1      32.717  -9.398 -23.448  0.00  0.00    +0.142 A 
ATOM     10  C   UNL     1      32.859 -10.696 -23.968  0.00  0.00    +0.068 A 
ATOM     11  C   UNL     1      32.150 -10.340 -21.310  0.00  0.00    +0.152 A 
ATOM     12  C   UNL     1      32.259 -11.655 -21.786  0.00  0.00    +0.065 A 
ATOM     13  C   UNL     1      32.637 -11.813 -23.136  0.00  0.00    +0.144 A 
ATOM     14  C   UNL     1      32.329  -5.342 -22.064  0.00  0.00    +0.007 C 
ATOM     15  C   UNL     1      33.429 -13.330 -24.866  0.00  0.00    +0.152 C 
ATOM     16  C   UNL     1      32.728  -6.088 -24.983  0.00  0.00    +0.047 C 
ATOM     17  C   UNL     1      31.974 -12.754 -20.832  0.00  0.00    -0.010 C 
ATOM     18  C   UNL     1      33.205 -10.910 -25.374  0.00  0.00    +0.005 C 
ATOM     19  C   UNL     1      33.484 -12.145 -25.790  0.00  0.00    +0.013 C 
ATOM     20  C   UNL     1      32.671 -14.472 -25.553  0.00  0.00    +0.048 C 
ATOM     21  C   UNL     1      34.848 -13.794 -24.516  0.00  0.00    +0.048 C 
ATOM     22  C   UNL     1      31.610 -12.464 -19.573  0.00  0.00    +0.078 C 
ATOM     23  C   UNL     1      31.473 -11.094 -19.070  0.00  0.00    +0.346 C 
ENDROOT
BRANCH   6  24
ATOM     24  O   UNL     1      33.052  -7.675 -20.322  0.00  0.00    -0.380 OA
ATOM     25  H   UNL     1      33.288  -6.744 -20.187  0.00  0.00    +0.211 HD
ENDBRANCH   6  24
BRANCH  17  26
ATOM     26  C   UNL     1      32.086 -14.200 -21.230  0.00  0.00    +0.027 C 
BRANCH  26  27
ATOM     27  C   UNL     1      33.055 -14.934 -20.316  0.00  0.00    +0.005 C 
ATOM     28  C   UNL     1      34.478 -14.948 -20.854  0.00  0.00    +0.000 C 
ENDBRANCH  26  27
ENDBRANCH  17  26
TORSDOF 3
ENDMDL
MODEL 9
REMARK VINA RESULT:      -6.3      7.579     12.637
REMARK  Name = 64972
REMARK  3 active torsions:
REMARK  status: ('A' for Active; 'I' for Inactive)
REMARK    1  A    between atoms: C_6  and  O_24
REMARK    2  A    between atoms: C_17  and  C_26
REMARK    3  A    between atoms: C_26  and  C_27
REMARK                            x       y       z     vdW  Elec       q    Type
REMARK                         _______ _______ _______ _____ _____    ______ ____
ROOT
ATOM      1  O   UNL     1      34.122 -17.021 -23.800  0.00  0.00    -0.479 OA
ATOM      2  O   UNL     1      33.358 -12.548 -25.333  0.00  0.00    -0.478 OA
ATOM      3  O   UNL     1      32.444 -13.704 -20.732  0.00  0.00    -0.421 OA
ATOM      4  O   UNL     1      31.711 -12.151 -19.226  0.00  0.00    -0.244 OA
ATOM      5  C   UNL     1      33.404 -17.836 -21.630  0.00  0.00    +0.071 C 
ATOM      6  C   UNL     1      33.139 -16.403 -21.136  0.00  0.00    +0.142 C 
ATOM      7  C   UNL     1      34.539 -17.790 -22.661  0.00  0.00    +0.169 C 
ATOM      8  C   UNL     1      33.214 -15.386 -22.255  0.00  0.00    +0.073 A 
ATOM      9  C   UNL     1      33.690 -15.748 -23.517  0.00  0.00    +0.142 A 
ATOM     10  C   UNL     1      33.716 -14.814 -24.567  0.00  0.00    +0.068 A 
ATOM     11  C   UNL     1      32.844 -14.042 -22.050  0.00  0.00    +0.152 A 
ATOM     12  C   UNL     1      32.871 -13.067 -23.058  0.00  0.00    +0.065 A 
ATOM     13  C   UNL     1      33.302 -13.486 -24.335  0.00  0.00    +0.144 A 
ATOM     14  C   UNL     1      33.696 -18.762 -20.446  0.00  0.00    +0.007 C 
ATOM     15  C   UNL     1      33.451 -12.965 -26.708  0.00  0.00    +0.152 C 
ATOM     16  C   UNL     1      34.925 -19.166 -23.197  0.00  0.00    +0.047 C 
ATOM     17  C   UNL     1      32.441 -11.695 -22.696  0.00  0.00    -0.010 C 
ATOM     18  C   UNL     1      34.199 -15.189 -25.897  0.00  0.00    +0.005 C 
ATOM     19  C   UNL     1      34.062 -14.325 -26.902  0.00  0.00    +0.013 C 
ATOM     20  C   UNL     1      34.327 -11.914 -27.400  0.00  0.00    +0.048 C 
ATOM     21  C   UNL     1      32.039 -12.929 -27.304  0.00  0.00    +0.048 C 
ATOM     22  C   UNL     1      32.065 -11.427 -21.436  0.00  0.00    +0.078 C 
ATOM     23  C   UNL     1      32.052 -12.432 -20.369  0.00  0.00    +0.346 C 
ENDROOT
BRANCH   6  24
ATOM     24  O   UNL     1      31.856 -16.393 -20.505  0.00  0.00    -0.380 OA
ATOM     25  H   UNL     1      31.239 -16.936 -21.020  0.00  0.00    +0.211 HD
ENDBRANCH   6  24
BRANCH  17  26
ATOM     26  C   UNL     1      32.407 -10.581 -23.707  0.00  0.00    +0.027 C 
BRANCH  26  27
ATOM     27  C   UNL     1      33.419  -9.504 -23.351  0.00  0.00    +0.005 C 
ATOM     28  C   UNL     1      34.683  -9.580 -24.195  0.00  0.00    +0.000 C 
ENDBRANCH  26  27
ENDBRANCH  17  26
TORSDOF 3
ENDMDL
