MODEL 1
REMARK VINA RESULT:     -10.5      0.000      0.000
REMARK  Name = 10024590
REMARK  7 active torsions:
REMARK  status: ('A' for Active; 'I' for Inactive)
REMARK    1  A    between atoms: C_5  and  C_12
REMARK    2  A    between atoms: C_8  and  C_17
REMARK    3  A    between atoms: C_12  and  C_16
REMARK    4  A    between atoms: C_17  and  C_18
REMARK    5  A    between atoms: C_18  and  N_19
REMARK    6  A    between atoms: C_18  and  C_23
REMARK    7  A    between atoms: C_23  and  C_27
REMARK                            x       y       z     vdW  Elec       q    Type
REMARK                         _______ _______ _______ _____ _____    ______ ____
ROOT
ATOM      1  O   UNL     1      37.882 -22.259 -16.017  0.00  0.00    -0.275 OA
ATOM      2  O   UNL     1      37.917 -22.774 -12.531  0.00  0.00    -0.273 OA
ATOM      3  N   UNL     1      36.352 -23.873 -15.302  0.00  0.00    -0.273 N 
ATOM      4  N   UNL     1      35.698 -23.318 -12.514  0.00  0.00    -0.303 N 
ATOM      5  C   UNL     1      37.179 -24.370 -14.187  0.00  0.00    +0.160 C 
ATOM      6  C   UNL     1      35.006 -24.454 -15.387  0.00  0.00    +0.096 C 
ATOM      7  C   UNL     1      34.074 -23.857 -14.331  0.00  0.00    +0.043 C 
ATOM      8  C   UNL     1      36.760 -22.769 -16.065  0.00  0.00    +0.224 C 
ATOM      9  C   UNL     1      34.544 -24.120 -12.901  0.00  0.00    +0.091 C 
ATOM     10  C   UNL     1      36.981 -23.411 -13.018  0.00  0.00    +0.241 C 
ATOM     11  H   UNL     1      35.547 -22.639 -11.817  0.00  0.00    +0.149 HD
ENDROOT
BRANCH   5  12
ATOM     12  C   UNL     1      38.645 -24.604 -14.542  0.00  0.00    +0.132 C 
BRANCH  12  16
ATOM     13  F   UNL     1      40.409 -26.176 -14.426  0.00  0.00    -0.170 F 
ATOM     14  F   UNL     1      38.371 -26.936 -14.585  0.00  0.00    -0.170 F 
ATOM     15  F   UNL     1      39.056 -26.049 -12.715  0.00  0.00    -0.170 F 
ATOM     16  C   UNL     1      39.130 -25.950 -14.060  0.00  0.00    +0.400 C 
ENDBRANCH  12  16
ENDBRANCH   5  12
BRANCH   8  17
ATOM     17  C   UNL     1      35.734 -22.180 -17.004  0.00  0.00    +0.064 C 
BRANCH  17  18
ATOM     18  C   UNL     1      36.319 -21.925 -18.393  0.00  0.00    -0.052 C 
BRANCH  18  19
ATOM     19  N   UNL     1      36.887 -20.570 -18.381  0.00  0.00    +0.382 N 
ATOM     20  H   UNL     1      37.894 -20.625 -18.228  0.00  0.00    -0.089 HD
ATOM     21  H   UNL     1      36.458 -20.028 -17.631  0.00  0.00    -0.089 HD
ATOM     22  H   UNL     1      36.704 -20.117 -19.276  0.00  0.00    -0.089 HD
ENDBRANCH  18  19
BRANCH  18  23
ATOM     23  C   UNL     1      35.272 -22.005 -19.525  0.00  0.00    +0.007 C 
BRANCH  23  27
ATOM     24  F   UNL     1      32.751 -20.732 -19.615  0.00  0.00    -0.204 F 
ATOM     25  F   UNL     1      36.891 -18.303 -22.238  0.00  0.00    -0.202 F 
ATOM     26  F   UNL     1      34.403 -17.167 -22.251  0.00  0.00    -0.202 F 
ATOM     27  C   UNL     1      35.036 -20.706 -20.255  0.00  0.00    +0.006 C 
ATOM     28  C   UNL     1      33.770 -20.141 -20.254  0.00  0.00    +0.138 C 
ATOM     29  C   UNL     1      36.093 -20.099 -20.917  0.00  0.00    +0.030 C 
ATOM     30  C   UNL     1      35.879 -18.899 -21.593  0.00  0.00    +0.167 C 
ATOM     31  C   UNL     1      33.556 -18.941 -20.930  0.00  0.00    +0.061 C 
ATOM     32  C   UNL     1      34.610 -18.320 -21.599  0.00  0.00    +0.170 C 
ENDBRANCH  23  27
ENDBRANCH  18  23
ENDBRANCH  17  18
ENDBRANCH   8  17
TORSDOF 7
ENDMDL
MODEL 2
REMARK VINA RESULT:     -10.2      0.962      1.963
REMARK  Name = 10024590
REMARK  7 active torsions:
REMARK  status: ('A' for Active; 'I' for Inactive)
REMARK    1  A    between atoms: C_5  and  C_12
REMARK    2  A    between atoms: C_8  and  C_17
REMARK    3  A    between atoms: C_12  and  C_16
REMARK    4  A    between atoms: C_17  and  C_18
REMARK    5  A    between atoms: C_18  and  N_19
REMARK    6  A    between atoms: C_18  and  C_23
REMARK    7  A    between atoms: C_23  and  C_27
REMARK                            x       y       z     vdW  Elec       q    Type
REMARK                         _______ _______ _______ _____ _____    ______ ____
ROOT
ATOM      1  O   UNL     1      37.698 -22.215 -15.563  0.00  0.00    -0.275 OA
ATOM      2  O   UNL     1      36.705 -22.804 -12.234  0.00  0.00    -0.273 OA
ATOM      3  N   UNL     1      36.062 -23.869 -15.362  0.00  0.00    -0.273 N 
ATOM      4  N   UNL     1      34.595 -23.387 -12.887  0.00  0.00    -0.303 N 
ATOM      5  C   UNL     1      36.530 -24.377 -14.059  0.00  0.00    +0.160 C 
ATOM      6  C   UNL     1      34.816 -24.471 -15.853  0.00  0.00    +0.096 C 
ATOM      7  C   UNL     1      33.598 -23.914 -15.114  0.00  0.00    +0.043 C 
ATOM      8  C   UNL     1      36.653 -22.743 -15.952  0.00  0.00    +0.224 C 
ATOM      9  C   UNL     1      33.627 -24.199 -13.613  0.00  0.00    +0.091 C 
ATOM     10  C   UNL     1      35.971 -23.447 -12.987  0.00  0.00    +0.241 C 
ATOM     11  H   UNL     1      34.228 -22.725 -12.257  0.00  0.00    +0.149 HD
ENDROOT
BRANCH   5  12
ATOM     12  C   UNL     1      38.041 -24.578 -13.964  0.00  0.00    +0.132 C 
BRANCH  12  16
ATOM     13  F   UNL     1      38.182 -25.687 -11.880  0.00  0.00    -0.170 F 
ATOM     14  F   UNL     1      39.694 -26.141 -13.384  0.00  0.00    -0.170 F 
ATOM     15  F   UNL     1      37.661 -26.889 -13.629  0.00  0.00    -0.170 F 
ATOM     16  C   UNL     1      38.391 -25.834 -13.205  0.00  0.00    +0.400 C 
ENDBRANCH  12  16
ENDBRANCH   5  12
BRANCH   8  17
ATOM     17  C   UNL     1      35.940 -22.152 -17.144  0.00  0.00    +0.064 C 
BRANCH  17  18
ATOM     18  C   UNL     1      36.925 -21.653 -18.201  0.00  0.00    -0.052 C 
BRANCH  18  19
ATOM     19  N   UNL     1      37.151 -20.224 -17.944  0.00  0.00    +0.382 N 
ATOM     20  H   UNL     1      37.513 -20.102 -16.997  0.00  0.00    -0.089 HD
ATOM     21  H   UNL     1      36.270 -19.719 -18.038  0.00  0.00    -0.089 HD
ATOM     22  H   UNL     1      37.826 -19.860 -18.615  0.00  0.00    -0.089 HD
ENDBRANCH  18  19
BRANCH  18  23
ATOM     23  C   UNL     1      36.407 -21.812 -19.647  0.00  0.00    +0.007 C 
BRANCH  23  27
ATOM     24  F   UNL     1      37.730 -19.585 -20.777  0.00  0.00    -0.204 F 
ATOM     25  F   UNL     1      32.266 -19.431 -20.581  0.00  0.00    -0.202 F 
ATOM     26  F   UNL     1      33.661 -17.336 -21.653  0.00  0.00    -0.202 F 
ATOM     27  C   UNL     1      35.672 -20.609 -20.187  0.00  0.00    +0.006 C 
ATOM     28  C   UNL     1      36.391 -19.554 -20.727  0.00  0.00    +0.138 C 
ATOM     29  C   UNL     1      34.287 -20.581 -20.132  0.00  0.00    +0.030 C 
ATOM     30  C   UNL     1      33.605 -19.472 -20.629  0.00  0.00    +0.167 C 
ATOM     31  C   UNL     1      35.709 -18.445 -21.225  0.00  0.00    +0.061 C 
ATOM     32  C   UNL     1      34.316 -18.404 -21.177  0.00  0.00    +0.170 C 
ENDBRANCH  23  27
ENDBRANCH  18  23
ENDBRANCH  17  18
ENDBRANCH   8  17
TORSDOF 7
ENDMDL
MODEL 3
REMARK VINA RESULT:      -9.9     10.551     15.623
REMARK  Name = 10024590
REMARK  7 active torsions:
REMARK  status: ('A' for Active; 'I' for Inactive)
REMARK    1  A    between atoms: C_5  and  C_12
REMARK    2  A    between atoms: C_8  and  C_17
REMARK    3  A    between atoms: C_12  and  C_16
REMARK    4  A    between atoms: C_17  and  C_18
REMARK    5  A    between atoms: C_18  and  N_19
REMARK    6  A    between atoms: C_18  and  C_23
REMARK    7  A    between atoms: C_23  and  C_27
REMARK                            x       y       z     vdW  Elec       q    Type
REMARK                         _______ _______ _______ _____ _____    ______ ____
ROOT
ATOM      1  O   UNL     1      31.362  -8.765 -24.186  0.00  0.00    -0.275 OA
ATOM      2  O   UNL     1      30.773  -5.388 -23.368  0.00  0.00    -0.273 OA
ATOM      3  N   UNL     1      32.615  -8.020 -22.361  0.00  0.00    -0.273 N 
ATOM      4  N   UNL     1      31.199  -5.771 -21.157  0.00  0.00    -0.303 N 
ATOM      5  C   UNL     1      32.774  -6.638 -22.850  0.00  0.00    +0.160 C 
ATOM      6  C   UNL     1      33.141  -8.267 -21.012  0.00  0.00    +0.096 C 
ATOM      7  C   UNL     1      32.211  -7.700 -19.938  0.00  0.00    +0.043 C 
ATOM      8  C   UNL     1      31.819  -8.943 -23.054  0.00  0.00    +0.224 C 
ATOM      9  C   UNL     1      32.036  -6.186 -20.038  0.00  0.00    +0.091 C 
ATOM     10  C   UNL     1      31.493  -5.887 -22.501  0.00  0.00    +0.241 C 
ATOM     11  H   UNL     1      30.332  -5.364 -20.929  0.00  0.00    +0.149 HD
ENDROOT
BRANCH   5  12
ATOM     12  C   UNL     1      33.163  -6.530 -24.323  0.00  0.00    +0.132 C 
BRANCH  12  16
ATOM     13  F   UNL     1      35.296  -6.994 -23.415  0.00  0.00    -0.170 F 
ATOM     14  F   UNL     1      35.203  -6.138 -25.418  0.00  0.00    -0.170 F 
ATOM     15  F   UNL     1      34.628  -8.217 -25.097  0.00  0.00    -0.170 F 
ATOM     16  C   UNL     1      34.584  -6.978 -24.560  0.00  0.00    +0.400 C 
ENDBRANCH  12  16
ENDBRANCH   5  12
BRANCH   8  17
ATOM     17  C   UNL     1      31.510 -10.238 -22.342  0.00  0.00    +0.064 C 
BRANCH  17  18
ATOM     18  C   UNL     1      32.580 -11.297 -22.606  0.00  0.00    -0.052 C 
BRANCH  18  19
ATOM     19  N   UNL     1      33.258 -10.926 -23.855  0.00  0.00    +0.382 N 
ATOM     20  H   UNL     1      33.286  -9.909 -23.938  0.00  0.00    -0.089 HD
ATOM     21  H   UNL     1      32.749 -11.317 -24.648  0.00  0.00    -0.089 HD
ATOM     22  H   UNL     1      34.210 -11.292 -23.847  0.00  0.00    -0.089 HD
ENDBRANCH  18  19
BRANCH  18  23
ATOM     23  C   UNL     1      32.008 -12.722 -22.767  0.00  0.00    +0.007 C 
BRANCH  23  27
ATOM     24  F   UNL     1      32.179 -13.480 -20.050  0.00  0.00    -0.204 F 
ATOM     25  F   UNL     1      35.326 -16.180 -23.617  0.00  0.00    -0.202 F 
ATOM     26  F   UNL     1      35.402 -16.823 -20.960  0.00  0.00    -0.202 F 
ATOM     27  C   UNL     1      32.918 -13.823 -22.280  0.00  0.00    +0.006 C 
ATOM     28  C   UNL     1      32.947 -14.139 -20.930  0.00  0.00    +0.138 C 
ATOM     29  C   UNL     1      33.711 -14.501 -23.193  0.00  0.00    +0.030 C 
ATOM     30  C   UNL     1      34.553 -15.518 -22.746  0.00  0.00    +0.167 C 
ATOM     31  C   UNL     1      33.788 -15.156 -20.483  0.00  0.00    +0.061 C 
ATOM     32  C   UNL     1      34.591 -15.846 -21.390  0.00  0.00    +0.170 C 
ENDBRANCH  23  27
ENDBRANCH  18  23
ENDBRANCH  17  18
ENDBRANCH   8  17
TORSDOF 7
ENDMDL
MODEL 4
REMARK VINA RESULT:      -9.8      1.300      2.011
REMARK  Name = 10024590
REMARK  7 active torsions:
REMARK  status: ('A' for Active; 'I' for Inactive)
REMARK    1  A    between atoms: C_5  and  C_12
REMARK    2  A    between atoms: C_8  and  C_17
REMARK    3  A    between atoms: C_12  and  C_16
REMARK    4  A    between atoms: C_17  and  C_18
REMARK    5  A    between atoms: C_18  and  N_19
REMARK    6  A    between atoms: C_18  and  C_23
REMARK    7  A    between atoms: C_23  and  C_27
REMARK                            x       y       z     vdW  Elec       q    Type
REMARK                         _______ _______ _______ _____ _____    ______ ____
ROOT
ATOM      1  O   UNL     1      38.033 -22.389 -15.208  0.00  0.00    -0.275 OA
ATOM      2  O   UNL     1      38.517 -22.646 -11.727  0.00  0.00    -0.273 OA
ATOM      3  N   UNL     1      36.889 -24.182 -14.242  0.00  0.00    -0.273 N 
ATOM      4  N   UNL     1      36.441 -23.551 -11.429  0.00  0.00    -0.303 N 
ATOM      5  C   UNL     1      37.901 -24.455 -13.204  0.00  0.00    +0.160 C 
ATOM      6  C   UNL     1      35.664 -24.984 -14.143  0.00  0.00    +0.096 C 
ATOM      7  C   UNL     1      34.756 -24.479 -13.020  0.00  0.00    +0.043 C 
ATOM      8  C   UNL     1      37.018 -23.082 -15.102  0.00  0.00    +0.224 C 
ATOM      9  C   UNL     1      35.410 -24.559 -11.642  0.00  0.00    +0.091 C 
ATOM     10  C   UNL     1      37.661 -23.463 -12.071  0.00  0.00    +0.241 C 
ATOM     11  H   UNL     1      36.246 -22.859 -10.756  0.00  0.00    +0.149 HD
ENDROOT
BRANCH   5  12
ATOM     12  C   UNL     1      39.341 -24.465 -13.711  0.00  0.00    +0.132 C 
BRANCH  12  16
ATOM     13  F   UNL     1      40.761 -26.351 -13.851  0.00  0.00    -0.170 F 
ATOM     14  F   UNL     1      39.956 -25.539 -15.708  0.00  0.00    -0.170 F 
ATOM     15  F   UNL     1      38.652 -26.637 -14.348  0.00  0.00    -0.170 F 
ATOM     16  C   UNL     1      39.681 -25.762 -14.404  0.00  0.00    +0.400 C 
ENDBRANCH  12  16
ENDBRANCH   5  12
BRANCH   8  17
ATOM     17  C   UNL     1      35.814 -22.740 -15.947  0.00  0.00    +0.064 C 
BRANCH  17  18
ATOM     18  C   UNL     1      36.216 -22.331 -17.364  0.00  0.00    -0.052 C 
BRANCH  18  19
ATOM     19  N   UNL     1      36.454 -20.881 -17.346  0.00  0.00    +0.382 N 
ATOM     20  H   UNL     1      36.738 -20.571 -18.275  0.00  0.00    -0.089 HD
ATOM     21  H   UNL     1      37.193 -20.667 -16.676  0.00  0.00    -0.089 HD
ATOM     22  H   UNL     1      35.597 -20.400 -17.074  0.00  0.00    -0.089 HD
ENDBRANCH  18  19
BRANCH  18  23
ATOM     23  C   UNL     1      35.132 -22.634 -18.421  0.00  0.00    +0.007 C 
BRANCH  23  27
ATOM     24  F   UNL     1      37.174 -21.590 -20.071  0.00  0.00    -0.204 F 
ATOM     25  F   UNL     1      32.181 -19.416 -20.571  0.00  0.00    -0.202 F 
ATOM     26  F   UNL     1      34.240 -18.492 -22.115  0.00  0.00    -0.202 F 
ATOM     27  C   UNL     1      34.895 -21.522 -19.414  0.00  0.00    +0.006 C 
ATOM     28  C   UNL     1      35.948 -21.063 -20.190  0.00  0.00    +0.138 C 
ATOM     29  C   UNL     1      33.625 -20.979 -19.532  0.00  0.00    +0.030 C 
ATOM     30  C   UNL     1      33.402 -19.951 -20.448  0.00  0.00    +0.167 C 
ATOM     31  C   UNL     1      35.726 -20.036 -21.106  0.00  0.00    +0.061 C 
ATOM     32  C   UNL     1      34.453 -19.480 -21.236  0.00  0.00    +0.170 C 
ENDBRANCH  23  27
ENDBRANCH  18  23
ENDBRANCH  17  18
ENDBRANCH   8  17
TORSDOF 7
ENDMDL
MODEL 5
REMARK VINA RESULT:      -9.7      6.391     12.588
REMARK  Name = 10024590
REMARK  7 active torsions:
REMARK  status: ('A' for Active; 'I' for Inactive)
REMARK    1  A    between atoms: C_5  and  C_12
REMARK    2  A    between atoms: C_8  and  C_17
REMARK    3  A    between atoms: C_12  and  C_16
REMARK    4  A    between atoms: C_17  and  C_18
REMARK    5  A    between atoms: C_18  and  N_19
REMARK    6  A    between atoms: C_18  and  C_23
REMARK    7  A    between atoms: C_23  and  C_27
REMARK                            x       y       z     vdW  Elec       q    Type
REMARK                         _______ _______ _______ _____ _____    ______ ____
ROOT
ATOM      1  O   UNL     1      34.683 -13.786 -22.019  0.00  0.00    -0.275 OA
ATOM      2  O   UNL     1      34.544 -10.665 -23.649  0.00  0.00    -0.273 OA
ATOM      3  N   UNL     1      33.227 -13.757 -23.845  0.00  0.00    -0.273 N 
ATOM      4  N   UNL     1      34.107 -11.651 -25.663  0.00  0.00    -0.303 N 
ATOM      5  C   UNL     1      32.815 -12.351 -23.678  0.00  0.00    +0.160 C 
ATOM      6  C   UNL     1      32.703 -14.421 -25.045  0.00  0.00    +0.096 C 
ATOM      7  C   UNL     1      33.452 -13.973 -26.302  0.00  0.00    +0.043 C 
ATOM      8  C   UNL     1      34.223 -14.318 -23.032  0.00  0.00    +0.224 C 
ATOM      9  C   UNL     1      33.322 -12.476 -26.573  0.00  0.00    +0.091 C 
ATOM     10  C   UNL     1      33.902 -11.486 -24.307  0.00  0.00    +0.241 C 
ATOM     11  H   UNL     1      34.864 -11.160 -26.057  0.00  0.00    +0.149 HD
ENDROOT
BRANCH   5  12
ATOM     12  C   UNL     1      32.477 -11.958 -22.242  0.00  0.00    +0.132 C 
BRANCH  12  16
ATOM     13  F   UNL     1      31.862  -9.923 -21.205  0.00  0.00    -0.170 F 
ATOM     14  F   UNL     1      30.270 -11.205 -21.963  0.00  0.00    -0.170 F 
ATOM     15  F   UNL     1      31.530 -10.099 -23.357  0.00  0.00    -0.170 F 
ATOM     16  C   UNL     1      31.532 -10.782 -22.191  0.00  0.00    +0.400 C 
ENDBRANCH  12  16
ENDBRANCH   5  12
BRANCH   8  17
ATOM     17  C   UNL     1      34.754 -15.668 -23.448  0.00  0.00    +0.064 C 
BRANCH  17  18
ATOM     18  C   UNL     1      34.366 -16.760 -22.452  0.00  0.00    -0.052 C 
BRANCH  18  19
ATOM     19  N   UNL     1      35.006 -16.426 -21.172  0.00  0.00    +0.382 N 
ATOM     20  H   UNL     1      34.322 -16.503 -20.419  0.00  0.00    -0.089 HD
ATOM     21  H   UNL     1      35.364 -15.472 -21.210  0.00  0.00    -0.089 HD
ATOM     22  H   UNL     1      35.776 -17.072 -20.999  0.00  0.00    -0.089 HD
ENDBRANCH  18  19
BRANCH  18  23
ATOM     23  C   UNL     1      34.829 -18.171 -22.875  0.00  0.00    +0.007 C 
BRANCH  23  27
ATOM     24  F   UNL     1      37.331 -18.777 -21.709  0.00  0.00    -0.204 F 
ATOM     25  F   UNL     1      32.930 -21.311 -19.678  0.00  0.00    -0.202 F 
ATOM     26  F   UNL     1      35.406 -21.814 -18.633  0.00  0.00    -0.202 F 
ATOM     27  C   UNL     1      34.986 -19.148 -21.736  0.00  0.00    +0.006 C 
ATOM     28  C   UNL     1      36.248 -19.394 -21.215  0.00  0.00    +0.138 C 
ATOM     29  C   UNL     1      33.864 -19.785 -21.229  0.00  0.00    +0.030 C 
ATOM     30  C   UNL     1      34.006 -20.688 -20.176  0.00  0.00    +0.167 C 
ATOM     31  C   UNL     1      36.390 -20.298 -20.163  0.00  0.00    +0.061 C 
ATOM     32  C   UNL     1      35.270 -20.944 -19.643  0.00  0.00    +0.170 C 
ENDBRANCH  23  27
ENDBRANCH  18  23
ENDBRANCH  17  18
ENDBRANCH   8  17
TORSDOF 7
ENDMDL
MODEL 6
REMARK VINA RESULT:      -9.7      3.098      4.211
REMARK  Name = 10024590
REMARK  7 active torsions:
REMARK  status: ('A' for Active; 'I' for Inactive)
REMARK    1  A    between atoms: C_5  and  C_12
REMARK    2  A    between atoms: C_8  and  C_17
REMARK    3  A    between atoms: C_12  and  C_16
REMARK    4  A    between atoms: C_17  and  C_18
REMARK    5  A    between atoms: C_18  and  N_19
REMARK    6  A    between atoms: C_18  and  C_23
REMARK    7  A    between atoms: C_23  and  C_27
REMARK                            x       y       z     vdW  Elec       q    Type
REMARK                         _______ _______ _______ _____ _____    ______ ____
ROOT
ATOM      1  O   UNL     1      33.911 -23.506 -18.411  0.00  0.00    -0.275 OA
ATOM      2  O   UNL     1      35.016 -25.583 -15.787  0.00  0.00    -0.273 OA
ATOM      3  N   UNL     1      35.225 -22.391 -16.834  0.00  0.00    -0.273 N 
ATOM      4  N   UNL     1      36.930 -24.363 -15.527  0.00  0.00    -0.303 N 
ATOM      5  C   UNL     1      34.767 -23.183 -15.678  0.00  0.00    +0.160 C 
ATOM      6  C   UNL     1      36.300 -21.433 -16.546  0.00  0.00    +0.096 C 
ATOM      7  C   UNL     1      37.649 -22.138 -16.399  0.00  0.00    +0.043 C 
ATOM      8  C   UNL     1      34.810 -22.708 -18.136  0.00  0.00    +0.224 C 
ATOM      9  C   UNL     1      37.677 -23.143 -15.249  0.00  0.00    +0.091 C 
ATOM     10  C   UNL     1      35.563 -24.484 -15.681  0.00  0.00    +0.241 C 
ATOM     11  H   UNL     1      37.458 -25.191 -15.614  0.00  0.00    +0.149 HD
ENDROOT
BRANCH   5  12
ATOM     12  C   UNL     1      33.255 -23.393 -15.615  0.00  0.00    +0.132 C 
BRANCH  12  16
ATOM     13  F   UNL     1      33.802 -23.569 -13.321  0.00  0.00    -0.170 F 
ATOM     14  F   UNL     1      32.151 -24.779 -14.073  0.00  0.00    -0.170 F 
ATOM     15  F   UNL     1      31.900 -22.626 -13.835  0.00  0.00    -0.170 F 
ATOM     16  C   UNL     1      32.776 -23.588 -14.197  0.00  0.00    +0.400 C 
ENDBRANCH  12  16
ENDBRANCH   5  12
BRANCH   8  17
ATOM     17  C   UNL     1      35.532 -22.011 -19.264  0.00  0.00    +0.064 C 
BRANCH  17  18
ATOM     18  C   UNL     1      34.704 -20.862 -19.841  0.00  0.00    -0.052 C 
BRANCH  18  19
ATOM     19  N   UNL     1      33.291 -21.184 -19.602  0.00  0.00    +0.382 N 
ATOM     20  H   UNL     1      33.163 -21.454 -18.626  0.00  0.00    -0.089 HD
ATOM     21  H   UNL     1      33.012 -21.956 -20.207  0.00  0.00    -0.089 HD
ATOM     22  H   UNL     1      32.717 -20.367 -19.807  0.00  0.00    -0.089 HD
ENDBRANCH  18  19
BRANCH  18  23
ATOM     23  C   UNL     1      34.908 -20.658 -21.357  0.00  0.00    +0.007 C 
BRANCH  23  27
ATOM     24  F   UNL     1      35.018 -19.887 -24.074  0.00  0.00    -0.204 F 
ATOM     25  F   UNL     1      34.919 -15.901 -20.331  0.00  0.00    -0.202 F 
ATOM     26  F   UNL     1      35.025 -15.281 -22.992  0.00  0.00    -0.202 F 
ATOM     27  C   UNL     1      34.939 -19.215 -21.799  0.00  0.00    +0.006 C 
ATOM     28  C   UNL     1      34.993 -18.915 -23.151  0.00  0.00    +0.138 C 
ATOM     29  C   UNL     1      34.914 -18.213 -20.841  0.00  0.00    +0.030 C 
ATOM     30  C   UNL     1      34.942 -16.879 -21.245  0.00  0.00    +0.167 C 
ATOM     31  C   UNL     1      35.021 -17.581 -23.556  0.00  0.00    +0.061 C 
ATOM     32  C   UNL     1      34.995 -16.563 -22.603  0.00  0.00    +0.170 C 
ENDBRANCH  23  27
ENDBRANCH  18  23
ENDBRANCH  17  18
ENDBRANCH   8  17
TORSDOF 7
ENDMDL
MODEL 7
REMARK VINA RESULT:      -9.7     10.696     15.578
REMARK  Name = 10024590
REMARK  7 active torsions:
REMARK  status: ('A' for Active; 'I' for Inactive)
REMARK    1  A    between atoms: C_5  and  C_12
REMARK    2  A    between atoms: C_8  and  C_17
REMARK    3  A    between atoms: C_12  and  C_16
REMARK    4  A    between atoms: C_17  and  C_18
REMARK    5  A    between atoms: C_18  and  N_19
REMARK    6  A    between atoms: C_18  and  C_23
REMARK    7  A    between atoms: C_23  and  C_27
REMARK                            x       y       z     vdW  Elec       q    Type
REMARK                         _______ _______ _______ _____ _____    ______ ____
ROOT
ATOM      1  O   UNL     1      31.341  -8.854 -24.058  0.00  0.00    -0.275 OA
ATOM      2  O   UNL     1      30.785  -5.450 -23.334  0.00  0.00    -0.273 OA
ATOM      3  N   UNL     1      32.582  -8.078 -22.238  0.00  0.00    -0.273 N 
ATOM      4  N   UNL     1      31.181  -5.781 -21.109  0.00  0.00    -0.303 N 
ATOM      5  C   UNL     1      32.764  -6.711 -22.761  0.00  0.00    +0.160 C 
ATOM      6  C   UNL     1      33.090  -8.297 -20.878  0.00  0.00    +0.096 C 
ATOM      7  C   UNL     1      32.155  -7.691 -19.829  0.00  0.00    +0.043 C 
ATOM      8  C   UNL     1      31.782  -9.009 -22.917  0.00  0.00    +0.224 C 
ATOM      9  C   UNL     1      32.000  -6.178 -19.970  0.00  0.00    +0.091 C 
ATOM     10  C   UNL     1      31.489  -5.936 -22.446  0.00  0.00    +0.241 C 
ATOM     11  H   UNL     1      30.317  -5.358 -20.902  0.00  0.00    +0.149 HD
ENDROOT
BRANCH   5  12
ATOM     12  C   UNL     1      33.171  -6.646 -24.231  0.00  0.00    +0.132 C 
BRANCH  12  16
ATOM     13  F   UNL     1      35.304  -7.041 -23.290  0.00  0.00    -0.170 F 
ATOM     14  F   UNL     1      35.213  -6.303 -25.340  0.00  0.00    -0.170 F 
ATOM     15  F   UNL     1      34.652  -8.364 -24.902  0.00  0.00    -0.170 F 
ATOM     16  C   UNL     1      34.596  -7.097 -24.437  0.00  0.00    +0.400 C 
ENDBRANCH  12  16
ENDBRANCH   5  12
BRANCH   8  17
ATOM     17  C   UNL     1      31.449 -10.281 -22.175  0.00  0.00    +0.064 C 
BRANCH  17  18
ATOM     18  C   UNL     1      32.493 -11.370 -22.424  0.00  0.00    -0.052 C 
BRANCH  18  19
ATOM     19  N   UNL     1      33.175 -11.037 -23.682  0.00  0.00    +0.382 N 
ATOM     20  H   UNL     1      33.169 -11.851 -24.297  0.00  0.00    -0.089 HD
ATOM     21  H   UNL     1      34.138 -10.767 -23.485  0.00  0.00    -0.089 HD
ATOM     22  H   UNL     1      32.691 -10.264 -24.136  0.00  0.00    -0.089 HD
ENDBRANCH  18  19
BRANCH  18  23
ATOM     23  C   UNL     1      31.887 -12.784 -22.557  0.00  0.00    +0.007 C 
BRANCH  23  27
ATOM     24  F   UNL     1      32.819 -14.205 -24.813  0.00  0.00    -0.204 F 
ATOM     25  F   UNL     1      34.791 -15.671 -19.927  0.00  0.00    -0.202 F 
ATOM     26  F   UNL     1      35.618 -16.972 -22.186  0.00  0.00    -0.202 F 
ATOM     27  C   UNL     1      32.889 -13.908 -22.460  0.00  0.00    +0.006 C 
ATOM     28  C   UNL     1      33.299 -14.559 -23.613  0.00  0.00    +0.138 C 
ATOM     29  C   UNL     1      33.382 -14.271 -21.216  0.00  0.00    +0.030 C 
ATOM     30  C   UNL     1      34.307 -15.310 -21.123  0.00  0.00    +0.167 C 
ATOM     31  C   UNL     1      34.225 -15.597 -23.520  0.00  0.00    +0.061 C 
ATOM     32  C   UNL     1      34.729 -15.972 -22.276  0.00  0.00    +0.170 C 
ENDBRANCH  23  27
ENDBRANCH  18  23
ENDBRANCH  17  18
ENDBRANCH   8  17
TORSDOF 7
ENDMDL
MODEL 8
REMARK VINA RESULT:      -9.6      4.978      6.504
REMARK  Name = 10024590
REMARK  7 active torsions:
REMARK  status: ('A' for Active; 'I' for Inactive)
REMARK    1  A    between atoms: C_5  and  C_12
REMARK    2  A    between atoms: C_8  and  C_17
REMARK    3  A    between atoms: C_12  and  C_16
REMARK    4  A    between atoms: C_17  and  C_18
REMARK    5  A    between atoms: C_18  and  N_19
REMARK    6  A    between atoms: C_18  and  C_23
REMARK    7  A    between atoms: C_23  and  C_27
REMARK                            x       y       z     vdW  Elec       q    Type
REMARK                         _______ _______ _______ _____ _____    ______ ____
ROOT
ATOM      1  O   UNL     1      34.605 -25.024 -14.653  0.00  0.00    -0.275 OA
ATOM      2  O   UNL     1      37.293 -27.207 -14.001  0.00  0.00    -0.273 OA
ATOM      3  N   UNL     1      36.647 -23.925 -14.383  0.00  0.00    -0.273 N 
ATOM      4  N   UNL     1      38.776 -25.810 -15.035  0.00  0.00    -0.303 N 
ATOM      5  C   UNL     1      37.190 -24.872 -13.391  0.00  0.00    +0.160 C 
ATOM      6  C   UNL     1      37.583 -22.885 -14.827  0.00  0.00    +0.096 C 
ATOM      7  C   UNL     1      38.611 -23.444 -15.813  0.00  0.00    +0.043 C 
ATOM      8  C   UNL     1      35.412 -24.160 -15.003  0.00  0.00    +0.224 C 
ATOM      9  C   UNL     1      39.480 -24.546 -15.209  0.00  0.00    +0.091 C 
ATOM     10  C   UNL     1      37.736 -26.068 -14.164  0.00  0.00    +0.241 C 
ATOM     11  H   UNL     1      39.074 -26.560 -15.599  0.00  0.00    +0.149 HD
ENDROOT
BRANCH   5  12
ATOM     12  C   UNL     1      36.212 -25.256 -12.283  0.00  0.00    +0.132 C 
BRANCH  12  16
ATOM     13  F   UNL     1      35.576 -24.499 -10.134  0.00  0.00    -0.170 F 
ATOM     14  F   UNL     1      34.872 -23.373 -11.864  0.00  0.00    -0.170 F 
ATOM     15  F   UNL     1      36.967 -23.256 -11.271  0.00  0.00    -0.170 F 
ATOM     16  C   UNL     1      35.909 -24.089 -11.375  0.00  0.00    +0.400 C 
ENDBRANCH  12  16
ENDBRANCH   5  12
BRANCH   8  17
ATOM     17  C   UNL     1      35.069 -23.280 -16.181  0.00  0.00    +0.064 C 
BRANCH  17  18
ATOM     18  C   UNL     1      33.644 -23.529 -16.676  0.00  0.00    -0.052 C 
BRANCH  18  19
ATOM     19  N   UNL     1      33.594 -23.106 -18.083  0.00  0.00    +0.382 N 
ATOM     20  H   UNL     1      34.521 -22.799 -18.379  0.00  0.00    -0.089 HD
ATOM     21  H   UNL     1      32.933 -22.336 -18.182  0.00  0.00    -0.089 HD
ATOM     22  H   UNL     1      33.294 -23.890 -18.662  0.00  0.00    -0.089 HD
ENDBRANCH  18  19
BRANCH  18  23
ATOM     23  C   UNL     1      32.574 -22.739 -15.891  0.00  0.00    +0.007 C 
BRANCH  23  27
ATOM     24  F   UNL     1      32.323 -23.919 -13.337  0.00  0.00    -0.204 F 
ATOM     25  F   UNL     1      28.215 -24.670 -16.868  0.00  0.00    -0.202 F 
ATOM     26  F   UNL     1      28.088 -25.761 -14.364  0.00  0.00    -0.202 F 
ATOM     27  C   UNL     1      31.371 -23.550 -15.479  0.00  0.00    +0.006 C 
ATOM     28  C   UNL     1      31.319 -24.098 -14.206  0.00  0.00    +0.138 C 
ATOM     29  C   UNL     1      30.335 -23.734 -16.383  0.00  0.00    +0.030 C 
ATOM     30  C   UNL     1      29.222 -24.483 -16.005  0.00  0.00    +0.167 C 
ATOM     31  C   UNL     1      30.206 -24.847 -13.828  0.00  0.00    +0.061 C 
ATOM     32  C   UNL     1      29.157 -25.039 -14.727  0.00  0.00    +0.170 C 
ENDBRANCH  23  27
ENDBRANCH  18  23
ENDBRANCH  17  18
ENDBRANCH   8  17
TORSDOF 7
ENDMDL
MODEL 9
REMARK VINA RESULT:      -9.6      6.060     12.072
REMARK  Name = 10024590
REMARK  7 active torsions:
REMARK  status: ('A' for Active; 'I' for Inactive)
REMARK    1  A    between atoms: C_5  and  C_12
REMARK    2  A    between atoms: C_8  and  C_17
REMARK    3  A    between atoms: C_12  and  C_16
REMARK    4  A    between atoms: C_17  and  C_18
REMARK    5  A    between atoms: C_18  and  N_19
REMARK    6  A    between atoms: C_18  and  C_23
REMARK    7  A    between atoms: C_23  and  C_27
REMARK                            x       y       z     vdW  Elec       q    Type
REMARK                         _______ _______ _______ _____ _____    ______ ____
ROOT
ATOM      1  O   UNL     1      34.638 -14.125 -21.567  0.00  0.00    -0.275 OA
ATOM      2  O   UNL     1      34.241 -11.103 -23.336  0.00  0.00    -0.273 OA
ATOM      3  N   UNL     1      33.168 -14.294 -23.373  0.00  0.00    -0.273 N 
ATOM      4  N   UNL     1      33.864 -12.214 -25.296  0.00  0.00    -0.303 N 
ATOM      5  C   UNL     1      32.648 -12.918 -23.265  0.00  0.00    +0.160 C 
ATOM      6  C   UNL     1      32.685 -15.052 -24.535  0.00  0.00    +0.096 C 
ATOM      7  C   UNL     1      33.385 -14.607 -25.820  0.00  0.00    +0.043 C 
ATOM      8  C   UNL     1      34.211 -14.738 -22.548  0.00  0.00    +0.224 C 
ATOM      9  C   UNL     1      33.138 -13.138 -26.158  0.00  0.00    +0.091 C 
ATOM     10  C   UNL     1      33.659 -12.002 -23.947  0.00  0.00    +0.241 C 
ATOM     11  H   UNL     1      34.576 -11.684 -25.722  0.00  0.00    +0.149 HD
ENDROOT
BRANCH   5  12
ATOM     12  C   UNL     1      32.295 -12.485 -21.844  0.00  0.00    +0.132 C 
BRANCH  12  16
ATOM     13  F   UNL     1      31.957 -10.164 -21.543  0.00  0.00    -0.170 F 
ATOM     14  F   UNL     1      30.369 -11.518 -20.910  0.00  0.00    -0.170 F 
ATOM     15  F   UNL     1      30.723 -11.177 -23.034  0.00  0.00    -0.170 F 
ATOM     16  C   UNL     1      31.332 -11.323 -21.837  0.00  0.00    +0.400 C 
ENDBRANCH  12  16
ENDBRANCH   5  12
BRANCH   8  17
ATOM     17  C   UNL     1      34.842 -16.061 -22.909  0.00  0.00    +0.064 C 
BRANCH  17  18
ATOM     18  C   UNL     1      34.469 -17.156 -21.910  0.00  0.00    -0.052 C 
BRANCH  18  19
ATOM     19  N   UNL     1      35.120 -16.821 -20.636  0.00  0.00    +0.382 N 
ATOM     20  H   UNL     1      35.366 -15.831 -20.630  0.00  0.00    -0.089 HD
ATOM     21  H   UNL     1      35.965 -17.382 -20.529  0.00  0.00    -0.089 HD
ATOM     22  H   UNL     1      34.481 -17.018 -19.867  0.00  0.00    -0.089 HD
ENDBRANCH  18  19
BRANCH  18  23
ATOM     23  C   UNL     1      34.935 -18.564 -22.340  0.00  0.00    +0.007 C 
BRANCH  23  27
ATOM     24  F   UNL     1      32.453 -19.537 -21.403  0.00  0.00    -0.204 F 
ATOM     25  F   UNL     1      36.982 -21.629 -19.161  0.00  0.00    -0.202 F 
ATOM     26  F   UNL     1      34.520 -22.490 -18.338  0.00  0.00    -0.202 F 
ATOM     27  C   UNL     1      34.821 -19.619 -21.266  0.00  0.00    +0.006 C 
ATOM     28  C   UNL     1      33.567 -20.046 -20.859  0.00  0.00    +0.138 C 
ATOM     29  C   UNL     1      35.976 -20.142 -20.705  0.00  0.00    +0.030 C 
ATOM     30  C   UNL     1      35.874 -21.116 -19.713  0.00  0.00    +0.167 C 
ATOM     31  C   UNL     1      33.465 -21.020 -19.866  0.00  0.00    +0.061 C 
ATOM     32  C   UNL     1      34.618 -21.556 -19.294  0.00  0.00    +0.170 C 
ENDBRANCH  23  27
ENDBRANCH  18  23
ENDBRANCH  17  18
ENDBRANCH   8  17
TORSDOF 7
ENDMDL
