MODEL 1
REMARK VINA RESULT:      -5.4      0.000      0.000
REMARK  Name = 5460407
REMARK  7 active torsions:
REMARK  status: ('A' for Active; 'I' for Inactive)
REMARK    1  A    between atoms: C_1  and  O_2
REMARK    2  A    between atoms: C_1  and  C_5
REMARK    3  A    between atoms: C_1  and  C_8
REMARK    4  A    between atoms: C_5  and  O_6
REMARK    5  A    between atoms: C_8  and  O_9
REMARK    6  A    between atoms: C_8  and  C_11
REMARK    7  A    between atoms: C_11  and  O_12
REMARK                            x       y       z     vdW  Elec       q    Type
REMARK                         _______ _______ _______ _____ _____    ______ ____
ROOT
ATOM      1  C   UNL     1      39.069 -25.054 -14.475  0.00  0.00    +0.239 C 
ENDROOT
BRANCH   1   2
ATOM      2  O   UNL     1      39.158 -24.648 -13.111  0.00  0.00    -0.373 OA
ATOM      3  H   UNL     1      38.371 -24.130 -12.876  0.00  0.00    +0.211 HD
ENDBRANCH   1   2
BRANCH   1   5
ATOM      4  O   UNL     1      40.988 -26.435 -13.909  0.00  0.00    -0.248 OA
ATOM      5  C   UNL     1      40.299 -25.894 -14.763  0.00  0.00    +0.344 C 
BRANCH   5   6
ATOM      6  O   UNL     1      40.554 -25.998 -16.092  0.00  0.00    -0.478 OA
ATOM      7  H   UNL     1      39.855 -26.174 -16.691  0.00  0.00    +0.295 HD
ENDBRANCH   5   6
ENDBRANCH   1   5
BRANCH   1   8
ATOM      8  C   UNL     1      37.751 -25.822 -14.646  0.00  0.00    +0.178 C 
BRANCH   8   9
ATOM      9  O   UNL     1      38.003 -27.223 -14.742  0.00  0.00    -0.379 OA
ATOM     10  H   UNL     1      38.960 -27.380 -14.755  0.00  0.00    +0.211 HD
ENDBRANCH   8   9
BRANCH   8  11
ATOM     11  C   UNL     1      36.733 -25.602 -13.532  0.00  0.00    +0.169 C 
BRANCH  11  12
ATOM     12  O   UNL     1      36.888 -26.558 -12.497  0.00  0.00    -0.379 OA
ATOM     13  H   UNL     1      37.294 -27.362 -12.859  0.00  0.00    +0.211 HD
ENDBRANCH  11  12
ENDBRANCH   8  11
ENDBRANCH   1   8
TORSDOF 7
ENDMDL
MODEL 2
REMARK VINA RESULT:      -5.2      1.400      2.514
REMARK  Name = 5460407
REMARK  7 active torsions:
REMARK  status: ('A' for Active; 'I' for Inactive)
REMARK    1  A    between atoms: C_1  and  O_2
REMARK    2  A    between atoms: C_1  and  C_5
REMARK    3  A    between atoms: C_1  and  C_8
REMARK    4  A    between atoms: C_5  and  O_6
REMARK    5  A    between atoms: C_8  and  O_9
REMARK    6  A    between atoms: C_8  and  C_11
REMARK    7  A    between atoms: C_11  and  O_12
REMARK                            x       y       z     vdW  Elec       q    Type
REMARK                         _______ _______ _______ _____ _____    ______ ____
ROOT
ATOM      1  C   UNL     1      38.569 -26.148 -14.496  0.00  0.00    +0.239 C 
ENDROOT
BRANCH   1   2
ATOM      2  O   UNL     1      37.921 -26.337 -15.752  0.00  0.00    -0.373 OA
ATOM      3  H   UNL     1      37.127 -26.881 -15.628  0.00  0.00    +0.211 HD
ENDBRANCH   1   2
BRANCH   1   5
ATOM      4  O   UNL     1      40.922 -26.396 -13.939  0.00  0.00    -0.248 OA
ATOM      5  C   UNL     1      40.061 -26.141 -14.770  0.00  0.00    +0.344 C 
BRANCH   5   6
ATOM      6  O   UNL     1      40.349 -25.828 -16.059  0.00  0.00    -0.478 OA
ATOM      7  H   UNL     1      40.974 -25.158 -16.251  0.00  0.00    +0.295 HD
ENDBRANCH   5   6
ENDBRANCH   1   5
BRANCH   1   8
ATOM      8  C   UNL     1      38.051 -24.832 -13.900  0.00  0.00    +0.178 C 
BRANCH   8   9
ATOM      9  O   UNL     1      39.073 -24.200 -13.131  0.00  0.00    -0.379 OA
ATOM     10  H   UNL     1      38.676 -23.767 -12.359  0.00  0.00    +0.211 HD
ENDBRANCH   8   9
BRANCH   8  11
ATOM     11  C   UNL     1      37.540 -23.823 -14.924  0.00  0.00    +0.169 C 
BRANCH  11  12
ATOM     12  O   UNL     1      38.569 -23.428 -15.815  0.00  0.00    -0.379 OA
ATOM     13  H   UNL     1      39.428 -23.505 -15.371  0.00  0.00    +0.211 HD
ENDBRANCH  11  12
ENDBRANCH   8  11
ENDBRANCH   1   8
TORSDOF 7
ENDMDL
MODEL 3
REMARK VINA RESULT:      -5.2      1.521      2.067
REMARK  Name = 5460407
REMARK  7 active torsions:
REMARK  status: ('A' for Active; 'I' for Inactive)
REMARK    1  A    between atoms: C_1  and  O_2
REMARK    2  A    between atoms: C_1  and  C_5
REMARK    3  A    between atoms: C_1  and  C_8
REMARK    4  A    between atoms: C_5  and  O_6
REMARK    5  A    between atoms: C_8  and  O_9
REMARK    6  A    between atoms: C_8  and  C_11
REMARK    7  A    between atoms: C_11  and  O_12
REMARK                            x       y       z     vdW  Elec       q    Type
REMARK                         _______ _______ _______ _____ _____    ______ ____
ROOT
ATOM      1  C   UNL     1      38.929 -25.107 -13.592  0.00  0.00    +0.239 C 
ENDROOT
BRANCH   1   2
ATOM      2  O   UNL     1      38.356 -26.313 -13.094  0.00  0.00    -0.373 OA
ATOM      3  H   UNL     1      39.051 -26.859 -12.693  0.00  0.00    +0.211 HD
ENDBRANCH   1   2
BRANCH   1   5
ATOM      4  O   UNL     1      41.122 -24.729 -14.573  0.00  0.00    -0.248 OA
ATOM      5  C   UNL     1      40.201 -25.495 -14.323  0.00  0.00    +0.344 C 
BRANCH   5   6
ATOM      6  O   UNL     1      40.220 -26.808 -14.667  0.00  0.00    -0.478 OA
ATOM      7  H   UNL     1      39.475 -27.194 -15.085  0.00  0.00    +0.295 HD
ENDBRANCH   5   6
ENDBRANCH   1   5
BRANCH   1   8
ATOM      8  C   UNL     1      37.887 -24.436 -14.497  0.00  0.00    +0.178 C 
BRANCH   8   9
ATOM      9  O   UNL     1      38.523 -23.819 -15.615  0.00  0.00    -0.379 OA
ATOM     10  H   UNL     1      38.291 -22.878 -15.641  0.00  0.00    +0.211 HD
ENDBRANCH   8   9
BRANCH   8  11
ATOM     11  C   UNL     1      36.803 -25.369 -15.027  0.00  0.00    +0.169 C 
BRANCH  11  12
ATOM     12  O   UNL     1      37.365 -26.449 -15.754  0.00  0.00    -0.379 OA
ATOM     13  H   UNL     1      36.727 -26.760 -16.415  0.00  0.00    +0.211 HD
ENDBRANCH  11  12
ENDBRANCH   8  11
ENDBRANCH   1   8
TORSDOF 7
ENDMDL
MODEL 4
REMARK VINA RESULT:      -5.0      0.815      3.790
REMARK  Name = 5460407
REMARK  7 active torsions:
REMARK  status: ('A' for Active; 'I' for Inactive)
REMARK    1  A    between atoms: C_1  and  O_2
REMARK    2  A    between atoms: C_1  and  C_5
REMARK    3  A    between atoms: C_1  and  C_8
REMARK    4  A    between atoms: C_5  and  O_6
REMARK    5  A    between atoms: C_8  and  O_9
REMARK    6  A    between atoms: C_8  and  C_11
REMARK    7  A    between atoms: C_11  and  O_12
REMARK                            x       y       z     vdW  Elec       q    Type
REMARK                         _______ _______ _______ _____ _____    ______ ____
ROOT
ATOM      1  C   UNL     1      37.682 -25.987 -14.420  0.00  0.00    +0.239 C 
ENDROOT
BRANCH   1   2
ATOM      2  O   UNL     1      38.175 -27.316 -14.571  0.00  0.00    -0.373 OA
ATOM      3  H   UNL     1      37.432 -27.939 -14.559  0.00  0.00    +0.211 HD
ENDBRANCH   1   2
BRANCH   1   5
ATOM      4  O   UNL     1      37.216 -26.542 -12.099  0.00  0.00    -0.248 OA
ATOM      5  C   UNL     1      36.893 -25.957 -13.124  0.00  0.00    +0.344 C 
BRANCH   5   6
ATOM      6  O   UNL     1      35.778 -25.189 -13.215  0.00  0.00    -0.478 OA
ATOM      7  H   UNL     1      35.049 -25.479 -13.726  0.00  0.00    +0.295 HD
ENDBRANCH   5   6
ENDBRANCH   1   5
BRANCH   1   8
ATOM      8  C   UNL     1      38.889 -25.040 -14.421  0.00  0.00    +0.178 C 
BRANCH   8   9
ATOM      9  O   UNL     1      38.963 -24.328 -13.187  0.00  0.00    -0.379 OA
ATOM     10  H   UNL     1      39.744 -24.619 -12.690  0.00  0.00    +0.211 HD
ENDBRANCH   8   9
BRANCH   8  11
ATOM     11  C   UNL     1      40.235 -25.719 -14.653  0.00  0.00    +0.169 C 
BRANCH  11  12
ATOM     12  O   UNL     1      40.448 -25.980 -16.030  0.00  0.00    -0.379 OA
ATOM     13  H   UNL     1      41.192 -26.596 -16.130  0.00  0.00    +0.211 HD
ENDBRANCH  11  12
ENDBRANCH   8  11
ENDBRANCH   1   8
TORSDOF 7
ENDMDL
MODEL 5
REMARK VINA RESULT:      -5.0      1.666      3.682
REMARK  Name = 5460407
REMARK  7 active torsions:
REMARK  status: ('A' for Active; 'I' for Inactive)
REMARK    1  A    between atoms: C_1  and  O_2
REMARK    2  A    between atoms: C_1  and  C_5
REMARK    3  A    between atoms: C_1  and  C_8
REMARK    4  A    between atoms: C_5  and  O_6
REMARK    5  A    between atoms: C_8  and  O_9
REMARK    6  A    between atoms: C_8  and  C_11
REMARK    7  A    between atoms: C_11  and  O_12
REMARK                            x       y       z     vdW  Elec       q    Type
REMARK                         _______ _______ _______ _____ _____    ______ ____
ROOT
ATOM      1  C   UNL     1      38.044 -24.578 -14.385  0.00  0.00    +0.239 C 
ENDROOT
BRANCH   1   2
ATOM      2  O   UNL     1      38.534 -23.872 -15.522  0.00  0.00    -0.373 OA
ATOM      3  H   UNL     1      37.792 -23.458 -15.990  0.00  0.00    +0.211 HD
ENDBRANCH   1   2
BRANCH   1   5
ATOM      4  O   UNL     1      36.027 -24.702 -15.738  0.00  0.00    -0.248 OA
ATOM      5  C   UNL     1      36.615 -24.979 -14.701  0.00  0.00    +0.344 C 
BRANCH   5   6
ATOM      6  O   UNL     1      36.048 -25.704 -13.703  0.00  0.00    -0.478 OA
ATOM      7  H   UNL     1      35.361 -25.332 -13.186  0.00  0.00    +0.295 HD
ENDBRANCH   5   6
ENDBRANCH   1   5
BRANCH   1   8
ATOM      8  C   UNL     1      38.974 -25.774 -14.144  0.00  0.00    +0.178 C 
BRANCH   8   9
ATOM      9  O   UNL     1      38.417 -26.959 -14.711  0.00  0.00    -0.379 OA
ATOM     10  H   UNL     1      38.787 -27.737 -14.266  0.00  0.00    +0.211 HD
ENDBRANCH   8   9
BRANCH   8  11
ATOM     11  C   UNL     1      40.387 -25.608 -14.694  0.00  0.00    +0.169 C 
BRANCH  11  12
ATOM     12  O   UNL     1      40.450 -25.967 -16.064  0.00  0.00    -0.379 OA
ATOM     13  H   UNL     1      41.225 -26.531 -16.214  0.00  0.00    +0.211 HD
ENDBRANCH  11  12
ENDBRANCH   8  11
ENDBRANCH   1   8
TORSDOF 7
ENDMDL
MODEL 6
REMARK VINA RESULT:      -5.0      2.849      4.510
REMARK  Name = 5460407
REMARK  7 active torsions:
REMARK  status: ('A' for Active; 'I' for Inactive)
REMARK    1  A    between atoms: C_1  and  O_2
REMARK    2  A    between atoms: C_1  and  C_5
REMARK    3  A    between atoms: C_1  and  C_8
REMARK    4  A    between atoms: C_5  and  O_6
REMARK    5  A    between atoms: C_8  and  O_9
REMARK    6  A    between atoms: C_8  and  C_11
REMARK    7  A    between atoms: C_11  and  O_12
REMARK                            x       y       z     vdW  Elec       q    Type
REMARK                         _______ _______ _______ _____ _____    ______ ____
ROOT
ATOM      1  C   UNL     1      35.839 -23.904 -12.318  0.00  0.00    +0.239 C 
ENDROOT
BRANCH   1   2
ATOM      2  O   UNL     1      34.828 -24.863 -12.016  0.00  0.00    -0.373 OA
ATOM      3  H   UNL     1      35.048 -25.708 -12.438  0.00  0.00    +0.211 HD
ENDBRANCH   1   2
BRANCH   1   5
ATOM      4  O   UNL     1      36.295 -24.083  -9.936  0.00  0.00    -0.248 OA
ATOM      5  C   UNL     1      36.468 -23.500 -10.998  0.00  0.00    +0.344 C 
BRANCH   5   6
ATOM      6  O   UNL     1      37.271 -22.412 -11.120  0.00  0.00    -0.478 OA
ATOM      7  H   UNL     1      38.159 -22.449 -10.825  0.00  0.00    +0.295 HD
ENDBRANCH   5   6
ENDBRANCH   1   5
BRANCH   1   8
ATOM      8  C   UNL     1      36.829 -24.563 -13.289  0.00  0.00    +0.178 C 
BRANCH   8   9
ATOM      9  O   UNL     1      37.703 -23.584 -13.848  0.00  0.00    -0.379 OA
ATOM     10  H   UNL     1      37.958 -23.851 -14.744  0.00  0.00    +0.211 HD
ENDBRANCH   8   9
BRANCH   8  11
ATOM     11  C   UNL     1      37.687 -25.666 -12.677  0.00  0.00    +0.169 C 
BRANCH  11  12
ATOM     12  O   UNL     1      36.893 -26.605 -11.973  0.00  0.00    -0.379 OA
ATOM     13  H   UNL     1      37.462 -27.308 -11.619  0.00  0.00    +0.211 HD
ENDBRANCH  11  12
ENDBRANCH   8  11
ENDBRANCH   1   8
TORSDOF 7
ENDMDL
MODEL 7
REMARK VINA RESULT:      -5.0     10.535     12.229
REMARK  Name = 5460407
REMARK  7 active torsions:
REMARK  status: ('A' for Active; 'I' for Inactive)
REMARK    1  A    between atoms: C_1  and  O_2
REMARK    2  A    between atoms: C_1  and  C_5
REMARK    3  A    between atoms: C_1  and  C_8
REMARK    4  A    between atoms: C_5  and  O_6
REMARK    5  A    between atoms: C_8  and  O_9
REMARK    6  A    between atoms: C_8  and  C_11
REMARK    7  A    between atoms: C_11  and  O_12
REMARK                            x       y       z     vdW  Elec       q    Type
REMARK                         _______ _______ _______ _____ _____    ______ ____
ROOT
ATOM      1  C   UNL     1      27.827 -22.577 -17.257  0.00  0.00    +0.239 C 
ENDROOT
BRANCH   1   2
ATOM      2  O   UNL     1      27.429 -23.889 -17.647  0.00  0.00    -0.373 OA
ATOM      3  H   UNL     1      26.695 -24.184 -17.085  0.00  0.00    +0.211 HD
ENDBRANCH   1   2
BRANCH   1   5
ATOM      4  O   UNL     1      25.762 -22.082 -16.072  0.00  0.00    -0.248 OA
ATOM      5  C   UNL     1      26.556 -21.803 -16.960  0.00  0.00    +0.344 C 
BRANCH   5   6
ATOM      6  O   UNL     1      26.392 -20.740 -17.788  0.00  0.00    -0.478 OA
ATOM      7  H   UNL     1      26.257 -20.876 -18.705  0.00  0.00    +0.295 HD
ENDBRANCH   5   6
ENDBRANCH   1   5
BRANCH   1   8
ATOM      8  C   UNL     1      28.755 -22.714 -16.043  0.00  0.00    +0.178 C 
BRANCH   8   9
ATOM      9  O   UNL     1      28.391 -21.775 -15.032  0.00  0.00    -0.379 OA
ATOM     10  H   UNL     1      28.019 -20.981 -15.446  0.00  0.00    +0.211 HD
ENDBRANCH   8   9
BRANCH   8  11
ATOM     11  C   UNL     1      28.780 -24.102 -15.410  0.00  0.00    +0.169 C 
BRANCH  11  12
ATOM     12  O   UNL     1      29.742 -24.934 -16.033  0.00  0.00    -0.379 OA
ATOM     13  H   UNL     1      30.194 -25.467 -15.359  0.00  0.00    +0.211 HD
ENDBRANCH  11  12
ENDBRANCH   8  11
ENDBRANCH   1   8
TORSDOF 7
ENDMDL
MODEL 8
REMARK VINA RESULT:      -4.9      1.321      3.664
REMARK  Name = 5460407
REMARK  7 active torsions:
REMARK  status: ('A' for Active; 'I' for Inactive)
REMARK    1  A    between atoms: C_1  and  O_2
REMARK    2  A    between atoms: C_1  and  C_5
REMARK    3  A    between atoms: C_1  and  C_8
REMARK    4  A    between atoms: C_5  and  O_6
REMARK    5  A    between atoms: C_8  and  O_9
REMARK    6  A    between atoms: C_8  and  C_11
REMARK    7  A    between atoms: C_11  and  O_12
REMARK                            x       y       z     vdW  Elec       q    Type
REMARK                         _______ _______ _______ _____ _____    ______ ____
ROOT
ATOM      1  C   UNL     1      37.656 -26.546 -14.230  0.00  0.00    +0.239 C 
ENDROOT
BRANCH   1   2
ATOM      2  O   UNL     1      36.937 -26.416 -13.006  0.00  0.00    -0.373 OA
ATOM      3  H   UNL     1      36.263 -27.111 -12.952  0.00  0.00    +0.211 HD
ENDBRANCH   1   2
BRANCH   1   5
ATOM      4  O   UNL     1      35.706 -25.670 -15.388  0.00  0.00    -0.248 OA
ATOM      5  C   UNL     1      36.635 -26.465 -15.349  0.00  0.00    +0.344 C 
BRANCH   5   6
ATOM      6  O   UNL     1      36.870 -27.374 -16.330  0.00  0.00    -0.478 OA
ATOM      7  H   UNL     1      37.004 -27.088 -17.212  0.00  0.00    +0.295 HD
ENDBRANCH   5   6
ENDBRANCH   1   5
BRANCH   1   8
ATOM      8  C   UNL     1      38.702 -25.423 -14.276  0.00  0.00    +0.178 C 
BRANCH   8   9
ATOM      9  O   UNL     1      38.717 -24.708 -13.041  0.00  0.00    -0.379 OA
ATOM     10  H   UNL     1      39.634 -24.514 -12.791  0.00  0.00    +0.211 HD
ENDBRANCH   8   9
BRANCH   8  11
ATOM     11  C   UNL     1      40.125 -25.885 -14.570  0.00  0.00    +0.169 C 
BRANCH  11  12
ATOM     12  O   UNL     1      40.381 -25.912 -15.963  0.00  0.00    -0.379 OA
ATOM     13  H   UNL     1      40.832 -26.740 -16.194  0.00  0.00    +0.211 HD
ENDBRANCH  11  12
ENDBRANCH   8  11
ENDBRANCH   1   8
TORSDOF 7
ENDMDL
MODEL 9
REMARK VINA RESULT:      -4.8      2.698      4.524
REMARK  Name = 5460407
REMARK  7 active torsions:
REMARK  status: ('A' for Active; 'I' for Inactive)
REMARK    1  A    between atoms: C_1  and  O_2
REMARK    2  A    between atoms: C_1  and  C_5
REMARK    3  A    between atoms: C_1  and  C_8
REMARK    4  A    between atoms: C_5  and  O_6
REMARK    5  A    between atoms: C_8  and  O_9
REMARK    6  A    between atoms: C_8  and  C_11
REMARK    7  A    between atoms: C_11  and  O_12
REMARK                            x       y       z     vdW  Elec       q    Type
REMARK                         _______ _______ _______ _____ _____    ______ ____
ROOT
ATOM      1  C   UNL     1      36.717 -23.664 -12.043  0.00  0.00    +0.239 C 
ENDROOT
BRANCH   1   2
ATOM      2  O   UNL     1      35.844 -23.143 -13.041  0.00  0.00    -0.373 OA
ATOM      3  H   UNL     1      35.518 -23.869 -13.597  0.00  0.00    +0.211 HD
ENDBRANCH   1   2
BRANCH   1   5
ATOM      4  O   UNL     1      36.014 -24.218  -9.782  0.00  0.00    -0.248 OA
ATOM      5  C   UNL     1      35.840 -24.315 -10.989  0.00  0.00    +0.344 C 
BRANCH   5   6
ATOM      6  O   UNL     1      34.814 -25.017 -11.533  0.00  0.00    -0.478 OA
ATOM      7  H   UNL     1      33.938 -24.873 -11.235  0.00  0.00    +0.295 HD
ENDBRANCH   5   6
ENDBRANCH   1   5
BRANCH   1   8
ATOM      8  C   UNL     1      37.675 -24.647 -12.730  0.00  0.00    +0.178 C 
BRANCH   8   9
ATOM      9  O   UNL     1      37.806 -25.837 -11.955  0.00  0.00    -0.379 OA
ATOM     10  H   UNL     1      38.311 -26.497 -12.456  0.00  0.00    +0.211 HD
ENDBRANCH   8   9
BRANCH   8  11
ATOM     11  C   UNL     1      37.272 -25.049 -14.145  0.00  0.00    +0.169 C 
BRANCH  11  12
ATOM     12  O   UNL     1      36.112 -25.863 -14.138  0.00  0.00    -0.379 OA
ATOM     13  H   UNL     1      35.496 -25.541 -13.461  0.00  0.00    +0.211 HD
ENDBRANCH  11  12
ENDBRANCH   8  11
ENDBRANCH   1   8
TORSDOF 7
ENDMDL
