MODEL 1
REMARK VINA RESULT:      -8.8      0.000      0.000
REMARK  Name = 208910
REMARK  5 active torsions:
REMARK  status: ('A' for Active; 'I' for Inactive)
REMARK    1  A    between atoms: C_4  and  C_9
REMARK    2  A    between atoms: C_5  and  O_19
REMARK    3  A    between atoms: C_12  and  S_15
REMARK    4  A    between atoms: O_19  and  C_20
REMARK    5  A    between atoms: C_20  and  C_21
REMARK                            x       y       z     vdW  Elec       q    Type
REMARK                         _______ _______ _______ _____ _____    ______ ____
ROOT
ATOM      1  O   UNL     1      37.596 -24.721 -14.757  0.00  0.00    -0.446 OA
ATOM      2  O   UNL     1      38.912 -23.106 -15.736  0.00  0.00    -0.241 OA
ATOM      3  C   UNL     1      36.175 -24.964 -14.630  0.00  0.00    +0.158 C 
ATOM      4  C   UNL     1      35.575 -23.798 -15.344  0.00  0.00    +0.054 C 
ATOM      5  C   UNL     1      36.527 -22.994 -15.825  0.00  0.00    +0.213 C 
ATOM      6  C   UNL     1      37.821 -23.573 -15.461  0.00  0.00    +0.376 C 
ATOM      7  C   UNL     1      35.845 -24.993 -13.137  0.00  0.00    +0.048 C 
ATOM      8  C   UNL     1      35.882 -26.313 -15.285  0.00  0.00    +0.048 C 
ENDROOT
BRANCH   4   9
ATOM      9  C   UNL     1      34.137 -23.582 -15.474  0.00  0.00    +0.002 C 
ATOM     10  C   UNL     1      33.324 -23.541 -14.336  0.00  0.00    +0.001 C 
ATOM     11  C   UNL     1      33.559 -23.414 -16.736  0.00  0.00    +0.001 C 
ATOM     12  C   UNL     1      31.380 -23.168 -15.722  0.00  0.00    +0.106 C 
ATOM     13  C   UNL     1      31.950 -23.334 -14.459  0.00  0.00    +0.018 C 
ATOM     14  C   UNL     1      32.185 -23.208 -16.860  0.00  0.00    +0.018 C 
BRANCH  12  15
ATOM     15  S   UNL     1      29.661 -22.912 -15.876  0.00  0.00    +0.010 S 
ATOM     16  O   UNL     1      29.223 -22.111 -14.742  0.00  0.00    -0.169 OA
ATOM     17  O   UNL     1      29.370 -22.465 -17.232  0.00  0.00    -0.169 OA
ATOM     18  C   UNL     1      28.955 -24.535 -15.704  0.00  0.00    +0.182 C 
ENDBRANCH  12  15
ENDBRANCH   4   9
BRANCH   5  19
ATOM     19  O   UNL     1      36.422 -21.837 -16.530  0.00  0.00    -0.469 OA
BRANCH  19  20
ATOM     20  C   UNL     1      36.854 -22.001 -17.874  0.00  0.00    +0.206 C 
BRANCH  20  21
ATOM     21  C   UNL     1      35.889 -21.285 -18.794  0.00  0.00    +0.044 C 
ATOM     22  C   UNL     1      35.066 -22.101 -19.724  0.00  0.00    +0.004 C 
ATOM     23  C   UNL     1      36.192 -21.260 -20.249  0.00  0.00    +0.004 C 
ENDBRANCH  20  21
ENDBRANCH  19  20
ENDBRANCH   5  19
TORSDOF 5
ENDMDL
MODEL 2
REMARK VINA RESULT:      -8.7      2.487      5.977
REMARK  Name = 208910
REMARK  5 active torsions:
REMARK  status: ('A' for Active; 'I' for Inactive)
REMARK    1  A    between atoms: C_4  and  C_9
REMARK    2  A    between atoms: C_5  and  O_19
REMARK    3  A    between atoms: C_12  and  S_15
REMARK    4  A    between atoms: O_19  and  C_20
REMARK    5  A    between atoms: C_20  and  C_21
REMARK                            x       y       z     vdW  Elec       q    Type
REMARK                         _______ _______ _______ _____ _____    ______ ____
ROOT
ATOM      1  O   UNL     1      30.740 -23.221 -15.067  0.00  0.00    -0.446 OA
ATOM      2  O   UNL     1      30.141 -22.842 -17.257  0.00  0.00    -0.241 OA
ATOM      3  C   UNL     1      31.960 -23.571 -14.371  0.00  0.00    +0.158 C 
ATOM      4  C   UNL     1      32.953 -23.684 -15.481  0.00  0.00    +0.054 C 
ATOM      5  C   UNL     1      32.380 -23.425 -16.659  0.00  0.00    +0.213 C 
ATOM      6  C   UNL     1      30.969 -23.125 -16.409  0.00  0.00    +0.376 C 
ATOM      7  C   UNL     1      31.713 -24.894 -13.646  0.00  0.00    +0.048 C 
ATOM      8  C   UNL     1      32.260 -22.446 -13.380  0.00  0.00    +0.048 C 
ENDROOT
BRANCH   4   9
ATOM      9  C   UNL     1      34.354 -24.044 -15.280  0.00  0.00    +0.002 C 
ATOM     10  C   UNL     1      35.334 -23.048 -15.200  0.00  0.00    +0.001 C 
ATOM     11  C   UNL     1      34.728 -25.386 -15.165  0.00  0.00    +0.001 C 
ATOM     12  C   UNL     1      37.039 -24.733 -14.894  0.00  0.00    +0.106 C 
ATOM     13  C   UNL     1      36.672 -23.391 -15.008  0.00  0.00    +0.018 C 
ATOM     14  C   UNL     1      36.067 -25.730 -14.973  0.00  0.00    +0.018 C 
BRANCH  12  15
ATOM     15  S   UNL     1      38.714 -25.163 -14.656  0.00  0.00    +0.010 S 
ATOM     16  O   UNL     1      38.865 -26.574 -14.982  0.00  0.00    -0.169 OA
ATOM     17  O   UNL     1      39.553 -24.174 -15.318  0.00  0.00    -0.169 OA
ATOM     18  C   UNL     1      38.973 -24.976 -12.906  0.00  0.00    +0.182 C 
ENDBRANCH  12  15
ENDBRANCH   4   9
BRANCH   5  19
ATOM     19  O   UNL     1      32.914 -23.416 -17.909  0.00  0.00    -0.469 OA
BRANCH  19  20
ATOM     20  C   UNL     1      33.363 -22.119 -18.278  0.00  0.00    +0.206 C 
BRANCH  20  21
ATOM     21  C   UNL     1      34.552 -22.253 -19.204  0.00  0.00    +0.044 C 
ATOM     22  C   UNL     1      35.873 -21.768 -18.728  0.00  0.00    +0.004 C 
ATOM     23  C   UNL     1      35.129 -21.015 -19.791  0.00  0.00    +0.004 C 
ENDBRANCH  20  21
ENDBRANCH  19  20
ENDBRANCH   5  19
TORSDOF 5
ENDMDL
MODEL 3
REMARK VINA RESULT:      -8.7      5.521      8.468
REMARK  Name = 208910
REMARK  5 active torsions:
REMARK  status: ('A' for Active; 'I' for Inactive)
REMARK    1  A    between atoms: C_4  and  C_9
REMARK    2  A    between atoms: C_5  and  O_19
REMARK    3  A    between atoms: C_12  and  S_15
REMARK    4  A    between atoms: O_19  and  C_20
REMARK    5  A    between atoms: C_20  and  C_21
REMARK                            x       y       z     vdW  Elec       q    Type
REMARK                         _______ _______ _______ _____ _____    ______ ____
ROOT
ATOM      1  O   UNL     1      35.127 -17.268 -24.297  0.00  0.00    -0.446 OA
ATOM      2  O   UNL     1      35.071 -15.137 -23.429  0.00  0.00    -0.241 OA
ATOM      3  C   UNL     1      34.927 -18.604 -23.778  0.00  0.00    +0.158 C 
ATOM      4  C   UNL     1      34.638 -18.359 -22.334  0.00  0.00    +0.054 C 
ATOM      5  C   UNL     1      34.662 -17.052 -22.060  0.00  0.00    +0.213 C 
ATOM      6  C   UNL     1      34.970 -16.345 -23.304  0.00  0.00    +0.376 C 
ATOM      7  C   UNL     1      36.219 -19.387 -24.011  0.00  0.00    +0.048 C 
ATOM      8  C   UNL     1      33.760 -19.223 -24.550  0.00  0.00    +0.048 C 
ENDROOT
BRANCH   4   9
ATOM      9  C   UNL     1      34.380 -19.424 -21.369  0.00  0.00    +0.002 C 
ATOM     10  C   UNL     1      33.070 -19.720 -20.977  0.00  0.00    +0.001 C 
ATOM     11  C   UNL     1      35.441 -20.156 -20.826  0.00  0.00    +0.001 C 
ATOM     12  C   UNL     1      33.886 -21.464 -19.517  0.00  0.00    +0.106 C 
ATOM     13  C   UNL     1      32.823 -20.737 -20.055  0.00  0.00    +0.018 C 
ATOM     14  C   UNL     1      35.195 -21.173 -19.903  0.00  0.00    +0.018 C 
BRANCH  12  15
ATOM     15  S   UNL     1      33.578 -22.735 -18.361  0.00  0.00    +0.010 S 
ATOM     16  O   UNL     1      32.320 -22.437 -17.692  0.00  0.00    -0.169 OA
ATOM     17  O   UNL     1      33.761 -24.023 -19.016  0.00  0.00    -0.169 OA
ATOM     18  C   UNL     1      34.884 -22.571 -17.166  0.00  0.00    +0.182 C 
ENDBRANCH  12  15
ENDBRANCH   4   9
BRANCH   5  19
ATOM     19  O   UNL     1      34.456 -16.400 -20.886  0.00  0.00    -0.469 OA
BRANCH  19  20
ATOM     20  C   UNL     1      33.156 -15.829 -20.825  0.00  0.00    +0.206 C 
BRANCH  20  21
ATOM     21  C   UNL     1      33.273 -14.322 -20.915  0.00  0.00    +0.044 C 
ATOM     22  C   UNL     1      32.204 -13.496 -20.298  0.00  0.00    +0.004 C 
ATOM     23  C   UNL     1      32.319 -13.593 -21.791  0.00  0.00    +0.004 C 
ENDBRANCH  20  21
ENDBRANCH  19  20
ENDBRANCH   5  19
TORSDOF 5
ENDMDL
MODEL 4
REMARK VINA RESULT:      -8.3      2.800      5.189
REMARK  Name = 208910
REMARK  5 active torsions:
REMARK  status: ('A' for Active; 'I' for Inactive)
REMARK    1  A    between atoms: C_4  and  C_9
REMARK    2  A    between atoms: C_5  and  O_19
REMARK    3  A    between atoms: C_12  and  S_15
REMARK    4  A    between atoms: O_19  and  C_20
REMARK    5  A    between atoms: C_20  and  C_21
REMARK                            x       y       z     vdW  Elec       q    Type
REMARK                         _______ _______ _______ _____ _____    ______ ____
ROOT
ATOM      1  O   UNL     1      36.594 -25.532 -12.787  0.00  0.00    -0.446 OA
ATOM      2  O   UNL     1      34.930 -24.999 -11.288  0.00  0.00    -0.241 OA
ATOM      3  C   UNL     1      36.960 -25.111 -14.122  0.00  0.00    +0.158 C 
ATOM      4  C   UNL     1      35.907 -24.106 -14.453  0.00  0.00    +0.054 C 
ATOM      5  C   UNL     1      35.050 -23.964 -13.438  0.00  0.00    +0.213 C 
ATOM      6  C   UNL     1      35.479 -24.866 -12.368  0.00  0.00    +0.376 C 
ATOM      7  C   UNL     1      36.921 -26.346 -15.022  0.00  0.00    +0.048 C 
ATOM      8  C   UNL     1      38.372 -24.529 -14.046  0.00  0.00    +0.048 C 
ENDROOT
BRANCH   4   9
ATOM      9  C   UNL     1      35.836 -23.398 -15.728  0.00  0.00    +0.002 C 
ATOM     10  C   UNL     1      34.685 -23.482 -16.520  0.00  0.00    +0.001 C 
ATOM     11  C   UNL     1      36.918 -22.631 -16.170  0.00  0.00    +0.001 C 
ATOM     12  C   UNL     1      35.701 -22.041 -18.172  0.00  0.00    +0.106 C 
ATOM     13  C   UNL     1      34.617 -22.805 -17.738  0.00  0.00    +0.018 C 
ATOM     14  C   UNL     1      36.852 -21.955 -17.389  0.00  0.00    +0.018 C 
BRANCH  12  15
ATOM     15  S   UNL     1      35.617 -21.197 -19.698  0.00  0.00    +0.010 S 
ATOM     16  O   UNL     1      36.391 -19.970 -19.574  0.00  0.00    -0.169 OA
ATOM     17  O   UNL     1      35.915 -22.133 -20.772  0.00  0.00    -0.169 OA
ATOM     18  C   UNL     1      33.904 -20.747 -19.861  0.00  0.00    +0.182 C 
ENDBRANCH  12  15
ENDBRANCH   4   9
BRANCH   5  19
ATOM     19  O   UNL     1      33.957 -23.164 -13.321  0.00  0.00    -0.469 OA
BRANCH  19  20
ATOM     20  C   UNL     1      32.767 -23.847 -13.691  0.00  0.00    +0.206 C 
BRANCH  20  21
ATOM     21  C   UNL     1      31.821 -22.868 -14.352  0.00  0.00    +0.044 C 
ATOM     22  C   UNL     1      30.377 -23.211 -14.403  0.00  0.00    +0.004 C 
ATOM     23  C   UNL     1      31.208 -23.251 -15.651  0.00  0.00    +0.004 C 
ENDBRANCH  20  21
ENDBRANCH  19  20
ENDBRANCH   5  19
TORSDOF 5
ENDMDL
MODEL 5
REMARK VINA RESULT:      -8.1      2.739      5.692
REMARK  Name = 208910
REMARK  5 active torsions:
REMARK  status: ('A' for Active; 'I' for Inactive)
REMARK    1  A    between atoms: C_4  and  C_9
REMARK    2  A    between atoms: C_5  and  O_19
REMARK    3  A    between atoms: C_12  and  S_15
REMARK    4  A    between atoms: O_19  and  C_20
REMARK    5  A    between atoms: C_20  and  C_21
REMARK                            x       y       z     vdW  Elec       q    Type
REMARK                         _______ _______ _______ _____ _____    ______ ____
ROOT
ATOM      1  O   UNL     1      31.834 -22.714 -17.308  0.00  0.00    -0.446 OA
ATOM      2  O   UNL     1      32.704 -22.089 -19.345  0.00  0.00    -0.241 OA
ATOM      3  C   UNL     1      32.370 -23.233 -16.067  0.00  0.00    +0.158 C 
ATOM      4  C   UNL     1      33.831 -23.334 -16.354  0.00  0.00    +0.054 C 
ATOM      5  C   UNL     1      34.102 -22.921 -17.595  0.00  0.00    +0.213 C 
ATOM      6  C   UNL     1      32.837 -22.520 -18.214  0.00  0.00    +0.376 C 
ATOM      7  C   UNL     1      31.709 -24.588 -15.812  0.00  0.00    +0.048 C 
ATOM      8  C   UNL     1      32.020 -22.233 -14.965  0.00  0.00    +0.048 C 
ENDROOT
BRANCH   4   9
ATOM      9  C   UNL     1      34.812 -23.834 -15.394  0.00  0.00    +0.002 C 
ATOM     10  C   UNL     1      35.130 -25.196 -15.354  0.00  0.00    +0.001 C 
ATOM     11  C   UNL     1      35.441 -22.956 -14.506  0.00  0.00    +0.001 C 
ATOM     12  C   UNL     1      36.690 -24.792 -13.554  0.00  0.00    +0.106 C 
ATOM     13  C   UNL     1      36.066 -25.674 -14.438  0.00  0.00    +0.018 C 
ATOM     14  C   UNL     1      36.377 -23.434 -13.588  0.00  0.00    +0.018 C 
BRANCH  12  15
ATOM     15  S   UNL     1      37.860 -25.391 -12.405  0.00  0.00    +0.010 S 
ATOM     16  O   UNL     1      38.067 -24.360 -11.399  0.00  0.00    -0.169 OA
ATOM     17  O   UNL     1      37.475 -26.734 -11.995  0.00  0.00    -0.169 OA
ATOM     18  C   UNL     1      39.362 -25.547 -13.345  0.00  0.00    +0.182 C 
ENDBRANCH  12  15
ENDBRANCH   4   9
BRANCH   5  19
ATOM     19  O   UNL     1      35.288 -22.848 -18.255  0.00  0.00    -0.469 OA
BRANCH  19  20
ATOM     20  C   UNL     1      35.727 -21.504 -18.396  0.00  0.00    +0.206 C 
BRANCH  20  21
ATOM     21  C   UNL     1      36.115 -21.260 -19.839  0.00  0.00    +0.044 C 
ATOM     22  C   UNL     1      36.743 -19.960 -20.188  0.00  0.00    +0.004 C 
ATOM     23  C   UNL     1      35.337 -20.260 -20.616  0.00  0.00    +0.004 C 
ENDBRANCH  20  21
ENDBRANCH  19  20
ENDBRANCH   5  19
TORSDOF 5
ENDMDL
MODEL 6
REMARK VINA RESULT:      -8.0     10.607     13.741
REMARK  Name = 208910
REMARK  5 active torsions:
REMARK  status: ('A' for Active; 'I' for Inactive)
REMARK    1  A    between atoms: C_4  and  C_9
REMARK    2  A    between atoms: C_5  and  O_19
REMARK    3  A    between atoms: C_12  and  S_15
REMARK    4  A    between atoms: O_19  and  C_20
REMARK    5  A    between atoms: C_20  and  C_21
REMARK                            x       y       z     vdW  Elec       q    Type
REMARK                         _______ _______ _______ _____ _____    ______ ____
ROOT
ATOM      1  O   UNL     1      33.809 -15.638 -26.515  0.00  0.00    -0.446 OA
ATOM      2  O   UNL     1      34.944 -17.171 -25.227  0.00  0.00    -0.241 OA
ATOM      3  C   UNL     1      33.305 -14.295 -26.324  0.00  0.00    +0.158 C 
ATOM      4  C   UNL     1      33.685 -13.995 -24.912  0.00  0.00    +0.054 C 
ATOM      5  C   UNL     1      34.330 -15.029 -24.365  0.00  0.00    +0.213 C 
ATOM      6  C   UNL     1      34.418 -16.082 -25.377  0.00  0.00    +0.376 C 
ATOM      7  C   UNL     1      31.793 -14.334 -26.547  0.00  0.00    +0.048 C 
ATOM      8  C   UNL     1      33.991 -13.399 -27.356  0.00  0.00    +0.048 C 
ENDROOT
BRANCH   4   9
ATOM      9  C   UNL     1      33.371 -12.738 -24.238  0.00  0.00    +0.002 C 
ATOM     10  C   UNL     1      32.446 -12.711 -23.189  0.00  0.00    +0.001 C 
ATOM     11  C   UNL     1      33.992 -11.550 -24.637  0.00  0.00    +0.001 C 
ATOM     12  C   UNL     1      32.769 -10.329 -22.948  0.00  0.00    +0.106 C 
ATOM     13  C   UNL     1      32.146 -11.511 -22.545  0.00  0.00    +0.018 C 
ATOM     14  C   UNL     1      33.691 -10.349 -23.994  0.00  0.00    +0.018 C 
BRANCH  12  15
ATOM     15  S   UNL     1      32.392  -8.826 -22.144  0.00  0.00    +0.010 S 
ATOM     16  O   UNL     1      31.210  -8.262 -22.780  0.00  0.00    -0.169 OA
ATOM     17  O   UNL     1      32.403  -9.046 -20.704  0.00  0.00    -0.169 OA
ATOM     18  C   UNL     1      33.771  -7.767 -22.518  0.00  0.00    +0.182 C 
ENDBRANCH  12  15
ENDBRANCH   4   9
BRANCH   5  19
ATOM     19  O   UNL     1      34.845 -15.177 -23.115  0.00  0.00    -0.469 OA
BRANCH  19  20
ATOM     20  C   UNL     1      34.271 -16.289 -22.441  0.00  0.00    +0.206 C 
BRANCH  20  21
ATOM     21  C   UNL     1      34.126 -15.955 -20.972  0.00  0.00    +0.044 C 
ATOM     22  C   UNL     1      32.901 -15.238 -20.531  0.00  0.00    +0.004 C 
ATOM     23  C   UNL     1      34.223 -14.529 -20.562  0.00  0.00    +0.004 C 
ENDBRANCH  20  21
ENDBRANCH  19  20
ENDBRANCH   5  19
TORSDOF 5
ENDMDL
MODEL 7
REMARK VINA RESULT:      -7.9      6.040      9.446
REMARK  Name = 208910
REMARK  5 active torsions:
REMARK  status: ('A' for Active; 'I' for Inactive)
REMARK    1  A    between atoms: C_4  and  C_9
REMARK    2  A    between atoms: C_5  and  O_19
REMARK    3  A    between atoms: C_12  and  S_15
REMARK    4  A    between atoms: O_19  and  C_20
REMARK    5  A    between atoms: C_20  and  C_21
REMARK                            x       y       z     vdW  Elec       q    Type
REMARK                         _______ _______ _______ _____ _____    ______ ____
ROOT
ATOM      1  O   UNL     1      33.567 -14.304 -22.540  0.00  0.00    -0.446 OA
ATOM      2  O   UNL     1      34.132 -14.193 -24.769  0.00  0.00    -0.241 OA
ATOM      3  C   UNL     1      33.681 -15.293 -21.490  0.00  0.00    +0.158 C 
ATOM      4  C   UNL     1      34.324 -16.445 -22.188  0.00  0.00    +0.054 C 
ATOM      5  C   UNL     1      34.556 -16.154 -23.471  0.00  0.00    +0.213 C 
ATOM      6  C   UNL     1      34.080 -14.790 -23.708  0.00  0.00    +0.376 C 
ATOM      7  C   UNL     1      32.269 -15.601 -20.992  0.00  0.00    +0.048 C 
ATOM      8  C   UNL     1      34.536 -14.682 -20.380  0.00  0.00    +0.048 C 
ENDROOT
BRANCH   4   9
ATOM      9  C   UNL     1      34.636 -17.714 -21.537  0.00  0.00    +0.002 C 
ATOM     10  C   UNL     1      33.608 -18.588 -21.165  0.00  0.00    +0.001 C 
ATOM     11  C   UNL     1      35.964 -18.068 -21.279  0.00  0.00    +0.001 C 
ATOM     12  C   UNL     1      35.233 -20.147 -20.288  0.00  0.00    +0.106 C 
ATOM     13  C   UNL     1      33.905 -19.800 -20.543  0.00  0.00    +0.018 C 
ATOM     14  C   UNL     1      36.262 -19.280 -20.656  0.00  0.00    +0.018 C 
BRANCH  12  15
ATOM     15  S   UNL     1      35.605 -21.663 -19.508  0.00  0.00    +0.010 S 
ATOM     16  O   UNL     1      36.140 -22.567 -20.516  0.00  0.00    -0.169 OA
ATOM     17  O   UNL     1      36.369 -21.395 -18.297  0.00  0.00    -0.169 OA
ATOM     18  C   UNL     1      34.024 -22.294 -18.993  0.00  0.00    +0.182 C 
ENDBRANCH  12  15
ENDBRANCH   4   9
BRANCH   5  19
ATOM     19  O   UNL     1      35.118 -16.908 -24.452  0.00  0.00    -0.469 OA
BRANCH  19  20
ATOM     20  C   UNL     1      34.133 -17.571 -25.232  0.00  0.00    +0.206 C 
BRANCH  20  21
ATOM     21  C   UNL     1      33.991 -18.996 -24.742  0.00  0.00    +0.044 C 
ATOM     22  C   UNL     1      35.210 -19.702 -24.271  0.00  0.00    +0.004 C 
ATOM     23  C   UNL     1      34.567 -20.086 -25.571  0.00  0.00    +0.004 C 
ENDBRANCH  20  21
ENDBRANCH  19  20
ENDBRANCH   5  19
TORSDOF 5
ENDMDL
MODEL 8
REMARK VINA RESULT:      -7.9     10.549     13.216
REMARK  Name = 208910
REMARK  5 active torsions:
REMARK  status: ('A' for Active; 'I' for Inactive)
REMARK    1  A    between atoms: C_4  and  C_9
REMARK    2  A    between atoms: C_5  and  O_19
REMARK    3  A    between atoms: C_12  and  S_15
REMARK    4  A    between atoms: O_19  and  C_20
REMARK    5  A    between atoms: C_20  and  C_21
REMARK                            x       y       z     vdW  Elec       q    Type
REMARK                         _______ _______ _______ _____ _____    ______ ____
ROOT
ATOM      1  O   UNL     1      34.146 -16.675 -22.175  0.00  0.00    -0.446 OA
ATOM      2  O   UNL     1      34.741 -17.491 -24.244  0.00  0.00    -0.241 OA
ATOM      3  C   UNL     1      33.663 -15.413 -21.658  0.00  0.00    +0.158 C 
ATOM      4  C   UNL     1      33.606 -14.555 -22.879  0.00  0.00    +0.054 C 
ATOM      5  C   UNL     1      33.999 -15.238 -23.958  0.00  0.00    +0.213 C 
ATOM      6  C   UNL     1      34.343 -16.592 -23.523  0.00  0.00    +0.376 C 
ATOM      7  C   UNL     1      34.673 -14.922 -20.622  0.00  0.00    +0.048 C 
ATOM      8  C   UNL     1      32.299 -15.674 -21.018  0.00  0.00    +0.048 C 
ENDROOT
BRANCH   4   9
ATOM      9  C   UNL     1      33.187 -13.156 -22.867  0.00  0.00    +0.002 C 
ATOM     10  C   UNL     1      33.822 -12.222 -23.692  0.00  0.00    +0.001 C 
ATOM     11  C   UNL     1      32.148 -12.738 -22.029  0.00  0.00    +0.001 C 
ATOM     12  C   UNL     1      32.384 -10.476 -22.842  0.00  0.00    +0.106 C 
ATOM     13  C   UNL     1      33.422 -10.886 -23.681  0.00  0.00    +0.018 C 
ATOM     14  C   UNL     1      31.748 -11.402 -22.017  0.00  0.00    +0.018 C 
BRANCH  12  15
ATOM     15  S   UNL     1      31.885  -8.803 -22.826  0.00  0.00    +0.010 S 
ATOM     16  O   UNL     1      30.720  -8.674 -23.689  0.00  0.00    -0.169 OA
ATOM     17  O   UNL     1      31.816  -8.345 -21.445  0.00  0.00    -0.169 OA
ATOM     18  C   UNL     1      33.232  -7.932 -23.594  0.00  0.00    +0.182 C 
ENDBRANCH  12  15
ENDBRANCH   4   9
BRANCH   5  19
ATOM     19  O   UNL     1      34.099 -14.844 -25.255  0.00  0.00    -0.469 OA
BRANCH  19  20
ATOM     20  C   UNL     1      32.951 -15.217 -26.005  0.00  0.00    +0.206 C 
BRANCH  20  21
ATOM     21  C   UNL     1      32.853 -14.335 -27.231  0.00  0.00    +0.044 C 
ATOM     22  C   UNL     1      33.852 -13.247 -27.396  0.00  0.00    +0.004 C 
ATOM     23  C   UNL     1      32.430 -12.922 -27.048  0.00  0.00    +0.004 C 
ENDBRANCH  20  21
ENDBRANCH  19  20
ENDBRANCH   5  19
TORSDOF 5
ENDMDL
MODEL 9
REMARK VINA RESULT:      -7.8      2.703      5.811
REMARK  Name = 208910
REMARK  5 active torsions:
REMARK  status: ('A' for Active; 'I' for Inactive)
REMARK    1  A    between atoms: C_4  and  C_9
REMARK    2  A    between atoms: C_5  and  O_19
REMARK    3  A    between atoms: C_12  and  S_15
REMARK    4  A    between atoms: O_19  and  C_20
REMARK    5  A    between atoms: C_20  and  C_21
REMARK                            x       y       z     vdW  Elec       q    Type
REMARK                         _______ _______ _______ _____ _____    ______ ____
ROOT
ATOM      1  O   UNL     1      34.148 -24.972 -13.301  0.00  0.00    -0.446 OA
ATOM      2  O   UNL     1      31.860 -25.110 -13.093  0.00  0.00    -0.241 OA
ATOM      3  C   UNL     1      35.069 -24.380 -14.247  0.00  0.00    +0.158 C 
ATOM      4  C   UNL     1      34.158 -23.769 -15.259  0.00  0.00    +0.054 C 
ATOM      5  C   UNL     1      32.879 -23.978 -14.934  0.00  0.00    +0.213 C 
ATOM      6  C   UNL     1      32.859 -24.741 -13.685  0.00  0.00    +0.376 C 
ATOM      7  C   UNL     1      35.935 -25.505 -14.814  0.00  0.00    +0.048 C 
ATOM      8  C   UNL     1      35.918 -23.364 -13.482  0.00  0.00    +0.048 C 
ENDROOT
BRANCH   4   9
ATOM      9  C   UNL     1      34.626 -23.057 -16.445  0.00  0.00    +0.002 C 
ATOM     10  C   UNL     1      33.809 -22.955 -17.576  0.00  0.00    +0.001 C 
ATOM     11  C   UNL     1      35.895 -22.470 -16.460  0.00  0.00    +0.001 C 
ATOM     12  C   UNL     1      35.524 -21.691 -18.717  0.00  0.00    +0.106 C 
ATOM     13  C   UNL     1      34.256 -22.274 -18.708  0.00  0.00    +0.018 C 
ATOM     14  C   UNL     1      36.343 -21.790 -17.592  0.00  0.00    +0.018 C 
BRANCH  12  15
ATOM     15  S   UNL     1      36.084 -20.841 -20.135  0.00  0.00    +0.010 S 
ATOM     16  O   UNL     1      36.936 -19.746 -19.693  0.00  0.00    -0.169 OA
ATOM     17  O   UNL     1      36.593 -21.811 -21.095  0.00  0.00    -0.169 OA
ATOM     18  C   UNL     1      34.611 -20.137 -20.839  0.00  0.00    +0.182 C 
ENDBRANCH  12  15
ENDBRANCH   4   9
BRANCH   5  19
ATOM     19  O   UNL     1      31.741 -23.598 -15.572  0.00  0.00    -0.469 OA
BRANCH  19  20
ATOM     20  C   UNL     1      31.053 -22.581 -14.855  0.00  0.00    +0.206 C 
BRANCH  20  21
ATOM     21  C   UNL     1      29.564 -22.748 -15.066  0.00  0.00    +0.044 C 
ATOM     22  C   UNL     1      29.078 -24.015 -15.671  0.00  0.00    +0.004 C 
ATOM     23  C   UNL     1      29.045 -22.739 -16.458  0.00  0.00    +0.004 C 
ENDBRANCH  20  21
ENDBRANCH  19  20
ENDBRANCH   5  19
TORSDOF 5
ENDMDL
