MODEL 1
REMARK VINA RESULT:     -10.9      0.000      0.000
REMARK  Name = 11641515
REMARK  6 active torsions:
REMARK  status: ('A' for Active; 'I' for Inactive)
REMARK    1  A    between atoms: C_1  and  C_9
REMARK    2  A    between atoms: C_1  and  O_18
REMARK    3  A    between atoms: C_1  and  C_20
REMARK    4  A    between atoms: C_4  and  N_11
REMARK    5  A    between atoms: C_20  and  S_21
REMARK    6  A    between atoms: S_21  and  C_25
REMARK                            x       y       z     vdW  Elec       q    Type
REMARK                         _______ _______ _______ _____ _____    ______ ____
ROOT
ATOM      1  C   UNL     1      34.440 -19.404 -21.536  0.00  0.00    +0.211 C 
ENDROOT
BRANCH   1   9
ATOM      2  O   UNL     1      36.430 -19.086 -20.290  0.00  0.00    -0.272 OA
ATOM      3  N   UNL     1      35.304 -21.089 -19.949  0.00  0.00    -0.277 N 
ATOM      4  C   UNL     1      34.477 -22.966 -17.905  0.00  0.00    +0.080 C 
ATOM      5  C   UNL     1      33.485 -22.404 -18.929  0.00  0.00    +0.041 C 
ATOM      6  C   UNL     1      35.633 -21.985 -17.679  0.00  0.00    +0.041 C 
ATOM      7  C   UNL     1      34.190 -22.005 -20.224  0.00  0.00    +0.095 C 
ATOM      8  C   UNL     1      36.294 -21.597 -18.999  0.00  0.00    +0.095 C 
ATOM      9  C   UNL     1      35.485 -19.838 -20.538  0.00  0.00    +0.254 C 
BRANCH   4  11
ATOM     10  O   UNL     1      35.698 -24.222 -15.687  0.00  0.00    -0.253 OA
ATOM     11  N   UNL     1      33.812 -23.271 -16.660  0.00  0.00    -0.266 N 
ATOM     12  N   UNL     1      33.808 -24.056 -14.430  0.00  0.00    -0.289 N 
ATOM     13  C   UNL     1      32.438 -22.786 -16.518  0.00  0.00    +0.097 C 
ATOM     14  C   UNL     1      31.663 -23.589 -15.490  0.00  0.00    +0.043 C 
ATOM     15  C   UNL     1      34.520 -23.864 -15.605  0.00  0.00    +0.304 C 
ATOM     16  C   UNL     1      32.452 -23.596 -14.198  0.00  0.00    +0.093 C 
ATOM     17  H   UNL     1      34.255 -24.539 -13.698  0.00  0.00    +0.151 HD
ENDBRANCH   4  11
ENDBRANCH   1   9
BRANCH   1  18
ATOM     18  O   UNL     1      35.019 -19.636 -22.806  0.00  0.00    -0.375 OA
ATOM     19  H   UNL     1      35.972 -19.466 -22.762  0.00  0.00    +0.211 HD
ENDBRANCH   1  18
BRANCH   1  20
ATOM     20  C   UNL     1      34.142 -17.933 -21.359  0.00  0.00    +0.194 C 
BRANCH  20  21
ATOM     21  S   UNL     1      34.629 -17.011 -22.787  0.00  0.00    +0.012 S 
ATOM     22  O   UNL     1      34.039 -17.627 -23.961  0.00  0.00    -0.169 OA
ATOM     23  O   UNL     1      36.064 -16.803 -22.710  0.00  0.00    -0.169 OA
BRANCH  21  25
ATOM     24 CL   UNL     1      31.534  -9.131 -22.708  0.00  0.00    -0.082 Cl
ATOM     25  C   UNL     1      33.839 -15.444 -22.572  0.00  0.00    +0.106 C 
ATOM     26  C   UNL     1      34.174 -14.399 -23.415  0.00  0.00    +0.018 C 
ATOM     27  C   UNL     1      32.903 -15.293 -21.569  0.00  0.00    +0.018 C 
ATOM     28  C   UNL     1      33.556 -13.147 -23.258  0.00  0.00    +0.001 C 
ATOM     29  C   UNL     1      32.595 -12.974 -22.234  0.00  0.00    +0.001 C 
ATOM     30  C   UNL     1      32.279 -14.057 -21.398  0.00  0.00    +0.001 C 
ATOM     31  C   UNL     1      33.872 -12.063 -24.093  0.00  0.00    +0.001 C 
ATOM     32  C   UNL     1      31.977 -11.723 -22.076  0.00  0.00    +0.011 C 
ATOM     33  C   UNL     1      33.248 -10.827 -23.923  0.00  0.00    +0.011 C 
ATOM     34  C   UNL     1      32.303 -10.657 -22.916  0.00  0.00    +0.058 C 
ENDBRANCH  21  25
ENDBRANCH  20  21
ENDBRANCH   1  20
TORSDOF 6
ENDMDL
MODEL 2
REMARK VINA RESULT:     -10.8      4.888     10.135
REMARK  Name = 11641515
REMARK  6 active torsions:
REMARK  status: ('A' for Active; 'I' for Inactive)
REMARK    1  A    between atoms: C_1  and  C_9
REMARK    2  A    between atoms: C_1  and  O_18
REMARK    3  A    between atoms: C_1  and  C_20
REMARK    4  A    between atoms: C_4  and  N_11
REMARK    5  A    between atoms: C_20  and  S_21
REMARK    6  A    between atoms: S_21  and  C_25
REMARK                            x       y       z     vdW  Elec       q    Type
REMARK                         _______ _______ _______ _____ _____    ______ ____
ROOT
ATOM      1  C   UNL     1      35.027 -18.911 -24.100  0.00  0.00    +0.211 C 
ENDROOT
BRANCH   1   9
ATOM      2  O   UNL     1      33.420 -18.508 -25.794  0.00  0.00    -0.272 OA
ATOM      3  N   UNL     1      34.388 -16.636 -24.816  0.00  0.00    -0.277 N 
ATOM      4  C   UNL     1      33.808 -13.981 -23.813  0.00  0.00    +0.080 C 
ATOM      5  C   UNL     1      34.577 -15.008 -22.974  0.00  0.00    +0.041 C 
ATOM      6  C   UNL     1      32.883 -14.686 -24.813  0.00  0.00    +0.041 C 
ATOM      7  C   UNL     1      35.311 -16.012 -23.861  0.00  0.00    +0.095 C 
ATOM      8  C   UNL     1      33.653 -15.693 -25.662  0.00  0.00    +0.095 C 
ATOM      9  C   UNL     1      34.204 -18.007 -24.983  0.00  0.00    +0.254 C 
BRANCH   4  11
ATOM     10  O   UNL     1      33.486 -11.212 -24.278  0.00  0.00    -0.253 OA
ATOM     11  N   UNL     1      33.058 -13.084 -22.965  0.00  0.00    -0.266 N 
ATOM     12  N   UNL     1      32.136 -10.967 -22.462  0.00  0.00    -0.289 N 
ATOM     13  C   UNL     1      32.330 -13.694 -21.852  0.00  0.00    +0.097 C 
ATOM     14  C   UNL     1      32.059 -12.693 -20.743  0.00  0.00    +0.043 C 
ATOM     15  C   UNL     1      32.930 -11.730 -23.305  0.00  0.00    +0.304 C 
ATOM     16  C   UNL     1      31.369 -11.490 -21.347  0.00  0.00    +0.093 C 
ATOM     17  H   UNL     1      32.088  -9.998 -22.632  0.00  0.00    +0.151 HD
ENDBRANCH   4  11
ENDBRANCH   1   9
BRANCH   1  18
ATOM     18  O   UNL     1      35.001 -20.176 -24.735  0.00  0.00    -0.375 OA
ATOM     19  H   UNL     1      34.496 -20.113 -25.560  0.00  0.00    +0.211 HD
ENDBRANCH   1  18
BRANCH   1  20
ATOM     20  C   UNL     1      34.396 -19.003 -22.730  0.00  0.00    +0.194 C 
BRANCH  20  21
ATOM     21  S   UNL     1      35.607 -18.794 -21.459  0.00  0.00    +0.012 S 
ATOM     22  O   UNL     1      35.385 -17.513 -20.812  0.00  0.00    -0.169 OA
ATOM     23  O   UNL     1      36.904 -19.113 -22.028  0.00  0.00    -0.169 OA
BRANCH  21  25
ATOM     24 CL   UNL     1      34.841 -24.649 -15.393  0.00  0.00    -0.082 Cl
ATOM     25  C   UNL     1      35.207 -20.047 -20.278  0.00  0.00    +0.106 C 
ATOM     26  C   UNL     1      36.166 -20.442 -19.362  0.00  0.00    +0.018 C 
ATOM     27  C   UNL     1      33.946 -20.608 -20.292  0.00  0.00    +0.018 C 
ATOM     28  C   UNL     1      35.865 -21.437 -18.417  0.00  0.00    +0.001 C 
ATOM     29  C   UNL     1      34.577 -22.023 -18.417  0.00  0.00    +0.001 C 
ATOM     30  C   UNL     1      33.629 -21.598 -19.362  0.00  0.00    +0.001 C 
ATOM     31  C   UNL     1      36.813 -21.863 -17.473  0.00  0.00    +0.001 C 
ATOM     32  C   UNL     1      34.275 -23.018 -17.473  0.00  0.00    +0.011 C 
ATOM     33  C   UNL     1      36.496 -22.852 -16.542  0.00  0.00    +0.011 C 
ATOM     34  C   UNL     1      35.230 -23.429 -16.543  0.00  0.00    +0.058 C 
ENDBRANCH  21  25
ENDBRANCH  20  21
ENDBRANCH   1  20
TORSDOF 6
ENDMDL
MODEL 3
REMARK VINA RESULT:     -10.7      5.338     11.064
REMARK  Name = 11641515
REMARK  6 active torsions:
REMARK  status: ('A' for Active; 'I' for Inactive)
REMARK    1  A    between atoms: C_1  and  C_9
REMARK    2  A    between atoms: C_1  and  O_18
REMARK    3  A    between atoms: C_1  and  C_20
REMARK    4  A    between atoms: C_4  and  N_11
REMARK    5  A    between atoms: C_20  and  S_21
REMARK    6  A    between atoms: S_21  and  C_25
REMARK                            x       y       z     vdW  Elec       q    Type
REMARK                         _______ _______ _______ _____ _____    ______ ____
ROOT
ATOM      1  C   UNL     1      34.107 -14.703 -22.154  0.00  0.00    +0.211 C 
ENDROOT
BRANCH   1   9
ATOM      2  O   UNL     1      32.944 -14.707 -20.090  0.00  0.00    -0.272 OA
ATOM      3  N   UNL     1      32.297 -13.103 -21.642  0.00  0.00    -0.277 N 
ATOM      4  C   UNL     1      31.528 -10.325 -21.923  0.00  0.00    +0.080 C 
ATOM      5  C   UNL     1      32.624 -10.948 -22.794  0.00  0.00    +0.041 C 
ATOM      6  C   UNL     1      31.422 -11.059 -20.582  0.00  0.00    +0.041 C 
ATOM      7  C   UNL     1      32.419 -12.454 -22.952  0.00  0.00    +0.095 C 
ATOM      8  C   UNL     1      31.240 -12.560 -20.786  0.00  0.00    +0.095 C 
ATOM      9  C   UNL     1      33.066 -14.178 -21.198  0.00  0.00    +0.254 C 
BRANCH   4  11
ATOM     10  O   UNL     1      31.006  -8.303 -23.828  0.00  0.00    -0.253 OA
ATOM     11  N   UNL     1      31.773  -8.917 -21.719  0.00  0.00    -0.266 N 
ATOM     12  N   UNL     1      31.658  -6.656 -22.399  0.00  0.00    -0.289 N 
ATOM     13  C   UNL     1      32.221  -8.519 -20.384  0.00  0.00    +0.097 C 
ATOM     14  C   UNL     1      32.963  -7.195 -20.412  0.00  0.00    +0.043 C 
ATOM     15  C   UNL     1      31.444  -7.989 -22.717  0.00  0.00    +0.304 C 
ATOM     16  C   UNL     1      32.085  -6.172 -21.100  0.00  0.00    +0.093 C 
ATOM     17  H   UNL     1      31.508  -5.987 -23.106  0.00  0.00    +0.151 HD
ENDBRANCH   4  11
ENDBRANCH   1   9
BRANCH   1  18
ATOM     18  O   UNL     1      34.568 -13.569 -22.863  0.00  0.00    -0.375 OA
ATOM     19  H   UNL     1      34.731 -13.809 -23.787  0.00  0.00    +0.211 HD
ENDBRANCH   1  18
BRANCH   1  20
ATOM     20  C   UNL     1      33.476 -15.693 -23.106  0.00  0.00    +0.194 C 
BRANCH  20  21
ATOM     21  S   UNL     1      34.695 -16.763 -23.808  0.00  0.00    +0.012 S 
ATOM     22  O   UNL     1      35.945 -16.033 -23.923  0.00  0.00    -0.169 OA
ATOM     23  O   UNL     1      34.107 -17.398 -24.974  0.00  0.00    -0.169 OA
BRANCH  21  25
ATOM     24 CL   UNL     1      34.611 -22.830 -17.903  0.00  0.00    -0.082 Cl
ATOM     25  C   UNL     1      34.934 -18.006 -22.574  0.00  0.00    +0.106 C 
ATOM     26  C   UNL     1      33.830 -18.658 -22.051  0.00  0.00    +0.018 C 
ATOM     27  C   UNL     1      36.215 -18.302 -22.154  0.00  0.00    +0.018 C 
ATOM     28  C   UNL     1      34.002 -19.648 -21.069  0.00  0.00    +0.001 C 
ATOM     29  C   UNL     1      35.308 -19.963 -20.626  0.00  0.00    +0.001 C 
ATOM     30  C   UNL     1      36.404 -19.281 -21.178  0.00  0.00    +0.001 C 
ATOM     31  C   UNL     1      32.906 -20.330 -20.516  0.00  0.00    +0.001 C 
ATOM     32  C   UNL     1      35.481 -20.952 -19.644  0.00  0.00    +0.011 C 
ATOM     33  C   UNL     1      33.095 -21.309 -19.541  0.00  0.00    +0.011 C 
ATOM     34  C   UNL     1      34.380 -21.620 -19.106  0.00  0.00    +0.058 C 
ENDBRANCH  21  25
ENDBRANCH  20  21
ENDBRANCH   1  20
TORSDOF 6
ENDMDL
MODEL 4
REMARK VINA RESULT:     -10.7      5.099     11.272
REMARK  Name = 11641515
REMARK  6 active torsions:
REMARK  status: ('A' for Active; 'I' for Inactive)
REMARK    1  A    between atoms: C_1  and  C_9
REMARK    2  A    between atoms: C_1  and  O_18
REMARK    3  A    between atoms: C_1  and  C_20
REMARK    4  A    between atoms: C_4  and  N_11
REMARK    5  A    between atoms: C_20  and  S_21
REMARK    6  A    between atoms: S_21  and  C_25
REMARK                            x       y       z     vdW  Elec       q    Type
REMARK                         _______ _______ _______ _____ _____    ______ ____
ROOT
ATOM      1  C   UNL     1      34.577 -15.727 -22.969  0.00  0.00    +0.211 C 
ENDROOT
BRANCH   1   9
ATOM      2  O   UNL     1      33.128 -15.260 -21.153  0.00  0.00    -0.272 OA
ATOM      3  N   UNL     1      32.968 -13.853 -22.994  0.00  0.00    -0.277 N 
ATOM      4  C   UNL     1      32.671 -11.080 -23.776  0.00  0.00    +0.080 C 
ATOM      5  C   UNL     1      33.781 -11.965 -24.354  0.00  0.00    +0.041 C 
ATOM      6  C   UNL     1      32.257 -11.575 -22.386  0.00  0.00    +0.041 C 
ATOM      7  C   UNL     1      33.381 -13.439 -24.340  0.00  0.00    +0.095 C 
ATOM      8  C   UNL     1      31.887 -13.055 -22.413  0.00  0.00    +0.095 C 
ATOM      9  C   UNL     1      33.493 -14.932 -22.284  0.00  0.00    +0.254 C 
BRANCH   4  11
ATOM     10  O   UNL     1      30.965  -8.895 -23.226  0.00  0.00    -0.253 OA
ATOM     11  N   UNL     1      33.090  -9.699 -23.726  0.00  0.00    -0.266 N 
ATOM     12  N   UNL     1      32.684  -7.406 -23.321  0.00  0.00    -0.289 N 
ATOM     13  C   UNL     1      34.525  -9.446 -23.864  0.00  0.00    +0.097 C 
ATOM     14  C   UNL     1      34.802  -8.035 -24.348  0.00  0.00    +0.043 C 
ATOM     15  C   UNL     1      32.169  -8.691 -23.408  0.00  0.00    +0.304 C 
ATOM     16  C   UNL     1      34.089  -7.067 -23.429  0.00  0.00    +0.093 C 
ATOM     17  H   UNL     1      32.048  -6.668 -23.174  0.00  0.00    +0.151 HD
ENDBRANCH   4  11
ENDBRANCH   1   9
BRANCH   1  18
ATOM     18  O   UNL     1      33.900 -16.568 -23.883  0.00  0.00    -0.375 OA
ATOM     19  H   UNL     1      32.998 -16.240 -24.017  0.00  0.00    +0.211 HD
ENDBRANCH   1  18
BRANCH   1  20
ATOM     20  C   UNL     1      35.324 -16.558 -21.951  0.00  0.00    +0.194 C 
BRANCH  20  21
ATOM     21  S   UNL     1      35.723 -18.152 -22.602  0.00  0.00    +0.012 S 
ATOM     22  O   UNL     1      37.154 -18.361 -22.478  0.00  0.00    -0.169 OA
ATOM     23  O   UNL     1      35.073 -18.275 -23.895  0.00  0.00    -0.169 OA
BRANCH  21  25
ATOM     24 CL   UNL     1      33.091 -23.799 -16.870  0.00  0.00    -0.082 Cl
ATOM     25  C   UNL     1      34.936 -19.276 -21.489  0.00  0.00    +0.106 C 
ATOM     26  C   UNL     1      35.715 -20.016 -20.615  0.00  0.00    +0.018 C 
ATOM     27  C   UNL     1      33.561 -19.396 -21.511  0.00  0.00    +0.018 C 
ATOM     28  C   UNL     1      35.105 -20.915 -19.723  0.00  0.00    +0.001 C 
ATOM     29  C   UNL     1      33.697 -21.051 -19.733  0.00  0.00    +0.001 C 
ATOM     30  C   UNL     1      32.939 -20.285 -20.633  0.00  0.00    +0.001 C 
ATOM     31  C   UNL     1      35.863 -21.682 -18.823  0.00  0.00    +0.001 C 
ATOM     32  C   UNL     1      33.087 -21.949 -18.842  0.00  0.00    +0.011 C 
ATOM     33  C   UNL     1      35.241 -22.570 -17.945  0.00  0.00    +0.011 C 
ATOM     34  C   UNL     1      33.856 -22.703 -17.955  0.00  0.00    +0.058 C 
ENDBRANCH  21  25
ENDBRANCH  20  21
ENDBRANCH   1  20
TORSDOF 6
ENDMDL
MODEL 5
REMARK VINA RESULT:     -10.5      1.444      2.128
REMARK  Name = 11641515
REMARK  6 active torsions:
REMARK  status: ('A' for Active; 'I' for Inactive)
REMARK    1  A    between atoms: C_1  and  C_9
REMARK    2  A    between atoms: C_1  and  O_18
REMARK    3  A    between atoms: C_1  and  C_20
REMARK    4  A    between atoms: C_4  and  N_11
REMARK    5  A    between atoms: C_20  and  S_21
REMARK    6  A    between atoms: S_21  and  C_25
REMARK                            x       y       z     vdW  Elec       q    Type
REMARK                         _______ _______ _______ _____ _____    ______ ____
ROOT
ATOM      1  C   UNL     1      35.165 -20.618 -20.760  0.00  0.00    +0.211 C 
ENDROOT
BRANCH   1   9
ATOM      2  O   UNL     1      36.778 -20.133 -19.094  0.00  0.00    -0.272 OA
ATOM      3  N   UNL     1      35.463 -22.016 -18.745  0.00  0.00    -0.277 N 
ATOM      4  C   UNL     1      34.001 -23.481 -16.720  0.00  0.00    +0.080 C 
ATOM      5  C   UNL     1      33.353 -23.085 -18.051  0.00  0.00    +0.041 C 
ATOM      6  C   UNL     1      35.124 -22.504 -16.355  0.00  0.00    +0.041 C 
ATOM      7  C   UNL     1      34.398 -22.939 -19.155  0.00  0.00    +0.095 C 
ATOM      8  C   UNL     1      36.132 -22.372 -17.493  0.00  0.00    +0.095 C 
ATOM      9  C   UNL     1      35.880 -20.894 -19.460  0.00  0.00    +0.254 C 
BRANCH   4  11
ATOM     10  O   UNL     1      34.434 -24.609 -14.164  0.00  0.00    -0.253 OA
ATOM     11  N   UNL     1      33.014 -23.544 -15.668  0.00  0.00    -0.266 N 
ATOM     12  N   UNL     1      32.345 -24.047 -13.457  0.00  0.00    -0.289 N 
ATOM     13  C   UNL     1      31.740 -22.872 -15.927  0.00  0.00    +0.097 C 
ATOM     14  C   UNL     1      30.623 -23.437 -15.069  0.00  0.00    +0.043 C 
ATOM     15  C   UNL     1      33.342 -24.094 -14.420  0.00  0.00    +0.304 C 
ATOM     16  C   UNL     1      31.063 -23.391 -13.622  0.00  0.00    +0.093 C 
ATOM     17  H   UNL     1      32.520 -24.493 -12.597  0.00  0.00    +0.151 HD
ENDBRANCH   4  11
ENDBRANCH   1   9
BRANCH   1  18
ATOM     18  O   UNL     1      36.062 -21.032 -21.773  0.00  0.00    -0.375 OA
ATOM     19  H   UNL     1      35.904 -20.513 -22.576  0.00  0.00    +0.211 HD
ENDBRANCH   1  18
BRANCH   1  20
ATOM     20  C   UNL     1      34.882 -19.138 -20.886  0.00  0.00    +0.194 C 
BRANCH  20  21
ATOM     21  S   UNL     1      35.373 -18.532 -22.472  0.00  0.00    +0.012 S 
ATOM     22  O   UNL     1      34.827 -19.407 -23.494  0.00  0.00    -0.169 OA
ATOM     23  O   UNL     1      36.799 -18.264 -22.420  0.00  0.00    -0.169 OA
BRANCH  21  25
ATOM     24 CL   UNL     1      31.207 -11.181 -21.934  0.00  0.00    -0.082 Cl
ATOM     25  C   UNL     1      34.533 -16.983 -22.614  0.00  0.00    +0.106 C 
ATOM     26  C   UNL     1      34.031 -16.380 -21.474  0.00  0.00    +0.018 C 
ATOM     27  C   UNL     1      34.393 -16.404 -23.860  0.00  0.00    +0.018 C 
ATOM     28  C   UNL     1      33.361 -15.149 -21.570  0.00  0.00    +0.001 C 
ATOM     29  C   UNL     1      33.208 -14.542 -22.838  0.00  0.00    +0.001 C 
ATOM     30  C   UNL     1      33.730 -15.182 -23.974  0.00  0.00    +0.001 C 
ATOM     31  C   UNL     1      32.838 -14.509 -20.434  0.00  0.00    +0.001 C 
ATOM     32  C   UNL     1      32.538 -13.312 -22.935  0.00  0.00    +0.011 C 
ATOM     33  C   UNL     1      32.175 -13.287 -20.548  0.00  0.00    +0.011 C 
ATOM     34  C   UNL     1      32.025 -12.690 -21.796  0.00  0.00    +0.058 C 
ENDBRANCH  21  25
ENDBRANCH  20  21
ENDBRANCH   1  20
TORSDOF 6
ENDMDL
MODEL 6
REMARK VINA RESULT:     -10.4      7.244     12.708
REMARK  Name = 11641515
REMARK  6 active torsions:
REMARK  status: ('A' for Active; 'I' for Inactive)
REMARK    1  A    between atoms: C_1  and  C_9
REMARK    2  A    between atoms: C_1  and  O_18
REMARK    3  A    between atoms: C_1  and  C_20
REMARK    4  A    between atoms: C_4  and  N_11
REMARK    5  A    between atoms: C_20  and  S_21
REMARK    6  A    between atoms: S_21  and  C_25
REMARK                            x       y       z     vdW  Elec       q    Type
REMARK                         _______ _______ _______ _____ _____    ______ ____
ROOT
ATOM      1  C   UNL     1      33.597 -11.710 -24.864  0.00  0.00    +0.211 C 
ENDROOT
BRANCH   1   9
ATOM      2  O   UNL     1      35.513 -10.444 -25.448  0.00  0.00    -0.272 OA
ATOM      3  N   UNL     1      34.093  -9.506 -23.867  0.00  0.00    -0.277 N 
ATOM      4  C   UNL     1      32.859  -7.018 -23.043  0.00  0.00    +0.080 C 
ATOM      5  C   UNL     1      32.036  -8.294 -23.251  0.00  0.00    +0.041 C 
ATOM      6  C   UNL     1      34.122  -7.043 -23.912  0.00  0.00    +0.041 C 
ATOM      7  C   UNL     1      32.885  -9.545 -23.033  0.00  0.00    +0.095 C 
ATOM      8  C   UNL     1      34.928  -8.318 -23.679  0.00  0.00    +0.095 C 
ATOM      9  C   UNL     1      34.492 -10.501 -24.758  0.00  0.00    +0.254 C 
BRANCH   4  11
ATOM     10  O   UNL     1      31.181  -5.718 -21.177  0.00  0.00    -0.253 OA
ATOM     11  N   UNL     1      32.067  -5.844 -23.324  0.00  0.00    -0.266 N 
ATOM     12  N   UNL     1      30.620  -4.093 -22.669  0.00  0.00    -0.289 N 
ATOM     13  C   UNL     1      32.245  -5.236 -24.644  0.00  0.00    +0.097 C 
ATOM     14  C   UNL     1      31.039  -4.410 -25.049  0.00  0.00    +0.043 C 
ATOM     15  C   UNL     1      31.293  -5.254 -22.315  0.00  0.00    +0.304 C 
ATOM     16  C   UNL     1      30.750  -3.416 -23.944  0.00  0.00    +0.093 C 
ATOM     17  H   UNL     1      30.010  -3.699 -22.005  0.00  0.00    +0.151 HD
ENDBRANCH   4  11
ENDBRANCH   1   9
BRANCH   1  18
ATOM     18  O   UNL     1      33.298 -12.071 -23.529  0.00  0.00    -0.375 OA
ATOM     19  H   UNL     1      33.927 -12.743 -23.228  0.00  0.00    +0.211 HD
ENDBRANCH   1  18
BRANCH   1  20
ATOM     20  C   UNL     1      34.333 -12.834 -25.556  0.00  0.00    +0.194 C 
BRANCH  20  21
ATOM     21  S   UNL     1      33.233 -14.156 -25.965  0.00  0.00    +0.012 S 
ATOM     22  O   UNL     1      33.404 -14.486 -27.369  0.00  0.00    -0.169 OA
ATOM     23  O   UNL     1      31.920 -13.814 -25.447  0.00  0.00    -0.169 OA
BRANCH  21  25
ATOM     24 CL   UNL     1      36.139 -19.960 -20.530  0.00  0.00    -0.082 Cl
ATOM     25  C   UNL     1      33.847 -15.526 -25.033  0.00  0.00    +0.106 C 
ATOM     26  C   UNL     1      34.075 -15.371 -23.676  0.00  0.00    +0.018 C 
ATOM     27  C   UNL     1      34.089 -16.724 -25.675  0.00  0.00    +0.018 C 
ATOM     28  C   UNL     1      34.563 -16.450 -22.920  0.00  0.00    +0.001 C 
ATOM     29  C   UNL     1      34.817 -17.686 -23.562  0.00  0.00    +0.001 C 
ATOM     30  C   UNL     1      34.576 -17.806 -24.940  0.00  0.00    +0.001 C 
ATOM     31  C   UNL     1      34.806 -16.330 -21.542  0.00  0.00    +0.001 C 
ATOM     32  C   UNL     1      35.306 -18.764 -22.807  0.00  0.00    +0.011 C 
ATOM     33  C   UNL     1      35.291 -17.412 -20.808  0.00  0.00    +0.011 C 
ATOM     34  C   UNL     1      35.541 -18.626 -21.439  0.00  0.00    +0.058 C 
ENDBRANCH  21  25
ENDBRANCH  20  21
ENDBRANCH   1  20
TORSDOF 6
ENDMDL
MODEL 7
REMARK VINA RESULT:     -10.4      4.835     10.521
REMARK  Name = 11641515
REMARK  6 active torsions:
REMARK  status: ('A' for Active; 'I' for Inactive)
REMARK    1  A    between atoms: C_1  and  C_9
REMARK    2  A    between atoms: C_1  and  O_18
REMARK    3  A    between atoms: C_1  and  C_20
REMARK    4  A    between atoms: C_4  and  N_11
REMARK    5  A    between atoms: C_20  and  S_21
REMARK    6  A    between atoms: S_21  and  C_25
REMARK                            x       y       z     vdW  Elec       q    Type
REMARK                         _______ _______ _______ _____ _____    ______ ____
ROOT
ATOM      1  C   UNL     1      34.966 -15.910 -22.421  0.00  0.00    +0.211 C 
ENDROOT
BRANCH   1   9
ATOM      2  O   UNL     1      34.724 -15.637 -20.080  0.00  0.00    -0.272 OA
ATOM      3  N   UNL     1      33.203 -14.500 -21.419  0.00  0.00    -0.277 N 
ATOM      4  C   UNL     1      31.818 -11.975 -21.727  0.00  0.00    +0.080 C 
ATOM      5  C   UNL     1      32.595 -12.613 -22.884  0.00  0.00    +0.041 C 
ATOM      6  C   UNL     1      32.399 -12.417 -20.379  0.00  0.00    +0.041 C 
ATOM      7  C   UNL     1      32.667 -14.131 -22.735  0.00  0.00    +0.095 C 
ATOM      8  C   UNL     1      32.472 -13.938 -20.281  0.00  0.00    +0.095 C 
ATOM      9  C   UNL     1      34.292 -15.342 -21.197  0.00  0.00    +0.254 C 
BRANCH   4  11
ATOM     10  O   UNL     1      31.529 -10.186 -19.558  0.00  0.00    -0.253 OA
ATOM     11  N   UNL     1      31.820 -10.536 -21.839  0.00  0.00    -0.266 N 
ATOM     12  N   UNL     1      31.785  -8.366 -20.902  0.00  0.00    -0.289 N 
ATOM     13  C   UNL     1      32.103  -9.985 -23.166  0.00  0.00    +0.097 C 
ATOM     14  C   UNL     1      31.553  -8.579 -23.318  0.00  0.00    +0.043 C 
ATOM     15  C   UNL     1      31.706  -9.736 -20.694  0.00  0.00    +0.304 C 
ATOM     16  C   UNL     1      32.076  -7.737 -22.175  0.00  0.00    +0.093 C 
ATOM     17  H   UNL     1      31.632  -7.777 -20.127  0.00  0.00    +0.151 HD
ENDBRANCH   4  11
ENDBRANCH   1   9
BRANCH   1  18
ATOM     18  O   UNL     1      34.898 -14.885 -23.394  0.00  0.00    -0.375 OA
ATOM     19  H   UNL     1      34.053 -14.942 -23.865  0.00  0.00    +0.211 HD
ENDBRANCH   1  18
BRANCH   1  20
ATOM     20  C   UNL     1      34.215 -17.132 -22.899  0.00  0.00    +0.194 C 
BRANCH  20  21
ATOM     21  S   UNL     1      35.273 -18.548 -22.946  0.00  0.00    +0.012 S 
ATOM     22  O   UNL     1      36.616 -18.137 -22.576  0.00  0.00    -0.169 OA
ATOM     23  O   UNL     1      35.037 -19.234 -24.204  0.00  0.00    -0.169 OA
BRANCH  21  25
ATOM     24 CL   UNL     1      33.558 -23.656 -16.416  0.00  0.00    -0.082 Cl
ATOM     25  C   UNL     1      34.668 -19.577 -21.643  0.00  0.00    +0.106 C 
ATOM     26  C   UNL     1      35.572 -20.196 -20.797  0.00  0.00    +0.018 C 
ATOM     27  C   UNL     1      33.306 -19.743 -21.493  0.00  0.00    +0.018 C 
ATOM     28  C   UNL     1      35.108 -21.017 -19.756  0.00  0.00    +0.001 C 
ATOM     29  C   UNL     1      33.715 -21.200 -19.588  0.00  0.00    +0.001 C 
ATOM     30  C   UNL     1      32.827 -20.556 -20.465  0.00  0.00    +0.001 C 
ATOM     31  C   UNL     1      35.995 -21.662 -18.879  0.00  0.00    +0.001 C 
ATOM     32  C   UNL     1      33.250 -22.021 -18.548  0.00  0.00    +0.011 C 
ATOM     33  C   UNL     1      35.516 -22.474 -17.851  0.00  0.00    +0.011 C 
ATOM     34  C   UNL     1      34.147 -22.654 -17.686  0.00  0.00    +0.058 C 
ENDBRANCH  21  25
ENDBRANCH  20  21
ENDBRANCH   1  20
TORSDOF 6
ENDMDL
MODEL 8
REMARK VINA RESULT:     -10.3      4.538     10.674
REMARK  Name = 11641515
REMARK  6 active torsions:
REMARK  status: ('A' for Active; 'I' for Inactive)
REMARK    1  A    between atoms: C_1  and  C_9
REMARK    2  A    between atoms: C_1  and  O_18
REMARK    3  A    between atoms: C_1  and  C_20
REMARK    4  A    between atoms: C_4  and  N_11
REMARK    5  A    between atoms: C_20  and  S_21
REMARK    6  A    between atoms: S_21  and  C_25
REMARK                            x       y       z     vdW  Elec       q    Type
REMARK                         _______ _______ _______ _____ _____    ______ ____
ROOT
ATOM      1  C   UNL     1      35.378 -18.913 -21.030  0.00  0.00    +0.211 C 
ENDROOT
BRANCH   1   9
ATOM      2  O   UNL     1      34.270 -19.234 -23.099  0.00  0.00    -0.272 OA
ATOM      3  N   UNL     1      34.949 -17.066 -22.613  0.00  0.00    -0.277 N 
ATOM      4  C   UNL     1      34.128 -14.292 -22.750  0.00  0.00    +0.080 C 
ATOM      5  C   UNL     1      34.651 -14.913 -21.450  0.00  0.00    +0.041 C 
ATOM      6  C   UNL     1      33.496 -15.365 -23.644  0.00  0.00    +0.041 C 
ATOM      7  C   UNL     1      35.591 -16.083 -21.732  0.00  0.00    +0.095 C 
ATOM      8  C   UNL     1      34.461 -16.524 -23.882  0.00  0.00    +0.095 C 
ATOM      9  C   UNL     1      34.814 -18.427 -22.342  0.00  0.00    +0.254 C 
BRANCH   4  11
ATOM     10  O   UNL     1      33.882 -11.907 -24.248  0.00  0.00    -0.253 OA
ATOM     11  N   UNL     1      33.183 -13.236 -22.471  0.00  0.00    -0.266 N 
ATOM     12  N   UNL     1      32.133 -11.181 -22.985  0.00  0.00    -0.289 N 
ATOM     13  C   UNL     1      32.220 -13.489 -21.399  0.00  0.00    +0.097 C 
ATOM     14  C   UNL     1      31.675 -12.197 -20.817  0.00  0.00    +0.043 C 
ATOM     15  C   UNL     1      33.118 -12.107 -23.299  0.00  0.00    +0.304 C 
ATOM     16  C   UNL     1      31.131 -11.357 -21.952  0.00  0.00    +0.093 C 
ATOM     17  H   UNL     1      32.113 -10.343 -23.501  0.00  0.00    +0.151 HD
ENDBRANCH   4  11
ENDBRANCH   1   9
BRANCH   1  18
ATOM     18  O   UNL     1      36.741 -19.190 -21.290  0.00  0.00    -0.375 OA
ATOM     19  H   UNL     1      37.247 -19.123 -20.467  0.00  0.00    +0.211 HD
ENDBRANCH   1  18
BRANCH   1  20
ATOM     20  C   UNL     1      34.662 -20.173 -20.599  0.00  0.00    +0.194 C 
BRANCH  20  21
ATOM     21  S   UNL     1      35.730 -21.217 -19.653  0.00  0.00    +0.012 S 
ATOM     22  O   UNL     1      36.647 -20.382 -18.898  0.00  0.00    -0.169 OA
ATOM     23  O   UNL     1      36.237 -22.249 -20.540  0.00  0.00    -0.169 OA
BRANCH  21  25
ATOM     24 CL   UNL     1      31.564 -25.106 -13.392  0.00  0.00    -0.082 Cl
ATOM     25  C   UNL     1      34.649 -21.986 -18.485  0.00  0.00    +0.106 C 
ATOM     26  C   UNL     1      35.179 -22.518 -17.323  0.00  0.00    +0.018 C 
ATOM     27  C   UNL     1      33.296 -22.042 -18.755  0.00  0.00    +0.018 C 
ATOM     28  C   UNL     1      34.334 -23.133 -16.384  0.00  0.00    +0.001 C 
ATOM     29  C   UNL     1      32.945 -23.200 -16.644  0.00  0.00    +0.001 C 
ATOM     30  C   UNL     1      32.441 -22.650 -17.834  0.00  0.00    +0.001 C 
ATOM     31  C   UNL     1      34.837 -23.684 -15.195  0.00  0.00    +0.001 C 
ATOM     32  C   UNL     1      32.099 -23.815 -15.707  0.00  0.00    +0.011 C 
ATOM     33  C   UNL     1      33.983 -24.291 -14.274  0.00  0.00    +0.011 C 
ATOM     34  C   UNL     1      32.617 -24.357 -14.530  0.00  0.00    +0.058 C 
ENDBRANCH  21  25
ENDBRANCH  20  21
ENDBRANCH   1  20
TORSDOF 6
ENDMDL
MODEL 9
REMARK VINA RESULT:     -10.2      2.751      4.140
REMARK  Name = 11641515
REMARK  6 active torsions:
REMARK  status: ('A' for Active; 'I' for Inactive)
REMARK    1  A    between atoms: C_1  and  C_9
REMARK    2  A    between atoms: C_1  and  O_18
REMARK    3  A    between atoms: C_1  and  C_20
REMARK    4  A    between atoms: C_4  and  N_11
REMARK    5  A    between atoms: C_20  and  S_21
REMARK    6  A    between atoms: S_21  and  C_25
REMARK                            x       y       z     vdW  Elec       q    Type
REMARK                         _______ _______ _______ _____ _____    ______ ____
ROOT
ATOM      1  C   UNL     1      36.083 -21.295 -20.038  0.00  0.00    +0.211 C 
ENDROOT
BRANCH   1   9
ATOM      2  O   UNL     1      34.022 -22.441 -19.806  0.00  0.00    -0.272 OA
ATOM      3  N   UNL     1      35.226 -22.069 -17.854  0.00  0.00    -0.277 N 
ATOM      4  C   UNL     1      36.042 -23.300 -15.362  0.00  0.00    +0.080 C 
ATOM      5  C   UNL     1      37.054 -22.629 -16.298  0.00  0.00    +0.041 C 
ATOM      6  C   UNL     1      34.830 -23.806 -16.153  0.00  0.00    +0.041 C 
ATOM      7  C   UNL     1      36.395 -21.540 -17.141  0.00  0.00    +0.095 C 
ATOM      8  C   UNL     1      34.217 -22.692 -16.996  0.00  0.00    +0.095 C 
ATOM      9  C   UNL     1      35.014 -21.987 -19.230  0.00  0.00    +0.254 C 
BRANCH   4  11
ATOM     10  O   UNL     1      37.640 -22.968 -13.055  0.00  0.00    -0.253 OA
ATOM     11  N   UNL     1      36.660 -24.376 -14.625  0.00  0.00    -0.266 N 
ATOM     12  N   UNL     1      37.902 -25.214 -12.797  0.00  0.00    -0.289 N 
ATOM     13  C   UNL     1      36.331 -25.736 -15.057  0.00  0.00    +0.097 C 
ATOM     14  C   UNL     1      37.397 -26.731 -14.636  0.00  0.00    +0.043 C 
ATOM     15  C   UNL     1      37.406 -24.107 -13.469  0.00  0.00    +0.304 C 
ATOM     16  C   UNL     1      37.616 -26.592 -13.145  0.00  0.00    +0.093 C 
ATOM     17  H   UNL     1      38.493 -25.053 -12.026  0.00  0.00    +0.151 HD
ENDBRANCH   4  11
ENDBRANCH   1   9
BRANCH   1  18
ATOM     18  O   UNL     1      36.823 -20.535 -19.102  0.00  0.00    -0.375 OA
ATOM     19  H   UNL     1      36.570 -20.793 -18.203  0.00  0.00    +0.211 HD
ENDBRANCH   1  18
BRANCH   1  20
ATOM     20  C   UNL     1      35.445 -20.385 -21.062  0.00  0.00    +0.194 C 
BRANCH  20  21
ATOM     21  S   UNL     1      36.313 -18.850 -21.175  0.00  0.00    +0.012 S 
ATOM     22  O   UNL     1      37.682 -19.118 -21.577  0.00  0.00    -0.169 OA
ATOM     23  O   UNL     1      36.039 -18.098 -19.963  0.00  0.00    -0.169 OA
BRANCH  21  25
ATOM     24 CL   UNL     1      32.535 -13.874 -26.888  0.00  0.00    -0.082 Cl
ATOM     25  C   UNL     1      35.531 -18.016 -22.522  0.00  0.00    +0.106 C 
ATOM     26  C   UNL     1      35.165 -16.689 -22.374  0.00  0.00    +0.018 C 
ATOM     27  C   UNL     1      35.300 -18.703 -23.697  0.00  0.00    +0.018 C 
ATOM     28  C   UNL     1      34.541 -16.012 -23.435  0.00  0.00    +0.001 C 
ATOM     29  C   UNL     1      34.296 -16.701 -24.647  0.00  0.00    +0.001 C 
ATOM     30  C   UNL     1      34.681 -18.046 -24.762  0.00  0.00    +0.001 C 
ATOM     31  C   UNL     1      34.156 -14.666 -23.320  0.00  0.00    +0.001 C 
ATOM     32  C   UNL     1      33.673 -16.024 -25.708  0.00  0.00    +0.011 C 
ATOM     33  C   UNL     1      33.538 -14.009 -24.384  0.00  0.00    +0.011 C 
ATOM     34  C   UNL     1      33.297 -14.687 -25.576  0.00  0.00    +0.058 C 
ENDBRANCH  21  25
ENDBRANCH  20  21
ENDBRANCH   1  20
TORSDOF 6
ENDMDL
