MODEL 1
REMARK VINA RESULT:      -4.9      0.000      0.000
REMARK  Name = 3415
REMARK  4 active torsions:
REMARK  status: ('A' for Active; 'I' for Inactive)
REMARK    1  A    between atoms: P_1  and  O_3
REMARK    2  A    between atoms: P_1  and  O_5
REMARK    3  A    between atoms: P_1  and  C_8
REMARK    4  A    between atoms: C_8  and  O_9
REMARK                            x       y       z     vdW  Elec       q    Type
REMARK                         _______ _______ _______ _____ _____    ______ ____
ROOT
ATOM      1  P   UNL     1      38.517 -25.710 -14.384  0.00  0.00    +0.434 P 
ATOM      2  O   UNL     1      38.263 -25.280 -12.967  0.00  0.00    -0.247 OA
ENDROOT
BRANCH   1   3
ATOM      3  O   UNL     1      37.540 -24.991 -15.459  0.00  0.00    -0.316 OA
ATOM      4  H   UNL     1      38.040 -24.320 -15.951  0.00  0.00    +0.220 HD
ENDBRANCH   1   3
BRANCH   1   5
ATOM      5  O   UNL     1      38.201 -27.278 -14.647  0.00  0.00    -0.316 OA
ATOM      6  H   UNL     1      38.897 -27.657 -15.205  0.00  0.00    +0.220 HD
ENDBRANCH   1   5
BRANCH   1   8
ATOM      7  O   UNL     1      40.887 -24.688 -14.253  0.00  0.00    -0.237 OA
ATOM      8  C   UNL     1      40.181 -25.421 -14.930  0.00  0.00    +0.418 C 
BRANCH   8   9
ATOM      9  O   UNL     1      40.586 -26.017 -16.078  0.00  0.00    -0.472 OA
ATOM     10  H   UNL     1      40.846 -26.917 -16.071  0.00  0.00    +0.296 HD
ENDBRANCH   8   9
ENDBRANCH   1   8
TORSDOF 4
ENDMDL
MODEL 2
REMARK VINA RESULT:      -4.9      1.476      2.890
REMARK  Name = 3415
REMARK  4 active torsions:
REMARK  status: ('A' for Active; 'I' for Inactive)
REMARK    1  A    between atoms: P_1  and  O_3
REMARK    2  A    between atoms: P_1  and  O_5
REMARK    3  A    between atoms: P_1  and  C_8
REMARK    4  A    between atoms: C_8  and  O_9
REMARK                            x       y       z     vdW  Elec       q    Type
REMARK                         _______ _______ _______ _____ _____    ______ ____
ROOT
ATOM      1  P   UNL     1      39.447 -25.248 -14.897  0.00  0.00    +0.434 P 
ATOM      2  O   UNL     1      40.146 -24.942 -13.603  0.00  0.00    -0.247 OA
ENDROOT
BRANCH   1   3
ATOM      3  O   UNL     1      40.411 -25.945 -15.999  0.00  0.00    -0.316 OA
ATOM      4  H   UNL     1      39.890 -26.174 -16.784  0.00  0.00    +0.220 HD
ENDBRANCH   1   3
BRANCH   1   5
ATOM      5  O   UNL     1      38.946 -23.924 -15.687  0.00  0.00    -0.316 OA
ATOM      6  H   UNL     1      39.520 -23.177 -15.460  0.00  0.00    +0.220 HD
ENDBRANCH   1   5
BRANCH   1   8
ATOM      7  O   UNL     1      37.743 -26.683 -13.587  0.00  0.00    -0.237 OA
ATOM      8  C   UNL     1      38.032 -26.304 -14.712  0.00  0.00    +0.418 C 
BRANCH   8   9
ATOM      9  O   UNL     1      37.346 -26.649 -15.828  0.00  0.00    -0.472 OA
ATOM     10  H   UNL     1      37.808 -26.838 -16.622  0.00  0.00    +0.296 HD
ENDBRANCH   8   9
ENDBRANCH   1   8
TORSDOF 4
ENDMDL
MODEL 3
REMARK VINA RESULT:      -4.9     11.238     12.404
REMARK  Name = 3415
REMARK  4 active torsions:
REMARK  status: ('A' for Active; 'I' for Inactive)
REMARK    1  A    between atoms: P_1  and  O_3
REMARK    2  A    between atoms: P_1  and  O_5
REMARK    3  A    between atoms: P_1  and  C_8
REMARK    4  A    between atoms: C_8  and  O_9
REMARK                            x       y       z     vdW  Elec       q    Type
REMARK                         _______ _______ _______ _____ _____    ______ ____
ROOT
ATOM      1  P   UNL     1      28.139 -23.162 -16.494  0.00  0.00    +0.434 P 
ATOM      2  O   UNL     1      28.492 -23.785 -15.173  0.00  0.00    -0.247 OA
ENDROOT
BRANCH   1   3
ATOM      3  O   UNL     1      27.757 -24.248 -17.634  0.00  0.00    -0.316 OA
ATOM      4  H   UNL     1      27.207 -23.824 -18.312  0.00  0.00    +0.220 HD
ENDBRANCH   1   3
BRANCH   1   5
ATOM      5  O   UNL     1      29.377 -22.377 -17.186  0.00  0.00    -0.316 OA
ATOM      6  H   UNL     1      29.446 -21.487 -16.808  0.00  0.00    +0.220 HD
ENDBRANCH   1   5
BRANCH   1   8
ATOM      7  O   UNL     1      26.708 -21.154 -17.268  0.00  0.00    -0.237 OA
ATOM      8  C   UNL     1      26.787 -22.015 -16.404  0.00  0.00    +0.418 C 
BRANCH   8   9
ATOM      9  O   UNL     1      25.913 -22.142 -15.377  0.00  0.00    -0.472 OA
ATOM     10  H   UNL     1      25.013 -22.336 -15.549  0.00  0.00    +0.296 HD
ENDBRANCH   8   9
ENDBRANCH   1   8
TORSDOF 4
ENDMDL
MODEL 4
REMARK VINA RESULT:      -4.9      0.785      1.357
REMARK  Name = 3415
REMARK  4 active torsions:
REMARK  status: ('A' for Active; 'I' for Inactive)
REMARK    1  A    between atoms: P_1  and  O_3
REMARK    2  A    between atoms: P_1  and  O_5
REMARK    3  A    between atoms: P_1  and  C_8
REMARK    4  A    between atoms: C_8  and  O_9
REMARK                            x       y       z     vdW  Elec       q    Type
REMARK                         _______ _______ _______ _____ _____    ______ ____
ROOT
ATOM      1  P   UNL     1      38.449 -25.311 -14.297  0.00  0.00    +0.434 P 
ATOM      2  O   UNL     1      38.144 -26.486 -13.412  0.00  0.00    -0.247 OA
ENDROOT
BRANCH   1   3
ATOM      3  O   UNL     1      38.210 -23.881 -13.573  0.00  0.00    -0.316 OA
ATOM      4  H   UNL     1      37.976 -24.026 -12.643  0.00  0.00    +0.220 HD
ENDBRANCH   1   3
BRANCH   1   5
ATOM      5  O   UNL     1      37.467 -25.201 -15.581  0.00  0.00    -0.316 OA
ATOM      6  H   UNL     1      36.707 -25.791 -15.458  0.00  0.00    +0.220 HD
ENDBRANCH   1   5
BRANCH   1   8
ATOM      7  O   UNL     1      40.965 -24.718 -14.263  0.00  0.00    -0.237 OA
ATOM      8  C   UNL     1      40.112 -25.299 -14.919  0.00  0.00    +0.418 C 
BRANCH   8   9
ATOM      9  O   UNL     1      40.356 -25.924 -16.096  0.00  0.00    -0.472 OA
ATOM     10  H   UNL     1      40.794 -25.467 -16.787  0.00  0.00    +0.296 HD
ENDBRANCH   8   9
ENDBRANCH   1   8
TORSDOF 4
ENDMDL
MODEL 5
REMARK VINA RESULT:      -4.7      3.702      4.825
REMARK  Name = 3415
REMARK  4 active torsions:
REMARK  status: ('A' for Active; 'I' for Inactive)
REMARK    1  A    between atoms: P_1  and  O_3
REMARK    2  A    between atoms: P_1  and  O_5
REMARK    3  A    between atoms: P_1  and  C_8
REMARK    4  A    between atoms: C_8  and  O_9
REMARK                            x       y       z     vdW  Elec       q    Type
REMARK                         _______ _______ _______ _____ _____    ______ ____
ROOT
ATOM      1  P   UNL     1      35.993 -24.328 -11.428  0.00  0.00    +0.434 P 
ATOM      2  O   UNL     1      34.713 -23.849 -12.051  0.00  0.00    -0.247 OA
ENDROOT
BRANCH   1   3
ATOM      3  O   UNL     1      36.335 -25.875 -11.769  0.00  0.00    -0.316 OA
ATOM      4  H   UNL     1      37.239 -26.076 -11.482  0.00  0.00    +0.220 HD
ENDBRANCH   1   3
BRANCH   1   5
ATOM      5  O   UNL     1      35.953 -24.347  -9.808  0.00  0.00    -0.316 OA
ATOM      6  H   UNL     1      36.850 -24.474  -9.464  0.00  0.00    +0.220 HD
ENDBRANCH   1   5
BRANCH   1   8
ATOM      7  O   UNL     1      38.263 -23.913 -12.592  0.00  0.00    -0.237 OA
ATOM      8  C   UNL     1      37.416 -23.374 -11.897  0.00  0.00    +0.418 C 
BRANCH   8   9
ATOM      9  O   UNL     1      37.500 -22.097 -11.451  0.00  0.00    -0.472 OA
ATOM     10  H   UNL     1      36.997 -21.826 -10.708  0.00  0.00    +0.296 HD
ENDBRANCH   8   9
ENDBRANCH   1   8
TORSDOF 4
ENDMDL
MODEL 6
REMARK VINA RESULT:      -4.6      2.021      2.837
REMARK  Name = 3415
REMARK  4 active torsions:
REMARK  status: ('A' for Active; 'I' for Inactive)
REMARK    1  A    between atoms: P_1  and  O_3
REMARK    2  A    between atoms: P_1  and  O_5
REMARK    3  A    between atoms: P_1  and  C_8
REMARK    4  A    between atoms: C_8  and  O_9
REMARK                            x       y       z     vdW  Elec       q    Type
REMARK                         _______ _______ _______ _____ _____    ______ ____
ROOT
ATOM      1  P   UNL     1      37.310 -26.421 -14.366  0.00  0.00    +0.434 P 
ATOM      2  O   UNL     1      38.515 -27.258 -14.690  0.00  0.00    -0.247 OA
ENDROOT
BRANCH   1   3
ATOM      3  O   UNL     1      36.831 -26.556 -12.823  0.00  0.00    -0.316 OA
ATOM      4  H   UNL     1      36.262 -27.337 -12.729  0.00  0.00    +0.220 HD
ENDBRANCH   1   3
BRANCH   1   5
ATOM      5  O   UNL     1      35.976 -26.875 -15.168  0.00  0.00    -0.316 OA
ATOM      6  H   UNL     1      35.284 -26.208 -15.045  0.00  0.00    +0.220 HD
ENDBRANCH   1   5
BRANCH   1   8
ATOM      7  O   UNL     1      38.221 -24.048 -13.898  0.00  0.00    -0.237 OA
ATOM      8  C   UNL     1      37.537 -24.689 -14.682  0.00  0.00    +0.418 C 
BRANCH   8   9
ATOM      9  O   UNL     1      36.932 -24.157 -15.771  0.00  0.00    -0.472 OA
ATOM     10  H   UNL     1      37.356 -23.478 -16.258  0.00  0.00    +0.296 HD
ENDBRANCH   8   9
ENDBRANCH   1   8
TORSDOF 4
ENDMDL
MODEL 7
REMARK VINA RESULT:      -4.6      2.268      3.546
REMARK  Name = 3415
REMARK  4 active torsions:
REMARK  status: ('A' for Active; 'I' for Inactive)
REMARK    1  A    between atoms: P_1  and  O_3
REMARK    2  A    between atoms: P_1  and  O_5
REMARK    3  A    between atoms: P_1  and  C_8
REMARK    4  A    between atoms: C_8  and  O_9
REMARK                            x       y       z     vdW  Elec       q    Type
REMARK                         _______ _______ _______ _____ _____    ______ ____
ROOT
ATOM      1  P   UNL     1      37.318 -26.300 -14.556  0.00  0.00    +0.434 P 
ATOM      2  O   UNL     1      38.598 -27.067 -14.730  0.00  0.00    -0.247 OA
ENDROOT
BRANCH   1   3
ATOM      3  O   UNL     1      36.011 -27.104 -15.077  0.00  0.00    -0.316 OA
ATOM      4  H   UNL     1      35.223 -26.769 -14.620  0.00  0.00    +0.220 HD
ENDBRANCH   1   3
BRANCH   1   5
ATOM      5  O   UNL     1      37.253 -24.947 -15.447  0.00  0.00    -0.316 OA
ATOM      6  H   UNL     1      36.399 -24.903 -15.903  0.00  0.00    +0.220 HD
ENDBRANCH   1   5
BRANCH   1   8
ATOM      7  O   UNL     1      37.901 -25.927 -12.066  0.00  0.00    -0.237 OA
ATOM      8  C   UNL     1      36.992 -25.826 -12.876  0.00  0.00    +0.418 C 
BRANCH   8   9
ATOM      9  O   UNL     1      35.748 -25.385 -12.570  0.00  0.00    -0.472 OA
ATOM     10  H   UNL     1      35.599 -24.922 -11.769  0.00  0.00    +0.296 HD
ENDBRANCH   8   9
ENDBRANCH   1   8
TORSDOF 4
ENDMDL
MODEL 8
REMARK VINA RESULT:      -4.5      3.243      4.225
REMARK  Name = 3415
REMARK  4 active torsions:
REMARK  status: ('A' for Active; 'I' for Inactive)
REMARK    1  A    between atoms: P_1  and  O_3
REMARK    2  A    between atoms: P_1  and  O_5
REMARK    3  A    between atoms: P_1  and  C_8
REMARK    4  A    between atoms: C_8  and  O_9
REMARK                            x       y       z     vdW  Elec       q    Type
REMARK                         _______ _______ _______ _____ _____    ______ ____
ROOT
ATOM      1  P   UNL     1      36.314 -24.080 -11.466  0.00  0.00    +0.434 P 
ATOM      2  O   UNL     1      37.127 -23.025 -10.770  0.00  0.00    -0.247 OA
ENDROOT
BRANCH   1   3
ATOM      3  O   UNL     1      35.228 -23.473 -12.505  0.00  0.00    -0.316 OA
ATOM      4  H   UNL     1      34.914 -24.179 -13.092  0.00  0.00    +0.220 HD
ENDBRANCH   1   3
BRANCH   1   5
ATOM      5  O   UNL     1      35.371 -24.933 -10.461  0.00  0.00    -0.316 OA
ATOM      6  H   UNL     1      34.980 -24.338  -9.803  0.00  0.00    +0.220 HD
ENDBRANCH   1   5
BRANCH   1   8
ATOM      7  O   UNL     1      38.392 -24.896 -12.768  0.00  0.00    -0.237 OA
ATOM      8  C   UNL     1      37.292 -25.252 -12.373  0.00  0.00    +0.418 C 
BRANCH   8   9
ATOM      9  O   UNL     1      36.768 -26.482 -12.592  0.00  0.00    -0.472 OA
ATOM     10  H   UNL     1      35.838 -26.599 -12.606  0.00  0.00    +0.296 HD
ENDBRANCH   8   9
ENDBRANCH   1   8
TORSDOF 4
ENDMDL
MODEL 9
REMARK VINA RESULT:      -4.4      3.862      5.203
REMARK  Name = 3415
REMARK  4 active torsions:
REMARK  status: ('A' for Active; 'I' for Inactive)
REMARK    1  A    between atoms: P_1  and  O_3
REMARK    2  A    between atoms: P_1  and  O_5
REMARK    3  A    between atoms: P_1  and  C_8
REMARK    4  A    between atoms: C_8  and  O_9
REMARK                            x       y       z     vdW  Elec       q    Type
REMARK                         _______ _______ _______ _____ _____    ______ ____
ROOT
ATOM      1  P   UNL     1      37.160 -24.076 -11.989  0.00  0.00    +0.434 P 
ATOM      2  O   UNL     1      38.027 -25.289 -11.805  0.00  0.00    -0.247 OA
ENDROOT
BRANCH   1   3
ATOM      3  O   UNL     1      37.086 -23.566 -13.526  0.00  0.00    -0.316 OA
ATOM      4  H   UNL     1      37.214 -22.605 -13.553  0.00  0.00    +0.220 HD
ENDBRANCH   1   3
BRANCH   1   5
ATOM      5  O   UNL     1      37.725 -22.760 -11.230  0.00  0.00    -0.316 OA
ATOM      6  H   UNL     1      38.683 -22.843 -11.111  0.00  0.00    +0.220 HD
ENDBRANCH   1   5
BRANCH   1   8
ATOM      7  O   UNL     1      35.283 -25.095 -10.534  0.00  0.00    -0.237 OA
ATOM      8  C   UNL     1      35.486 -24.306 -11.445  0.00  0.00    +0.418 C 
BRANCH   8   9
ATOM      9  O   UNL     1      34.511 -23.604 -12.073  0.00  0.00    -0.472 OA
ATOM     10  H   UNL     1      33.670 -23.510 -11.671  0.00  0.00    +0.296 HD
ENDBRANCH   8   9
ENDBRANCH   1   8
TORSDOF 4
ENDMDL
