MODEL 1
REMARK VINA RESULT:     -10.5      0.000      0.000
REMARK  Name = 9863791
REMARK  5 active torsions:
REMARK  status: ('A' for Active; 'I' for Inactive)
REMARK    1  A    between atoms: N_1  and  C_19
REMARK    2  A    between atoms: C_11  and  C_16
REMARK    3  A    between atoms: C_16  and  O_17
REMARK    4  A    between atoms: C_19  and  C_20
REMARK    5  A    between atoms: C_23  and  C_28
REMARK                            x       y       z     vdW  Elec       q    Type
REMARK                         _______ _______ _______ _____ _____    ______ ____
ROOT
ATOM      1  N   UNL     1      34.746 -23.050 -15.686  0.00  0.00    -0.327 N 
ATOM      2  C   UNL     1      35.129 -22.760 -16.969  0.00  0.00    +0.033 A 
ATOM      3  C   UNL     1      33.991 -22.708 -17.754  0.00  0.00    -0.009 A 
ATOM      4  C   UNL     1      36.555 -22.555 -17.342  0.00  0.00    +0.043 C 
ATOM      5  C   UNL     1      33.967 -22.422 -19.218  0.00  0.00    +0.028 C 
ATOM      6  C   UNL     1      36.778 -21.232 -18.076  0.00  0.00    +0.006 C 
ATOM      7  C   UNL     1      34.685 -21.125 -19.594  0.00  0.00    +0.005 C 
ATOM      8  C   UNL     1      32.876 -22.980 -16.897  0.00  0.00    +0.013 A 
ATOM      9  C   UNL     1      36.213 -21.196 -19.500  0.00  0.00    +0.001 C 
ATOM     10  C   UNL     1      33.381 -23.188 -15.612  0.00  0.00    +0.066 A 
ATOM     11  C   UNL     1      32.564 -23.479 -14.514  0.00  0.00    +0.091 C 
ATOM     12  C   UNL     1      31.481 -23.068 -17.091  0.00  0.00    +0.001 C 
ATOM     13  C   UNL     1      31.186 -23.561 -14.734  0.00  0.00    +0.008 C 
ATOM     14  C   UNL     1      30.651 -23.359 -16.003  0.00  0.00    +0.000 C 
ENDROOT
BRANCH  11  16
ATOM     15  O   UNL     1      33.706 -24.698 -12.801  0.00  0.00    -0.245 OA
ATOM     16  C   UNL     1      33.080 -23.698 -13.175  0.00  0.00    +0.339 C 
BRANCH  16  17
ATOM     17  O   UNL     1      32.806 -22.664 -12.333  0.00  0.00    -0.477 OA
ATOM     18  H   UNL     1      31.930 -22.522 -12.034  0.00  0.00    +0.295 HD
ENDBRANCH  16  17
ENDBRANCH  11  16
BRANCH   1  19
ATOM     19  C   UNL     1      35.655 -23.197 -14.564  0.00  0.00    +0.132 C 
BRANCH  19  20
ATOM     20  C   UNL     1      36.497 -24.437 -14.698  0.00  0.00    +0.001 C 
ATOM     21  C   UNL     1      37.866 -24.361 -14.486  0.00  0.00    +0.002 C 
ATOM     22  C   UNL     1      35.892 -25.641 -15.034  0.00  0.00    -0.002 C 
ATOM     23  C   UNL     1      38.647 -25.510 -14.612  0.00  0.00    +0.053 C 
ATOM     24  C   UNL     1      36.673 -26.791 -15.160  0.00  0.00    -0.000 C 
ATOM     25  C   UNL     1      38.050 -26.725 -14.950  0.00  0.00    +0.004 C 
BRANCH  23  28
ATOM     26  O   UNL     1      40.721 -24.394 -14.595  0.00  0.00    -0.270 OA
ATOM     27  N   UNL     1      40.722 -26.588 -13.929  0.00  0.00    -0.325 N 
ATOM     28  C   UNL     1      40.082 -25.442 -14.392  0.00  0.00    +0.243 C 
ATOM     29  H   UNL     1      41.693 -26.580 -13.769  0.00  0.00    +0.145 HD
ATOM     30  H   UNL     1      40.203 -27.407 -13.761  0.00  0.00    +0.145 HD
ENDBRANCH  23  28
ENDBRANCH  19  20
ENDBRANCH   1  19
TORSDOF 5
ENDMDL
MODEL 2
REMARK VINA RESULT:     -10.0      1.880      4.044
REMARK  Name = 9863791
REMARK  5 active torsions:
REMARK  status: ('A' for Active; 'I' for Inactive)
REMARK    1  A    between atoms: N_1  and  C_19
REMARK    2  A    between atoms: C_11  and  C_16
REMARK    3  A    between atoms: C_16  and  O_17
REMARK    4  A    between atoms: C_19  and  C_20
REMARK    5  A    between atoms: C_23  and  C_28
REMARK                            x       y       z     vdW  Elec       q    Type
REMARK                         _______ _______ _______ _____ _____    ______ ____
ROOT
ATOM      1  N   UNL     1      34.619 -22.976 -15.471  0.00  0.00    -0.327 N 
ATOM      2  C   UNL     1      33.357 -23.347 -15.084  0.00  0.00    +0.033 A 
ATOM      3  C   UNL     1      32.520 -23.220 -16.176  0.00  0.00    -0.009 A 
ATOM      4  C   UNL     1      33.055 -23.794 -13.696  0.00  0.00    +0.043 C 
ATOM      5  C   UNL     1      31.058 -23.520 -16.181  0.00  0.00    +0.028 C 
ATOM      6  C   UNL     1      32.343 -25.147 -13.667  0.00  0.00    +0.006 C 
ATOM      7  C   UNL     1      30.727 -24.926 -15.675  0.00  0.00    +0.005 C 
ATOM      8  C   UNL     1      33.319 -22.751 -17.268  0.00  0.00    +0.013 A 
ATOM      9  C   UNL     1      30.894 -25.111 -14.163  0.00  0.00    +0.001 C 
ATOM     10  C   UNL     1      34.626 -22.610 -16.795  0.00  0.00    +0.066 A 
ATOM     11  C   UNL     1      35.681 -22.168 -17.601  0.00  0.00    +0.091 C 
ATOM     12  C   UNL     1      33.058 -22.432 -18.618  0.00  0.00    +0.001 C 
ATOM     13  C   UNL     1      35.394 -21.860 -18.933  0.00  0.00    +0.008 C 
ATOM     14  C   UNL     1      34.103 -21.989 -19.436  0.00  0.00    +0.000 C 
ENDROOT
BRANCH  11  16
ATOM     15  O   UNL     1      37.886 -22.920 -17.059  0.00  0.00    -0.245 OA
ATOM     16  C   UNL     1      37.042 -22.018 -17.117  0.00  0.00    +0.339 C 
BRANCH  16  17
ATOM     17  O   UNL     1      37.319 -20.746 -16.719  0.00  0.00    -0.477 OA
ATOM     18  H   UNL     1      38.201 -20.495 -16.531  0.00  0.00    +0.295 HD
ENDBRANCH  16  17
ENDBRANCH  11  16
BRANCH   1  19
ATOM     19  C   UNL     1      35.782 -22.966 -14.603  0.00  0.00    +0.132 C 
BRANCH  19  20
ATOM     20  C   UNL     1      36.524 -24.274 -14.665  0.00  0.00    +0.001 C 
ATOM     21  C   UNL     1      37.871 -24.312 -14.334  0.00  0.00    +0.002 C 
ATOM     22  C   UNL     1      35.852 -25.424 -15.054  0.00  0.00    -0.002 C 
ATOM     23  C   UNL     1      38.561 -25.523 -14.393  0.00  0.00    +0.053 C 
ATOM     24  C   UNL     1      36.540 -26.636 -15.114  0.00  0.00    -0.000 C 
ATOM     25  C   UNL     1      37.894 -26.686 -14.783  0.00  0.00    +0.004 C 
BRANCH  23  28
ATOM     26  O   UNL     1      40.546 -24.608 -13.519  0.00  0.00    -0.270 OA
ATOM     27  N   UNL     1      40.661 -26.755 -14.314  0.00  0.00    -0.325 N 
ATOM     28  C   UNL     1      39.972 -25.576 -14.048  0.00  0.00    +0.243 C 
ATOM     29  H   UNL     1      41.617 -26.828 -14.094  0.00  0.00    +0.145 HD
ATOM     30  H   UNL     1      40.190 -27.519 -14.722  0.00  0.00    +0.145 HD
ENDBRANCH  23  28
ENDBRANCH  19  20
ENDBRANCH   1  19
TORSDOF 5
ENDMDL
MODEL 3
REMARK VINA RESULT:      -9.5     11.167     14.552
REMARK  Name = 9863791
REMARK  5 active torsions:
REMARK  status: ('A' for Active; 'I' for Inactive)
REMARK    1  A    between atoms: N_1  and  C_19
REMARK    2  A    between atoms: C_11  and  C_16
REMARK    3  A    between atoms: C_16  and  O_17
REMARK    4  A    between atoms: C_19  and  C_20
REMARK    5  A    between atoms: C_23  and  C_28
REMARK                            x       y       z     vdW  Elec       q    Type
REMARK                         _______ _______ _______ _____ _____    ______ ____
ROOT
ATOM      1  N   UNL     1      33.055 -12.038 -24.238  0.00  0.00    -0.327 N 
ATOM      2  C   UNL     1      33.245 -10.913 -23.478  0.00  0.00    +0.033 A 
ATOM      3  C   UNL     1      34.161 -10.107 -24.129  0.00  0.00    -0.009 A 
ATOM      4  C   UNL     1      32.532 -10.699 -22.189  0.00  0.00    +0.043 C 
ATOM      5  C   UNL     1      34.648  -8.786 -23.636  0.00  0.00    +0.028 C 
ATOM      6  C   UNL     1      31.808  -9.354 -22.144  0.00  0.00    +0.006 C 
ATOM      7  C   UNL     1      33.519  -7.805 -23.313  0.00  0.00    +0.005 C 
ATOM      8  C   UNL     1      34.536 -10.783 -25.335  0.00  0.00    +0.013 A 
ATOM      9  C   UNL     1      32.735  -8.139 -22.039  0.00  0.00    +0.001 C 
ATOM     10  C   UNL     1      33.827 -11.986 -25.373  0.00  0.00    +0.066 A 
ATOM     11  C   UNL     1      33.949 -12.905 -26.421  0.00  0.00    +0.091 C 
ATOM     12  C   UNL     1      35.412 -10.487 -26.400  0.00  0.00    +0.001 C 
ATOM     13  C   UNL     1      34.824 -12.587 -27.464  0.00  0.00    +0.008 C 
ATOM     14  C   UNL     1      35.545 -11.397 -27.455  0.00  0.00    +0.000 C 
ENDROOT
BRANCH  11  16
ATOM     15  O   UNL     1      33.699 -15.279 -26.267  0.00  0.00    -0.245 OA
ATOM     16  C   UNL     1      33.217 -14.158 -26.469  0.00  0.00    +0.339 C 
BRANCH  16  17
ATOM     17  O   UNL     1      31.900 -13.983 -26.767  0.00  0.00    -0.477 OA
ATOM     18  H   UNL     1      31.388 -14.707 -27.068  0.00  0.00    +0.295 HD
ENDBRANCH  16  17
ENDBRANCH  11  16
BRANCH   1  19
ATOM     19  C   UNL     1      32.170 -13.133 -23.888  0.00  0.00    +0.132 C 
BRANCH  19  20
ATOM     20  C   UNL     1      32.787 -14.029 -22.849  0.00  0.00    +0.001 C 
ATOM     21  C   UNL     1      33.698 -15.001 -23.238  0.00  0.00    +0.002 C 
ATOM     22  C   UNL     1      32.437 -13.871 -21.515  0.00  0.00    -0.002 C 
ATOM     23  C   UNL     1      34.270 -15.832 -22.275  0.00  0.00    +0.053 C 
ATOM     24  C   UNL     1      33.008 -14.703 -20.551  0.00  0.00    -0.000 C 
ATOM     25  C   UNL     1      33.925 -15.683 -20.931  0.00  0.00    +0.004 C 
BRANCH  23  28
ATOM     26  O   UNL     1      35.758 -17.603 -21.832  0.00  0.00    -0.270 OA
ATOM     27  N   UNL     1      35.516 -16.982 -24.025  0.00  0.00    -0.325 N 
ATOM     28  C   UNL     1      35.226 -16.854 -22.670  0.00  0.00    +0.243 C 
ATOM     29  H   UNL     1      36.158 -17.662 -24.330  0.00  0.00    +0.145 HD
ATOM     30  H   UNL     1      35.078 -16.390 -24.680  0.00  0.00    +0.145 HD
ENDBRANCH  23  28
ENDBRANCH  19  20
ENDBRANCH   1  19
TORSDOF 5
ENDMDL
MODEL 4
REMARK VINA RESULT:      -9.4      3.223      7.197
REMARK  Name = 9863791
REMARK  5 active torsions:
REMARK  status: ('A' for Active; 'I' for Inactive)
REMARK    1  A    between atoms: N_1  and  C_19
REMARK    2  A    between atoms: C_11  and  C_16
REMARK    3  A    between atoms: C_16  and  O_17
REMARK    4  A    between atoms: C_19  and  C_20
REMARK    5  A    between atoms: C_23  and  C_28
REMARK                            x       y       z     vdW  Elec       q    Type
REMARK                         _______ _______ _______ _____ _____    ______ ____
ROOT
ATOM      1  N   UNL     1      34.488 -23.772 -16.165  0.00  0.00    -0.327 N 
ATOM      2  C   UNL     1      35.131 -24.054 -14.988  0.00  0.00    +0.033 A 
ATOM      3  C   UNL     1      36.308 -23.328 -14.959  0.00  0.00    -0.009 A 
ATOM      4  C   UNL     1      34.566 -24.996 -13.984  0.00  0.00    +0.043 C 
ATOM      5  C   UNL     1      37.306 -23.350 -13.850  0.00  0.00    +0.028 C 
ATOM      6  C   UNL     1      34.480 -24.374 -12.590  0.00  0.00    +0.006 C 
ATOM      7  C   UNL     1      36.696 -23.043 -12.481  0.00  0.00    +0.005 C 
ATOM      8  C   UNL     1      36.370 -22.577 -16.177  0.00  0.00    +0.013 A 
ATOM      9  C   UNL     1      35.835 -24.171 -11.903  0.00  0.00    +0.001 C 
ATOM     10  C   UNL     1      35.218 -22.876 -16.908  0.00  0.00    +0.066 A 
ATOM     11  C   UNL     1      34.947 -22.314 -18.161  0.00  0.00    +0.091 C 
ATOM     12  C   UNL     1      37.298 -21.669 -16.730  0.00  0.00    +0.001 C 
ATOM     13  C   UNL     1      35.883 -21.418 -18.685  0.00  0.00    +0.008 C 
ATOM     14  C   UNL     1      37.040 -21.099 -17.982  0.00  0.00    +0.000 C 
ENDROOT
BRANCH  11  16
ATOM     15  O   UNL     1      32.715 -21.946 -18.938  0.00  0.00    -0.245 OA
ATOM     16  C   UNL     1      33.753 -22.619 -18.928  0.00  0.00    +0.339 C 
BRANCH  16  17
ATOM     17  O   UNL     1      33.882 -23.756 -19.666  0.00  0.00    -0.477 OA
ATOM     18  H   UNL     1      33.489 -24.554 -19.371  0.00  0.00    +0.295 HD
ENDBRANCH  16  17
ENDBRANCH  11  16
BRANCH   1  19
ATOM     19  C   UNL     1      33.218 -24.345 -16.573  0.00  0.00    +0.132 C 
BRANCH  19  20
ATOM     20  C   UNL     1      32.062 -23.634 -15.922  0.00  0.00    +0.001 C 
ATOM     21  C   UNL     1      30.826 -23.621 -16.552  0.00  0.00    +0.002 C 
ATOM     22  C   UNL     1      32.248 -23.001 -14.701  0.00  0.00    -0.002 C 
ATOM     23  C   UNL     1      29.754 -22.962 -15.949  0.00  0.00    +0.053 C 
ATOM     24  C   UNL     1      31.177 -22.341 -14.097  0.00  0.00    -0.000 C 
ATOM     25  C   UNL     1      29.930 -22.322 -14.722  0.00  0.00    +0.004 C 
BRANCH  23  28
ATOM     26  O   UNL     1      28.290 -23.415 -17.737  0.00  0.00    -0.270 OA
ATOM     27  N   UNL     1      27.387 -22.387 -15.897  0.00  0.00    -0.325 N 
ATOM     28  C   UNL     1      28.454 -22.941 -16.599  0.00  0.00    +0.243 C 
ATOM     29  H   UNL     1      26.492 -22.356 -16.305  0.00  0.00    +0.145 HD
ATOM     30  H   UNL     1      27.528 -22.027 -14.992  0.00  0.00    +0.145 HD
ENDBRANCH  23  28
ENDBRANCH  19  20
ENDBRANCH   1  19
TORSDOF 5
ENDMDL
MODEL 5
REMARK VINA RESULT:      -9.1     14.956     18.101
REMARK  Name = 9863791
REMARK  5 active torsions:
REMARK  status: ('A' for Active; 'I' for Inactive)
REMARK    1  A    between atoms: N_1  and  C_19
REMARK    2  A    between atoms: C_11  and  C_16
REMARK    3  A    between atoms: C_16  and  O_17
REMARK    4  A    between atoms: C_19  and  C_20
REMARK    5  A    between atoms: C_23  and  C_28
REMARK                            x       y       z     vdW  Elec       q    Type
REMARK                         _______ _______ _______ _____ _____    ______ ____
ROOT
ATOM      1  N   UNL     1      33.862  -9.227 -23.027  0.00  0.00    -0.327 N 
ATOM      2  C   UNL     1      34.321 -10.130 -23.950  0.00  0.00    +0.033 A 
ATOM      3  C   UNL     1      33.558 -11.278 -23.843  0.00  0.00    -0.009 A 
ATOM      4  C   UNL     1      35.456  -9.820 -24.863  0.00  0.00    +0.043 C 
ATOM      5  C   UNL     1      33.732 -12.509 -24.668  0.00  0.00    +0.028 C 
ATOM      6  C   UNL     1      35.101 -10.063 -26.331  0.00  0.00    +0.006 C 
ATOM      7  C   UNL     1      33.708 -12.238 -26.174  0.00  0.00    +0.005 C 
ATOM      8  C   UNL     1      32.597 -11.050 -22.806  0.00  0.00    +0.013 A 
ATOM      9  C   UNL     1      34.962 -11.540 -26.712  0.00  0.00    +0.001 C 
ATOM     10  C   UNL     1      32.812  -9.759 -22.318  0.00  0.00    +0.066 A 
ATOM     11  C   UNL     1      32.046  -9.199 -21.289  0.00  0.00    +0.091 C 
ATOM     12  C   UNL     1      31.560 -11.818 -22.234  0.00  0.00    +0.001 C 
ATOM     13  C   UNL     1      31.026  -9.982 -20.741  0.00  0.00    +0.008 C 
ATOM     14  C   UNL     1      30.785 -11.271 -21.205  0.00  0.00    +0.000 C 
ENDROOT
BRANCH  11  16
ATOM     15  O   UNL     1      31.628  -6.851 -21.107  0.00  0.00    -0.245 OA
ATOM     16  C   UNL     1      32.264  -7.859 -20.775  0.00  0.00    +0.339 C 
BRANCH  16  17
ATOM     17  O   UNL     1      33.267  -7.808 -19.856  0.00  0.00    -0.477 OA
ATOM     18  H   UNL     1      33.801  -8.562 -19.703  0.00  0.00    +0.295 HD
ENDBRANCH  16  17
ENDBRANCH  11  16
BRANCH   1  19
ATOM     19  C   UNL     1      34.410  -7.900 -22.824  0.00  0.00    +0.132 C 
BRANCH  19  20
ATOM     20  C   UNL     1      33.870  -6.922 -23.832  0.00  0.00    +0.001 C 
ATOM     21  C   UNL     1      32.689  -6.245 -23.563  0.00  0.00    +0.002 C 
ATOM     22  C   UNL     1      34.559  -6.711 -25.018  0.00  0.00    -0.002 C 
ATOM     23  C   UNL     1      32.186  -5.339 -24.498  0.00  0.00    +0.053 C 
ATOM     24  C   UNL     1      34.058  -5.806 -25.954  0.00  0.00    -0.000 C 
ATOM     25  C   UNL     1      32.871  -5.120 -25.694  0.00  0.00    +0.004 C 
BRANCH  23  28
ATOM     26  O   UNL     1      30.374  -3.967 -25.112  0.00  0.00    -0.270 OA
ATOM     27  N   UNL     1      30.418  -4.711 -22.944  0.00  0.00    -0.325 N 
ATOM     28  C   UNL     1      30.950  -4.624 -24.227  0.00  0.00    +0.243 C 
ATOM     29  H   UNL     1      29.583  -4.240 -22.724  0.00  0.00    +0.145 HD
ATOM     30  H   UNL     1      30.878  -5.244 -22.256  0.00  0.00    +0.145 HD
ENDBRANCH  23  28
ENDBRANCH  19  20
ENDBRANCH   1  19
TORSDOF 5
ENDMDL
MODEL 6
REMARK VINA RESULT:      -8.9     11.428     14.477
REMARK  Name = 9863791
REMARK  5 active torsions:
REMARK  status: ('A' for Active; 'I' for Inactive)
REMARK    1  A    between atoms: N_1  and  C_19
REMARK    2  A    between atoms: C_11  and  C_16
REMARK    3  A    between atoms: C_16  and  O_17
REMARK    4  A    between atoms: C_19  and  C_20
REMARK    5  A    between atoms: C_23  and  C_28
REMARK                            x       y       z     vdW  Elec       q    Type
REMARK                         _______ _______ _______ _____ _____    ______ ____
ROOT
ATOM      1  N   UNL     1      32.257 -10.858 -22.678  0.00  0.00    -0.327 N 
ATOM      2  C   UNL     1      32.972 -10.552 -23.806  0.00  0.00    +0.033 A 
ATOM      3  C   UNL     1      33.526  -9.297 -23.635  0.00  0.00    -0.009 A 
ATOM      4  C   UNL     1      33.069 -11.489 -24.959  0.00  0.00    +0.043 C 
ATOM      5  C   UNL     1      34.379  -8.588 -24.634  0.00  0.00    +0.028 C 
ATOM      6  C   UNL     1      34.519 -11.761 -25.363  0.00  0.00    +0.006 C 
ATOM      7  C   UNL     1      35.578  -9.415 -25.102  0.00  0.00    +0.005 C 
ATOM      8  C   UNL     1      33.122  -8.830 -22.343  0.00  0.00    +0.013 A 
ATOM      9  C   UNL     1      35.221 -10.577 -26.036  0.00  0.00    +0.001 C 
ATOM     10  C   UNL     1      32.331  -9.829 -21.770  0.00  0.00    +0.066 A 
ATOM     11  C   UNL     1      31.761  -9.709 -20.497  0.00  0.00    +0.091 C 
ATOM     12  C   UNL     1      33.353  -7.652 -21.602  0.00  0.00    +0.001 C 
ATOM     13  C   UNL     1      32.007  -8.531 -19.785  0.00  0.00    +0.008 C 
ATOM     14  C   UNL     1      32.790  -7.517 -20.328  0.00  0.00    +0.000 C 
ENDROOT
BRANCH  11  16
ATOM     15  O   UNL     1      29.905 -11.213 -20.386  0.00  0.00    -0.245 OA
ATOM     16  C   UNL     1      30.938 -10.741 -19.895  0.00  0.00    +0.339 C 
BRANCH  16  17
ATOM     17  O   UNL     1      31.422 -11.162 -18.694  0.00  0.00    -0.477 OA
ATOM     18  H   UNL     1      31.139 -10.747 -17.903  0.00  0.00    +0.295 HD
ENDBRANCH  16  17
ENDBRANCH  11  16
BRANCH   1  19
ATOM     19  C   UNL     1      31.520 -12.090 -22.473  0.00  0.00    +0.132 C 
BRANCH  19  20
ATOM     20  C   UNL     1      32.444 -13.238 -22.166  0.00  0.00    +0.001 C 
ATOM     21  C   UNL     1      32.973 -13.988 -23.206  0.00  0.00    +0.002 C 
ATOM     22  C   UNL     1      32.755 -13.531 -20.845  0.00  0.00    -0.002 C 
ATOM     23  C   UNL     1      33.829 -15.052 -22.922  0.00  0.00    +0.053 C 
ATOM     24  C   UNL     1      33.610 -14.595 -20.559  0.00  0.00    -0.000 C 
ATOM     25  C   UNL     1      34.147 -15.356 -21.598  0.00  0.00    +0.004 C 
BRANCH  23  28
ATOM     26  O   UNL     1      33.907 -15.811 -25.150  0.00  0.00    -0.270 OA
ATOM     27  N   UNL     1      35.499 -16.635 -23.721  0.00  0.00    -0.325 N 
ATOM     28  C   UNL     1      34.389 -15.845 -24.004  0.00  0.00    +0.243 C 
ATOM     29  H   UNL     1      35.906 -17.185 -24.428  0.00  0.00    +0.145 HD
ATOM     30  H   UNL     1      35.879 -16.643 -22.812  0.00  0.00    +0.145 HD
ENDBRANCH  23  28
ENDBRANCH  19  20
ENDBRANCH   1  19
TORSDOF 5
ENDMDL
MODEL 7
REMARK VINA RESULT:      -8.8     15.114     18.236
REMARK  Name = 9863791
REMARK  5 active torsions:
REMARK  status: ('A' for Active; 'I' for Inactive)
REMARK    1  A    between atoms: N_1  and  C_19
REMARK    2  A    between atoms: C_11  and  C_16
REMARK    3  A    between atoms: C_16  and  O_17
REMARK    4  A    between atoms: C_19  and  C_20
REMARK    5  A    between atoms: C_23  and  C_28
REMARK                            x       y       z     vdW  Elec       q    Type
REMARK                         _______ _______ _______ _____ _____    ______ ____
ROOT
ATOM      1  N   UNL     1      33.525  -6.892 -23.511  0.00  0.00    -0.327 N 
ATOM      2  C   UNL     1      33.523  -6.328 -24.760  0.00  0.00    +0.033 A 
ATOM      3  C   UNL     1      32.442  -5.470 -24.842  0.00  0.00    -0.009 A 
ATOM      4  C   UNL     1      34.560  -6.657 -25.777  0.00  0.00    +0.043 C 
ATOM      5  C   UNL     1      32.076  -4.658 -26.038  0.00  0.00    +0.028 C 
ATOM      6  C   UNL     1      35.233  -5.406 -26.342  0.00  0.00    +0.006 C 
ATOM      7  C   UNL     1      33.224  -3.789 -26.555  0.00  0.00    +0.005 C 
ATOM      8  C   UNL     1      31.766  -5.524 -23.580  0.00  0.00    +0.013 A 
ATOM      9  C   UNL     1      34.339  -4.567 -27.262  0.00  0.00    +0.001 C 
ATOM     10  C   UNL     1      32.467  -6.420 -22.771  0.00  0.00    +0.066 A 
ATOM     11  C   UNL     1      32.083  -6.718 -21.458  0.00  0.00    +0.091 C 
ATOM     12  C   UNL     1      30.621  -4.895 -23.047  0.00  0.00    +0.001 C 
ATOM     13  C   UNL     1      30.946  -6.080 -20.955  0.00  0.00    +0.008 C 
ATOM     14  C   UNL     1      30.224  -5.182 -21.736  0.00  0.00    +0.000 C 
ENDROOT
BRANCH  11  16
ATOM     15  O   UNL     1      32.602  -8.866 -20.545  0.00  0.00    -0.245 OA
ATOM     16  C   UNL     1      32.806  -7.648 -20.610  0.00  0.00    +0.339 C 
BRANCH  16  17
ATOM     17  O   UNL     1      33.768  -7.037 -19.865  0.00  0.00    -0.477 OA
ATOM     18  H   UNL     1      34.005  -6.148 -20.041  0.00  0.00    +0.295 HD
ENDBRANCH  16  17
ENDBRANCH  11  16
BRANCH   1  19
ATOM     19  C   UNL     1      34.501  -7.855 -23.038  0.00  0.00    +0.132 C 
BRANCH  19  20
ATOM     20  C   UNL     1      34.284  -9.208 -23.661  0.00  0.00    +0.001 C 
ATOM     21  C   UNL     1      33.368 -10.082 -23.093  0.00  0.00    +0.002 C 
ATOM     22  C   UNL     1      35.003  -9.563 -24.793  0.00  0.00    -0.002 C 
ATOM     23  C   UNL     1      33.167 -11.337 -23.669  0.00  0.00    +0.053 C 
ATOM     24  C   UNL     1      34.803 -10.817 -25.370  0.00  0.00    -0.000 C 
ATOM     25  C   UNL     1      33.885 -11.704 -24.808  0.00  0.00    +0.004 C 
BRANCH  23  28
ATOM     26  O   UNL     1      32.254 -13.481 -23.329  0.00  0.00    -0.270 OA
ATOM     27  N   UNL     1      31.248 -11.742 -22.224  0.00  0.00    -0.325 N 
ATOM     28  C   UNL     1      32.210 -12.262 -23.085  0.00  0.00    +0.243 C 
ATOM     29  H   UNL     1      30.583 -12.338 -21.810  0.00  0.00    +0.145 HD
ATOM     30  H   UNL     1      31.232 -10.777 -22.030  0.00  0.00    +0.145 HD
ENDBRANCH  23  28
ENDBRANCH  19  20
ENDBRANCH   1  19
TORSDOF 5
ENDMDL
MODEL 8
REMARK VINA RESULT:      -8.5     14.917     18.080
REMARK  Name = 9863791
REMARK  5 active torsions:
REMARK  status: ('A' for Active; 'I' for Inactive)
REMARK    1  A    between atoms: N_1  and  C_19
REMARK    2  A    between atoms: C_11  and  C_16
REMARK    3  A    between atoms: C_16  and  O_17
REMARK    4  A    between atoms: C_19  and  C_20
REMARK    5  A    between atoms: C_23  and  C_28
REMARK                            x       y       z     vdW  Elec       q    Type
REMARK                         _______ _______ _______ _____ _____    ______ ____
ROOT
ATOM      1  N   UNL     1      33.801  -9.168 -23.041  0.00  0.00    -0.327 N 
ATOM      2  C   UNL     1      34.280 -10.078 -23.947  0.00  0.00    +0.033 A 
ATOM      3  C   UNL     1      33.576 -11.257 -23.783  0.00  0.00    -0.009 A 
ATOM      4  C   UNL     1      35.374  -9.745 -24.900  0.00  0.00    +0.043 C 
ATOM      5  C   UNL     1      33.788 -12.504 -24.572  0.00  0.00    +0.028 C 
ATOM      6  C   UNL     1      34.994 -10.052 -26.349  0.00  0.00    +0.006 C 
ATOM      7  C   UNL     1      33.712 -12.285 -26.085  0.00  0.00    +0.005 C 
ATOM      8  C   UNL     1      32.631 -11.039 -22.728  0.00  0.00    +0.013 A 
ATOM      9  C   UNL     1      34.917 -11.547 -26.679  0.00  0.00    +0.001 C 
ATOM     10  C   UNL     1      32.797  -9.725 -22.287  0.00  0.00    +0.066 A 
ATOM     11  C   UNL     1      32.031  -9.168 -21.256  0.00  0.00    +0.091 C 
ATOM     12  C   UNL     1      31.648 -11.837 -22.104  0.00  0.00    +0.001 C 
ATOM     13  C   UNL     1      31.064  -9.979 -20.656  0.00  0.00    +0.008 C 
ATOM     14  C   UNL     1      30.874 -11.294 -21.072  0.00  0.00    +0.000 C 
ENDROOT
BRANCH  11  16
ATOM     15  O   UNL     1      31.517  -6.834 -21.152  0.00  0.00    -0.245 OA
ATOM     16  C   UNL     1      32.197  -7.803 -20.791  0.00  0.00    +0.339 C 
BRANCH  16  17
ATOM     17  O   UNL     1      33.205  -7.678 -19.885  0.00  0.00    -0.477 OA
ATOM     18  H   UNL     1      33.620  -6.848 -19.758  0.00  0.00    +0.295 HD
ENDBRANCH  16  17
ENDBRANCH  11  16
BRANCH   1  19
ATOM     19  C   UNL     1      34.290  -7.810 -22.895  0.00  0.00    +0.132 C 
BRANCH  19  20
ATOM     20  C   UNL     1      33.713  -6.902 -23.948  0.00  0.00    +0.001 C 
ATOM     21  C   UNL     1      34.531  -6.423 -24.961  0.00  0.00    +0.002 C 
ATOM     22  C   UNL     1      32.370  -6.556 -23.890  0.00  0.00    -0.002 C 
ATOM     23  C   UNL     1      33.997  -5.580 -25.936  0.00  0.00    +0.053 C 
ATOM     24  C   UNL     1      31.834  -5.713 -24.865  0.00  0.00    -0.000 C 
ATOM     25  C   UNL     1      32.648  -5.225 -25.888  0.00  0.00    +0.004 C 
BRANCH  23  28
ATOM     26  O   UNL     1      36.078  -5.224 -26.979  0.00  0.00    -0.270 OA
ATOM     27  N   UNL     1      34.226  -4.421 -28.067  0.00  0.00    -0.325 N 
ATOM     28  C   UNL     1      34.843  -5.072 -27.003  0.00  0.00    +0.243 C 
ATOM     29  H   UNL     1      34.767  -4.064 -28.807  0.00  0.00    +0.145 HD
ATOM     30  H   UNL     1      33.247  -4.319 -28.079  0.00  0.00    +0.145 HD
ENDBRANCH  23  28
ENDBRANCH  19  20
ENDBRANCH   1  19
TORSDOF 5
ENDMDL
MODEL 9
REMARK VINA RESULT:      -8.1     12.899     16.485
REMARK  Name = 9863791
REMARK  5 active torsions:
REMARK  status: ('A' for Active; 'I' for Inactive)
REMARK    1  A    between atoms: N_1  and  C_19
REMARK    2  A    between atoms: C_11  and  C_16
REMARK    3  A    between atoms: C_16  and  O_17
REMARK    4  A    between atoms: C_19  and  C_20
REMARK    5  A    between atoms: C_23  and  C_28
REMARK                            x       y       z     vdW  Elec       q    Type
REMARK                         _______ _______ _______ _____ _____    ______ ____
ROOT
ATOM      1  N   UNL     1      32.217 -11.415 -22.879  0.00  0.00    -0.327 N 
ATOM      2  C   UNL     1      31.784 -10.794 -21.737  0.00  0.00    +0.033 A 
ATOM      3  C   UNL     1      31.817 -11.718 -20.709  0.00  0.00    -0.009 A 
ATOM      4  C   UNL     1      31.373  -9.363 -21.721  0.00  0.00    +0.043 C 
ATOM      5  C   UNL     1      31.421 -11.449 -19.296  0.00  0.00    +0.028 C 
ATOM      6  C   UNL     1      32.106  -8.562 -20.644  0.00  0.00    +0.006 C 
ATOM      7  C   UNL     1      32.143 -10.248 -18.682  0.00  0.00    +0.005 C 
ATOM      8  C   UNL     1      32.293 -12.949 -21.264  0.00  0.00    +0.013 A 
ATOM      9  C   UNL     1      31.675  -8.888 -19.210  0.00  0.00    +0.001 C 
ATOM     10  C   UNL     1      32.534 -12.726 -22.621  0.00  0.00    +0.066 A 
ATOM     11  C   UNL     1      33.012 -13.722 -23.481  0.00  0.00    +0.091 C 
ATOM     12  C   UNL     1      32.543 -14.236 -20.742  0.00  0.00    +0.001 C 
ATOM     13  C   UNL     1      33.251 -14.987 -22.937  0.00  0.00    +0.008 C 
ATOM     14  C   UNL     1      33.021 -15.242 -21.589  0.00  0.00    +0.000 C 
ENDROOT
BRANCH  11  16
ATOM     15  O   UNL     1      34.131 -12.747 -25.356  0.00  0.00    -0.245 OA
ATOM     16  C   UNL     1      33.266 -13.500 -24.892  0.00  0.00    +0.339 C 
BRANCH  16  17
ATOM     17  O   UNL     1      32.435 -14.223 -25.694  0.00  0.00    -0.477 OA
ATOM     18  H   UNL     1      31.615 -13.862 -25.965  0.00  0.00    +0.295 HD
ENDBRANCH  16  17
ENDBRANCH  11  16
BRANCH   1  19
ATOM     19  C   UNL     1      32.320 -10.778 -24.179  0.00  0.00    +0.132 C 
BRANCH  19  20
ATOM     20  C   UNL     1      33.015  -9.447 -24.085  0.00  0.00    +0.001 C 
ATOM     21  C   UNL     1      32.282  -8.280 -24.246  0.00  0.00    +0.002 C 
ATOM     22  C   UNL     1      34.381  -9.405 -23.841  0.00  0.00    -0.002 C 
ATOM     23  C   UNL     1      32.927  -7.045 -24.160  0.00  0.00    +0.053 C 
ATOM     24  C   UNL     1      35.027  -8.171 -23.755  0.00  0.00    -0.000 C 
ATOM     25  C   UNL     1      34.300  -6.991 -23.915  0.00  0.00    +0.004 C 
BRANCH  23  28
ATOM     26  O   UNL     1      32.423  -5.017 -25.245  0.00  0.00    -0.270 OA
ATOM     27  N   UNL     1      31.135  -5.565 -23.429  0.00  0.00    -0.325 N 
ATOM     28  C   UNL     1      32.170  -5.815 -24.326  0.00  0.00    +0.243 C 
ATOM     29  H   UNL     1      30.601  -4.743 -23.510  0.00  0.00    +0.145 HD
ATOM     30  H   UNL     1      30.937  -6.212 -22.714  0.00  0.00    +0.145 HD
ENDBRANCH  23  28
ENDBRANCH  19  20
ENDBRANCH   1  19
TORSDOF 5
ENDMDL
