MODEL 1
REMARK VINA RESULT:     -11.0      0.000      0.000
REMARK  Name = 16070039
REMARK  6 active torsions:
REMARK  status: ('A' for Active; 'I' for Inactive)
REMARK    1  A    between atoms: N_3  and  C_18
REMARK    2  A    between atoms: C_6  and  C_12
REMARK    3  A    between atoms: C_19  and  O_28
REMARK    4  A    between atoms: C_21  and  C_25
REMARK    5  A    between atoms: C_25  and  O_26
REMARK    6  A    between atoms: O_28  and  C_32
REMARK                            x       y       z     vdW  Elec       q    Type
REMARK                         _______ _______ _______ _____ _____    ______ ____
ROOT
ATOM      1  O   UNL     1      31.825 -12.731 -21.825  0.00  0.00    -0.252 OA
ATOM      2  O   UNL     1      30.805 -10.250 -21.091  0.00  0.00    -0.270 OA
ATOM      3  N   UNL     1      33.345 -12.596 -23.618  0.00  0.00    -0.266 N 
ATOM      4  N   UNL     1      32.337 -10.680 -22.792  0.00  0.00    -0.236 N 
ATOM      5  C   UNL     1      32.445 -12.080 -22.663  0.00  0.00    +0.310 C 
ATOM      6  C   UNL     1      31.530  -9.862 -22.003  0.00  0.00    +0.254 C 
ATOM      7  H   UNL     1      33.758 -11.936 -24.220  0.00  0.00    +0.157 HD
ATOM      8  H   UNL     1      32.874 -10.246 -23.494  0.00  0.00    +0.159 HD
ENDROOT
BRANCH   6  12
ATOM      9 CL   UNL     1      32.757  -8.034 -19.853  0.00  0.00    -0.082 Cl
ATOM     10  F   UNL     1      30.696  -6.204 -25.019  0.00  0.00    -0.202 F 
ATOM     11  F   UNL     1      31.752  -4.418 -23.239  0.00  0.00    -0.202 F 
ATOM     12  C   UNL     1      31.604  -8.407 -22.298  0.00  0.00    +0.067 C 
ATOM     13  C   UNL     1      32.142  -7.524 -21.384  0.00  0.00    +0.064 C 
ATOM     14  C   UNL     1      31.114  -7.989 -23.520  0.00  0.00    +0.037 C 
ATOM     15  C   UNL     1      32.192  -6.167 -21.703  0.00  0.00    +0.043 C 
ATOM     16  C   UNL     1      31.165  -6.632 -23.839  0.00  0.00    +0.168 C 
ATOM     17  C   UNL     1      31.704  -5.721 -22.932  0.00  0.00    +0.168 C 
ENDBRANCH   6  12
BRANCH   3  18
ATOM     18  C   UNL     1      33.725 -13.926 -23.820  0.00  0.00    +0.086 C 
ATOM     19  C   UNL     1      33.319 -14.616 -24.962  0.00  0.00    +0.160 C 
ATOM     20  C   UNL     1      34.521 -14.562 -22.866  0.00  0.00    +0.018 C 
ATOM     21  C   UNL     1      34.503 -16.578 -24.196  0.00  0.00    +0.079 C 
ATOM     22  C   UNL     1      33.708 -15.943 -25.150  0.00  0.00    +0.045 C 
ATOM     23  C   UNL     1      34.909 -15.887 -23.055  0.00  0.00    +0.008 C 
BRANCH  21  25
ATOM     24  O   UNL     1      34.373 -18.761 -25.167  0.00  0.00    -0.245 OA
ATOM     25  C   UNL     1      34.908 -17.961 -24.393  0.00  0.00    +0.338 C 
BRANCH  25  26
ATOM     26  O   UNL     1      35.973 -18.306 -23.617  0.00  0.00    -0.477 OA
ATOM     27  H   UNL     1      36.706 -17.727 -23.542  0.00  0.00    +0.295 HD
ENDBRANCH  25  26
ENDBRANCH  21  25
BRANCH  19  28
ATOM     28  O   UNL     1      32.541 -14.013 -25.906  0.00  0.00    -0.403 OA
BRANCH  28  32
ATOM     29  F   UNL     1      33.939 -12.311 -26.520  0.00  0.00    -0.133 F 
ATOM     30  F   UNL     1      32.246 -12.825 -27.800  0.00  0.00    -0.133 F 
ATOM     31  F   UNL     1      33.956 -14.182 -27.695  0.00  0.00    -0.133 F 
ATOM     32  C   UNL     1      33.189 -13.335 -26.976  0.00  0.00    +0.575 C 
ENDBRANCH  28  32
ENDBRANCH  19  28
ENDBRANCH   3  18
TORSDOF 6
ENDMDL
MODEL 2
REMARK VINA RESULT:     -10.9      2.779      3.350
REMARK  Name = 16070039
REMARK  6 active torsions:
REMARK  status: ('A' for Active; 'I' for Inactive)
REMARK    1  A    between atoms: N_3  and  C_18
REMARK    2  A    between atoms: C_6  and  C_12
REMARK    3  A    between atoms: C_19  and  O_28
REMARK    4  A    between atoms: C_21  and  C_25
REMARK    5  A    between atoms: C_25  and  O_26
REMARK    6  A    between atoms: O_28  and  C_32
REMARK                            x       y       z     vdW  Elec       q    Type
REMARK                         _______ _______ _______ _____ _____    ______ ____
ROOT
ATOM      1  O   UNL     1      34.931 -10.773 -24.429  0.00  0.00    -0.252 OA
ATOM      2  O   UNL     1      34.679  -8.033 -24.025  0.00  0.00    -0.270 OA
ATOM      3  N   UNL     1      33.017 -11.971 -23.766  0.00  0.00    -0.266 N 
ATOM      4  N   UNL     1      33.089  -9.665 -23.546  0.00  0.00    -0.236 N 
ATOM      5  C   UNL     1      33.795 -10.812 -23.963  0.00  0.00    +0.310 C 
ATOM      6  C   UNL     1      33.573  -8.359 -23.604  0.00  0.00    +0.254 C 
ATOM      7  H   UNL     1      32.123 -11.827 -23.379  0.00  0.00    +0.157 HD
ATOM      8  H   UNL     1      32.182  -9.797 -23.186  0.00  0.00    +0.159 HD
ENDROOT
BRANCH   6  12
ATOM      9 CL   UNL     1      33.130  -8.083 -20.571  0.00  0.00    -0.082 Cl
ATOM     10  F   UNL     1      30.553  -4.758 -24.645  0.00  0.00    -0.202 F 
ATOM     11  F   UNL     1      30.027  -4.355 -21.993  0.00  0.00    -0.202 F 
ATOM     12  C   UNL     1      32.636  -7.304 -23.140  0.00  0.00    +0.067 C 
ATOM     13  C   UNL     1      32.386  -7.118 -21.795  0.00  0.00    +0.064 C 
ATOM     14  C   UNL     1      32.034  -6.527 -24.111  0.00  0.00    +0.037 C 
ATOM     15  C   UNL     1      31.498  -6.115 -21.405  0.00  0.00    +0.043 C 
ATOM     16  C   UNL     1      31.147  -5.524 -23.720  0.00  0.00    +0.168 C 
ATOM     17  C   UNL     1      30.879  -5.317 -22.368  0.00  0.00    +0.168 C 
ENDBRANCH   6  12
BRANCH   3  18
ATOM     18  C   UNL     1      33.352 -13.298 -24.048  0.00  0.00    +0.086 C 
ATOM     19  C   UNL     1      33.775 -14.156 -23.033  0.00  0.00    +0.160 C 
ATOM     20  C   UNL     1      33.259 -13.762 -25.361  0.00  0.00    +0.018 C 
ATOM     21  C   UNL     1      34.011 -15.942 -24.643  0.00  0.00    +0.079 C 
ATOM     22  C   UNL     1      34.104 -15.479 -23.331  0.00  0.00    +0.045 C 
ATOM     23  C   UNL     1      33.589 -15.084 -25.657  0.00  0.00    +0.008 C 
BRANCH  21  25
ATOM     24  O   UNL     1      33.741 -18.056 -25.733  0.00  0.00    -0.245 OA
ATOM     25  C   UNL     1      34.356 -17.321 -24.953  0.00  0.00    +0.338 C 
BRANCH  25  26
ATOM     26  O   UNL     1      35.462 -17.744 -24.280  0.00  0.00    -0.477 OA
ATOM     27  H   UNL     1      35.451 -18.565 -23.829  0.00  0.00    +0.295 HD
ENDBRANCH  25  26
ENDBRANCH  21  25
BRANCH  19  28
ATOM     28  O   UNL     1      33.873 -13.723 -21.745  0.00  0.00    -0.403 OA
BRANCH  28  32
ATOM     29  F   UNL     1      33.342 -15.035 -19.949  0.00  0.00    -0.133 F 
ATOM     30  F   UNL     1      31.852 -14.696 -21.509  0.00  0.00    -0.133 F 
ATOM     31  F   UNL     1      32.368 -13.062 -20.154  0.00  0.00    -0.133 F 
ATOM     32  C   UNL     1      32.866 -14.124 -20.823  0.00  0.00    +0.575 C 
ENDBRANCH  28  32
ENDBRANCH  19  28
ENDBRANCH   3  18
TORSDOF 6
ENDMDL
MODEL 3
REMARK VINA RESULT:     -10.7      3.798      9.136
REMARK  Name = 16070039
REMARK  6 active torsions:
REMARK  status: ('A' for Active; 'I' for Inactive)
REMARK    1  A    between atoms: N_3  and  C_18
REMARK    2  A    between atoms: C_6  and  C_12
REMARK    3  A    between atoms: C_19  and  O_28
REMARK    4  A    between atoms: C_21  and  C_25
REMARK    5  A    between atoms: C_25  and  O_26
REMARK    6  A    between atoms: O_28  and  C_32
REMARK                            x       y       z     vdW  Elec       q    Type
REMARK                         _______ _______ _______ _____ _____    ______ ____
ROOT
ATOM      1  O   UNL     1      33.483 -12.816 -25.712  0.00  0.00    -0.252 OA
ATOM      2  O   UNL     1      33.850 -15.555 -26.017  0.00  0.00    -0.270 OA
ATOM      3  N   UNL     1      33.739 -12.106 -23.482  0.00  0.00    -0.266 N 
ATOM      4  N   UNL     1      33.991 -14.343 -24.035  0.00  0.00    -0.236 N 
ATOM      5  C   UNL     1      33.713 -13.052 -24.528  0.00  0.00    +0.310 C 
ATOM      6  C   UNL     1      34.042 -15.503 -24.806  0.00  0.00    +0.254 C 
ATOM      7  H   UNL     1      33.939 -12.462 -22.586  0.00  0.00    +0.157 HD
ATOM      8  H   UNL     1      34.164 -14.432 -23.069  0.00  0.00    +0.159 HD
ENDROOT
BRANCH   6  12
ATOM      9 CL   UNL     1      34.462 -15.294 -21.765  0.00  0.00    -0.082 Cl
ATOM     10  F   UNL     1      34.928 -20.234 -24.875  0.00  0.00    -0.202 F 
ATOM     11  F   UNL     1      35.340 -20.256 -22.173  0.00  0.00    -0.202 F 
ATOM     12  C   UNL     1      34.389 -16.748 -24.073  0.00  0.00    +0.067 C 
ATOM     13  C   UNL     1      34.592 -16.735 -22.708  0.00  0.00    +0.064 C 
ATOM     14  C   UNL     1      34.496 -17.906 -24.819  0.00  0.00    +0.037 C 
ATOM     15  C   UNL     1      34.916 -17.928 -22.061  0.00  0.00    +0.043 C 
ATOM     16  C   UNL     1      34.820 -19.099 -24.172  0.00  0.00    +0.168 C 
ATOM     17  C   UNL     1      35.029 -19.111 -22.793  0.00  0.00    +0.168 C 
ENDBRANCH   6  12
BRANCH   3  18
ATOM     18  C   UNL     1      33.516 -10.728 -23.554  0.00  0.00    +0.086 C 
ATOM     19  C   UNL     1      32.316 -10.177 -23.102  0.00  0.00    +0.160 C 
ATOM     20  C   UNL     1      34.508  -9.902 -24.082  0.00  0.00    +0.018 C 
ATOM     21  C   UNL     1      33.102  -7.974 -23.707  0.00  0.00    +0.079 C 
ATOM     22  C   UNL     1      32.110  -8.800 -23.179  0.00  0.00    +0.045 C 
ATOM     23  C   UNL     1      34.300  -8.525 -24.158  0.00  0.00    +0.008 C 
BRANCH  21  25
ATOM     24  O   UNL     1      33.082  -5.838 -24.786  0.00  0.00    -0.245 OA
ATOM     25  C   UNL     1      32.885  -6.538 -23.787  0.00  0.00    +0.338 C 
BRANCH  25  26
ATOM     26  O   UNL     1      32.425  -6.016 -22.616  0.00  0.00    -0.477 OA
ATOM     27  H   UNL     1      32.479  -5.093 -22.462  0.00  0.00    +0.295 HD
ENDBRANCH  25  26
ENDBRANCH  21  25
BRANCH  19  28
ATOM     28  O   UNL     1      31.334 -10.967 -22.583  0.00  0.00    -0.403 OA
BRANCH  28  32
ATOM     29  F   UNL     1      31.878 -12.443 -20.923  0.00  0.00    -0.133 F 
ATOM     30  F   UNL     1      30.079 -11.219 -20.726  0.00  0.00    -0.133 F 
ATOM     31  F   UNL     1      32.040 -10.275 -20.520  0.00  0.00    -0.133 F 
ATOM     32  C   UNL     1      31.351 -11.228 -21.184  0.00  0.00    +0.575 C 
ENDBRANCH  28  32
ENDBRANCH  19  28
ENDBRANCH   3  18
TORSDOF 6
ENDMDL
MODEL 4
REMARK VINA RESULT:     -10.6      1.649      1.798
REMARK  Name = 16070039
REMARK  6 active torsions:
REMARK  status: ('A' for Active; 'I' for Inactive)
REMARK    1  A    between atoms: N_3  and  C_18
REMARK    2  A    between atoms: C_6  and  C_12
REMARK    3  A    between atoms: C_19  and  O_28
REMARK    4  A    between atoms: C_21  and  C_25
REMARK    5  A    between atoms: C_25  and  O_26
REMARK    6  A    between atoms: O_28  and  C_32
REMARK                            x       y       z     vdW  Elec       q    Type
REMARK                         _______ _______ _______ _____ _____    ______ ____
ROOT
ATOM      1  O   UNL     1      34.965 -10.857 -24.404  0.00  0.00    -0.252 OA
ATOM      2  O   UNL     1      34.611  -8.106 -24.203  0.00  0.00    -0.270 OA
ATOM      3  N   UNL     1      33.174 -12.075 -23.483  0.00  0.00    -0.266 N 
ATOM      4  N   UNL     1      33.149  -9.758 -23.457  0.00  0.00    -0.236 N 
ATOM      5  C   UNL     1      33.874 -10.905 -23.840  0.00  0.00    +0.310 C 
ATOM      6  C   UNL     1      33.562  -8.442 -23.662  0.00  0.00    +0.254 C 
ATOM      7  H   UNL     1      32.309 -11.938 -23.033  0.00  0.00    +0.157 HD
ATOM      8  H   UNL     1      32.282  -9.898 -23.010  0.00  0.00    +0.159 HD
ENDROOT
BRANCH   6  12
ATOM      9 CL   UNL     1      33.075  -8.184 -20.635  0.00  0.00    -0.082 Cl
ATOM     10  F   UNL     1      30.544  -4.845 -24.725  0.00  0.00    -0.202 F 
ATOM     11  F   UNL     1      29.981  -4.457 -22.079  0.00  0.00    -0.202 F 
ATOM     12  C   UNL     1      32.614  -7.393 -23.206  0.00  0.00    +0.067 C 
ATOM     13  C   UNL     1      32.345  -7.215 -21.863  0.00  0.00    +0.064 C 
ATOM     14  C   UNL     1      32.024  -6.612 -24.181  0.00  0.00    +0.037 C 
ATOM     15  C   UNL     1      31.449  -6.217 -21.480  0.00  0.00    +0.043 C 
ATOM     16  C   UNL     1      31.128  -5.614 -23.797  0.00  0.00    +0.168 C 
ATOM     17  C   UNL     1      30.841  -5.415 -22.447  0.00  0.00    +0.168 C 
ENDBRANCH   6  12
BRANCH   3  18
ATOM     18  C   UNL     1      33.550 -13.406 -23.685  0.00  0.00    +0.086 C 
ATOM     19  C   UNL     1      33.195 -14.076 -24.857  0.00  0.00    +0.160 C 
ATOM     20  C   UNL     1      34.287 -14.065 -22.701  0.00  0.00    +0.018 C 
ATOM     21  C   UNL     1      34.316 -16.062 -24.060  0.00  0.00    +0.079 C 
ATOM     22  C   UNL     1      33.579 -15.404 -25.044  0.00  0.00    +0.045 C 
ATOM     23  C   UNL     1      34.669 -15.392 -22.889  0.00  0.00    +0.008 C 
BRANCH  21  25
ATOM     24  O   UNL     1      35.072 -18.223 -23.363  0.00  0.00    -0.245 OA
ATOM     25  C   UNL     1      34.715 -17.447 -24.255  0.00  0.00    +0.338 C 
BRANCH  25  26
ATOM     26  O   UNL     1      34.656 -17.825 -25.563  0.00  0.00    -0.477 OA
ATOM     27  H   UNL     1      35.445 -18.002 -26.036  0.00  0.00    +0.295 HD
ENDBRANCH  25  26
ENDBRANCH  21  25
BRANCH  19  28
ATOM     28  O   UNL     1      32.475 -13.450 -25.831  0.00  0.00    -0.403 OA
BRANCH  28  32
ATOM     29  F   UNL     1      34.092 -12.212 -26.870  0.00  0.00    -0.133 F 
ATOM     30  F   UNL     1      32.220 -12.628 -27.915  0.00  0.00    -0.133 F 
ATOM     31  F   UNL     1      33.660 -14.246 -27.618  0.00  0.00    -0.133 F 
ATOM     32  C   UNL     1      33.129 -13.139 -27.055  0.00  0.00    +0.575 C 
ENDBRANCH  28  32
ENDBRANCH  19  28
ENDBRANCH   3  18
TORSDOF 6
ENDMDL
MODEL 5
REMARK VINA RESULT:     -10.3      2.408      3.003
REMARK  Name = 16070039
REMARK  6 active torsions:
REMARK  status: ('A' for Active; 'I' for Inactive)
REMARK    1  A    between atoms: N_3  and  C_18
REMARK    2  A    between atoms: C_6  and  C_12
REMARK    3  A    between atoms: C_19  and  O_28
REMARK    4  A    between atoms: C_21  and  C_25
REMARK    5  A    between atoms: C_25  and  O_26
REMARK    6  A    between atoms: O_28  and  C_32
REMARK                            x       y       z     vdW  Elec       q    Type
REMARK                         _______ _______ _______ _____ _____    ______ ____
ROOT
ATOM      1  O   UNL     1      31.611 -12.958 -22.169  0.00  0.00    -0.252 OA
ATOM      2  O   UNL     1      30.579 -10.495 -21.395  0.00  0.00    -0.270 OA
ATOM      3  N   UNL     1      33.355 -12.763 -23.737  0.00  0.00    -0.266 N 
ATOM      4  N   UNL     1      32.306 -10.868 -22.911  0.00  0.00    -0.236 N 
ATOM      5  C   UNL     1      32.354 -12.277 -22.871  0.00  0.00    +0.310 C 
ATOM      6  C   UNL     1      31.428 -10.075 -22.175  0.00  0.00    +0.254 C 
ATOM      7  H   UNL     1      33.863 -12.080 -24.232  0.00  0.00    +0.157 HD
ATOM      8  H   UNL     1      32.944 -10.410 -23.506  0.00  0.00    +0.159 HD
ENDROOT
BRANCH   6  12
ATOM      9 CL   UNL     1      32.534  -8.463 -19.798  0.00  0.00    -0.082 Cl
ATOM     10  F   UNL     1      31.004  -6.175 -24.966  0.00  0.00    -0.202 F 
ATOM     11  F   UNL     1      31.970  -4.572 -22.974  0.00  0.00    -0.202 F 
ATOM     12  C   UNL     1      31.585  -8.607 -22.353  0.00  0.00    +0.067 C 
ATOM     13  C   UNL     1      32.076  -7.817 -21.332  0.00  0.00    +0.064 C 
ATOM     14  C   UNL     1      31.220  -8.080 -23.576  0.00  0.00    +0.037 C 
ATOM     15  C   UNL     1      32.206  -6.444 -21.543  0.00  0.00    +0.043 C 
ATOM     16  C   UNL     1      31.352  -6.707 -23.787  0.00  0.00    +0.168 C 
ATOM     17  C   UNL     1      31.844  -5.889 -22.771  0.00  0.00    +0.168 C 
ENDBRANCH   6  12
BRANCH   3  18
ATOM     18  C   UNL     1      33.718 -14.090 -23.985  0.00  0.00    +0.086 C 
ATOM     19  C   UNL     1      34.334 -14.855 -22.995  0.00  0.00    +0.160 C 
ATOM     20  C   UNL     1      33.459 -14.647 -25.238  0.00  0.00    +0.018 C 
ATOM     21  C   UNL     1      34.429 -16.735 -24.509  0.00  0.00    +0.079 C 
ATOM     22  C   UNL     1      34.689 -16.179 -23.257  0.00  0.00    +0.045 C 
ATOM     23  C   UNL     1      33.815 -15.969 -25.499  0.00  0.00    +0.008 C 
BRANCH  21  25
ATOM     24  O   UNL     1      34.307 -18.830 -25.660  0.00  0.00    -0.245 OA
ATOM     25  C   UNL     1      34.801 -18.115 -24.782  0.00  0.00    +0.338 C 
BRANCH  25  26
ATOM     26  O   UNL     1      35.782 -18.563 -23.950  0.00  0.00    -0.477 OA
ATOM     27  H   UNL     1      35.584 -19.205 -23.296  0.00  0.00    +0.295 HD
ENDBRANCH  25  26
ENDBRANCH  21  25
BRANCH  19  28
ATOM     28  O   UNL     1      34.596 -14.330 -21.765  0.00  0.00    -0.403 OA
BRANCH  28  32
ATOM     29  F   UNL     1      32.942 -15.728 -21.031  0.00  0.00    -0.133 F 
ATOM     30  F   UNL     1      33.327 -13.863 -19.960  0.00  0.00    -0.133 F 
ATOM     31  F   UNL     1      34.768 -15.499 -19.806  0.00  0.00    -0.133 F 
ATOM     32  C   UNL     1      33.911 -14.873 -20.642  0.00  0.00    +0.575 C 
ENDBRANCH  28  32
ENDBRANCH  19  28
ENDBRANCH   3  18
TORSDOF 6
ENDMDL
MODEL 6
REMARK VINA RESULT:     -10.3      3.131      9.206
REMARK  Name = 16070039
REMARK  6 active torsions:
REMARK  status: ('A' for Active; 'I' for Inactive)
REMARK    1  A    between atoms: N_3  and  C_18
REMARK    2  A    between atoms: C_6  and  C_12
REMARK    3  A    between atoms: C_19  and  O_28
REMARK    4  A    between atoms: C_21  and  C_25
REMARK    5  A    between atoms: C_25  and  O_26
REMARK    6  A    between atoms: O_28  and  C_32
REMARK                            x       y       z     vdW  Elec       q    Type
REMARK                         _______ _______ _______ _____ _____    ______ ____
ROOT
ATOM      1  O   UNL     1      31.293 -10.284 -21.868  0.00  0.00    -0.252 OA
ATOM      2  O   UNL     1      31.727 -13.026 -21.714  0.00  0.00    -0.270 OA
ATOM      3  N   UNL     1      32.519  -9.264 -23.598  0.00  0.00    -0.266 N 
ATOM      4  N   UNL     1      32.684 -11.547 -23.236  0.00  0.00    -0.236 N 
ATOM      5  C   UNL     1      32.083 -10.346 -22.807  0.00  0.00    +0.310 C 
ATOM      6  C   UNL     1      32.467 -12.801 -22.666  0.00  0.00    +0.254 C 
ATOM      7  H   UNL     1      33.159  -9.486 -24.314  0.00  0.00    +0.157 HD
ATOM      8  H   UNL     1      33.304 -11.496 -24.000  0.00  0.00    +0.159 HD
ENDROOT
BRANCH   6  12
ATOM      9 CL   UNL     1      34.412 -14.430 -20.924  0.00  0.00    -0.082 Cl
ATOM     10  F   UNL     1      33.328 -15.461 -26.585  0.00  0.00    -0.202 F 
ATOM     11  F   UNL     1      35.094 -17.027 -25.207  0.00  0.00    -0.202 F 
ATOM     12  C   UNL     1      33.184 -13.932 -23.310  0.00  0.00    +0.067 C 
ATOM     13  C   UNL     1      34.071 -14.711 -22.593  0.00  0.00    +0.064 C 
ATOM     14  C   UNL     1      32.919 -14.164 -24.646  0.00  0.00    +0.037 C 
ATOM     15  C   UNL     1      34.721 -15.762 -23.239  0.00  0.00    +0.043 C 
ATOM     16  C   UNL     1      33.569 -15.217 -25.290  0.00  0.00    +0.168 C 
ATOM     17  C   UNL     1      34.470 -16.017 -24.588  0.00  0.00    +0.168 C 
ENDBRANCH   6  12
BRANCH   3  18
ATOM     18  C   UNL     1      32.163  -7.917 -23.497  0.00  0.00    +0.086 C 
ATOM     19  C   UNL     1      32.540  -7.162 -22.387  0.00  0.00    +0.160 C 
ATOM     20  C   UNL     1      31.422  -7.327 -24.522  0.00  0.00    +0.018 C 
ATOM     21  C   UNL     1      31.437  -5.229 -23.327  0.00  0.00    +0.079 C 
ATOM     22  C   UNL     1      32.178  -5.817 -22.302  0.00  0.00    +0.045 C 
ATOM     23  C   UNL     1      31.059  -5.984 -24.436  0.00  0.00    +0.008 C 
BRANCH  21  25
ATOM     24  O   UNL     1      31.359  -2.950 -24.052  0.00  0.00    -0.245 OA
ATOM     25  C   UNL     1      31.058  -3.827 -23.237  0.00  0.00    +0.338 C 
BRANCH  25  26
ATOM     26  O   UNL     1      30.311  -3.561 -22.129  0.00  0.00    -0.477 OA
ATOM     27  H   UNL     1      29.407  -3.807 -22.103  0.00  0.00    +0.295 HD
ENDBRANCH  25  26
ENDBRANCH  21  25
BRANCH  19  28
ATOM     28  O   UNL     1      33.264  -7.718 -21.375  0.00  0.00    -0.403 OA
BRANCH  28  32
ATOM     29  F   UNL     1      32.895  -9.033 -19.541  0.00  0.00    -0.133 F 
ATOM     30  F   UNL     1      31.317  -7.692 -20.236  0.00  0.00    -0.133 F 
ATOM     31  F   UNL     1      33.085  -6.848 -19.267  0.00  0.00    -0.133 F 
ATOM     32  C   UNL     1      32.655  -7.825 -20.093  0.00  0.00    +0.575 C 
ENDBRANCH  28  32
ENDBRANCH  19  28
ENDBRANCH   3  18
TORSDOF 6
ENDMDL
MODEL 7
REMARK VINA RESULT:     -10.1      2.043      2.365
REMARK  Name = 16070039
REMARK  6 active torsions:
REMARK  status: ('A' for Active; 'I' for Inactive)
REMARK    1  A    between atoms: N_3  and  C_18
REMARK    2  A    between atoms: C_6  and  C_12
REMARK    3  A    between atoms: C_19  and  O_28
REMARK    4  A    between atoms: C_21  and  C_25
REMARK    5  A    between atoms: C_25  and  O_26
REMARK    6  A    between atoms: O_28  and  C_32
REMARK                            x       y       z     vdW  Elec       q    Type
REMARK                         _______ _______ _______ _____ _____    ______ ____
ROOT
ATOM      1  O   UNL     1      34.683 -11.065 -24.659  0.00  0.00    -0.252 OA
ATOM      2  O   UNL     1      34.251  -8.342 -24.290  0.00  0.00    -0.270 OA
ATOM      3  N   UNL     1      33.288 -12.399 -23.313  0.00  0.00    -0.266 N 
ATOM      4  N   UNL     1      33.146 -10.087 -23.215  0.00  0.00    -0.236 N 
ATOM      5  C   UNL     1      33.796 -11.184 -23.817  0.00  0.00    +0.310 C 
ATOM      6  C   UNL     1      33.413  -8.747 -23.490  0.00  0.00    +0.254 C 
ATOM      7  H   UNL     1      32.576 -12.318 -22.637  0.00  0.00    +0.157 HD
ATOM      8  H   UNL     1      32.447 -10.284 -22.550  0.00  0.00    +0.159 HD
ENDROOT
BRANCH   6  12
ATOM      9 CL   UNL     1      30.987  -7.567 -24.970  0.00  0.00    -0.082 Cl
ATOM     10  F   UNL     1      32.543  -6.215 -19.489  0.00  0.00    -0.202 F 
ATOM     11  F   UNL     1      30.346  -5.055 -20.630  0.00  0.00    -0.202 F 
ATOM     12  C   UNL     1      32.575  -7.761 -22.759  0.00  0.00    +0.067 C 
ATOM     13  C   UNL     1      31.469  -7.189 -23.356  0.00  0.00    +0.064 C 
ATOM     14  C   UNL     1      32.954  -7.451 -21.467  0.00  0.00    +0.037 C 
ATOM     15  C   UNL     1      30.712  -6.268 -22.632  0.00  0.00    +0.043 C 
ATOM     16  C   UNL     1      32.195  -6.530 -20.744  0.00  0.00    +0.168 C 
ATOM     17  C   UNL     1      31.074  -5.939 -21.325  0.00  0.00    +0.168 C 
ENDBRANCH   6  12
BRANCH   3  18
ATOM     18  C   UNL     1      33.664 -13.702 -23.648  0.00  0.00    +0.086 C 
ATOM     19  C   UNL     1      33.279 -14.262 -24.866  0.00  0.00    +0.160 C 
ATOM     20  C   UNL     1      34.432 -14.444 -22.751  0.00  0.00    +0.018 C 
ATOM     21  C   UNL     1      34.432 -16.306 -24.289  0.00  0.00    +0.079 C 
ATOM     22  C   UNL     1      33.664 -15.565 -25.187  0.00  0.00    +0.045 C 
ATOM     23  C   UNL     1      34.816 -15.745 -23.072  0.00  0.00    +0.008 C 
BRANCH  21  25
ATOM     24  O   UNL     1      34.402 -18.323 -25.576  0.00  0.00    -0.245 OA
ATOM     25  C   UNL     1      34.832 -17.663 -24.624  0.00  0.00    +0.338 C 
BRANCH  25  26
ATOM     26  O   UNL     1      35.761 -18.160 -23.760  0.00  0.00    -0.477 OA
ATOM     27  H   UNL     1      35.640 -18.063 -22.836  0.00  0.00    +0.295 HD
ENDBRANCH  25  26
ENDBRANCH  21  25
BRANCH  19  28
ATOM     28  O   UNL     1      32.528 -13.555 -25.757  0.00  0.00    -0.403 OA
BRANCH  28  32
ATOM     29  F   UNL     1      34.102 -12.373 -26.920  0.00  0.00    -0.133 F 
ATOM     30  F   UNL     1      32.137 -12.713 -27.812  0.00  0.00    -0.133 F 
ATOM     31  F   UNL     1      33.533 -14.385 -27.635  0.00  0.00    -0.133 F 
ATOM     32  C   UNL     1      33.093 -13.262 -27.029  0.00  0.00    +0.575 C 
ENDBRANCH  28  32
ENDBRANCH  19  28
ENDBRANCH   3  18
TORSDOF 6
ENDMDL
MODEL 8
REMARK VINA RESULT:     -10.1      7.114     11.251
REMARK  Name = 16070039
REMARK  6 active torsions:
REMARK  status: ('A' for Active; 'I' for Inactive)
REMARK    1  A    between atoms: N_3  and  C_18
REMARK    2  A    between atoms: C_6  and  C_12
REMARK    3  A    between atoms: C_19  and  O_28
REMARK    4  A    between atoms: C_21  and  C_25
REMARK    5  A    between atoms: C_25  and  O_26
REMARK    6  A    between atoms: O_28  and  C_32
REMARK                            x       y       z     vdW  Elec       q    Type
REMARK                         _______ _______ _______ _____ _____    ______ ____
ROOT
ATOM      1  O   UNL     1      36.640 -19.194 -22.067  0.00  0.00    -0.252 OA
ATOM      2  O   UNL     1      37.448 -21.117 -20.229  0.00  0.00    -0.270 OA
ATOM      3  N   UNL     1      34.467 -18.391 -21.650  0.00  0.00    -0.266 N 
ATOM      4  N   UNL     1      35.404 -20.003 -20.273  0.00  0.00    -0.236 N 
ATOM      5  C   UNL     1      35.605 -19.187 -21.405  0.00  0.00    +0.310 C 
ATOM      6  C   UNL     1      36.333 -20.909 -19.762  0.00  0.00    +0.254 C 
ATOM      7  H   UNL     1      33.718 -18.509 -21.023  0.00  0.00    +0.157 HD
ATOM      8  H   UNL     1      34.540 -19.927 -19.807  0.00  0.00    +0.159 HD
ENDROOT
BRANCH   6  12
ATOM      9 CL   UNL     1      33.495 -22.097 -19.712  0.00  0.00    -0.082 Cl
ATOM     10  F   UNL     1      37.362 -22.492 -15.334  0.00  0.00    -0.202 F 
ATOM     11  F   UNL     1      34.884 -23.619 -15.096  0.00  0.00    -0.202 F 
ATOM     12  C   UNL     1      35.913 -21.636 -18.536  0.00  0.00    +0.067 C 
ATOM     13  C   UNL     1      34.656 -22.198 -18.439  0.00  0.00    +0.064 C 
ATOM     14  C   UNL     1      36.835 -21.721 -17.510  0.00  0.00    +0.037 C 
ATOM     15  C   UNL     1      34.305 -22.872 -17.268  0.00  0.00    +0.043 C 
ATOM     16  C   UNL     1      36.484 -22.396 -16.341  0.00  0.00    +0.168 C 
ATOM     17  C   UNL     1      35.220 -22.972 -16.219  0.00  0.00    +0.168 C 
ENDBRANCH   6  12
BRANCH   3  18
ATOM     18  C   UNL     1      34.266 -17.457 -22.670  0.00  0.00    +0.086 C 
ATOM     19  C   UNL     1      33.907 -16.143 -22.370  0.00  0.00    +0.160 C 
ATOM     20  C   UNL     1      34.428 -17.850 -23.999  0.00  0.00    +0.018 C 
ATOM     21  C   UNL     1      33.873 -15.615 -24.727  0.00  0.00    +0.079 C 
ATOM     22  C   UNL     1      33.711 -15.221 -23.399  0.00  0.00    +0.045 C 
ATOM     23  C   UNL     1      34.231 -16.928 -25.026  0.00  0.00    +0.008 C 
BRANCH  21  25
ATOM     24  O   UNL     1      33.682 -14.913 -27.006  0.00  0.00    -0.245 OA
ATOM     25  C   UNL     1      33.668 -14.653 -25.799  0.00  0.00    +0.338 C 
BRANCH  25  26
ATOM     26  O   UNL     1      33.448 -13.393 -25.332  0.00  0.00    -0.477 OA
ATOM     27  H   UNL     1      32.777 -13.239 -24.695  0.00  0.00    +0.295 HD
ENDBRANCH  25  26
ENDBRANCH  21  25
BRANCH  19  28
ATOM     28  O   UNL     1      33.743 -15.739 -21.078  0.00  0.00    -0.403 OA
BRANCH  28  32
ATOM     29  F   UNL     1      31.907 -14.418 -21.412  0.00  0.00    -0.133 F 
ATOM     30  F   UNL     1      32.505 -14.930 -19.375  0.00  0.00    -0.133 F 
ATOM     31  F   UNL     1      31.620 -16.471 -20.647  0.00  0.00    -0.133 F 
ATOM     32  C   UNL     1      32.433 -15.394 -20.643  0.00  0.00    +0.575 C 
ENDBRANCH  28  32
ENDBRANCH  19  28
ENDBRANCH   3  18
TORSDOF 6
ENDMDL
MODEL 9
REMARK VINA RESULT:     -10.0     10.544     13.543
REMARK  Name = 16070039
REMARK  6 active torsions:
REMARK  status: ('A' for Active; 'I' for Inactive)
REMARK    1  A    between atoms: N_3  and  C_18
REMARK    2  A    between atoms: C_6  and  C_12
REMARK    3  A    between atoms: C_19  and  O_28
REMARK    4  A    between atoms: C_21  and  C_25
REMARK    5  A    between atoms: C_25  and  O_26
REMARK    6  A    between atoms: O_28  and  C_32
REMARK                            x       y       z     vdW  Elec       q    Type
REMARK                         _______ _______ _______ _____ _____    ______ ____
ROOT
ATOM      1  O   UNL     1      34.625 -23.332 -17.742  0.00  0.00    -0.252 OA
ATOM      2  O   UNL     1      33.857 -22.042 -20.082  0.00  0.00    -0.270 OA
ATOM      3  N   UNL     1      36.362 -22.214 -16.614  0.00  0.00    -0.266 N 
ATOM      4  N   UNL     1      35.517 -21.364 -18.598  0.00  0.00    -0.236 N 
ATOM      5  C   UNL     1      35.424 -22.403 -17.649  0.00  0.00    +0.310 C 
ATOM      6  C   UNL     1      34.733 -21.252 -19.744  0.00  0.00    +0.254 C 
ATOM      7  H   UNL     1      36.932 -21.414 -16.691  0.00  0.00    +0.157 HD
ATOM      8  H   UNL     1      36.189 -20.662 -18.436  0.00  0.00    +0.159 HD
ENDROOT
BRANCH   6  12
ATOM      9 CL   UNL     1      32.308 -19.522 -20.520  0.00  0.00    -0.082 Cl
ATOM     10  F   UNL     1      37.839 -18.425 -22.097  0.00  0.00    -0.202 F 
ATOM     11  F   UNL     1      35.819 -16.763 -22.889  0.00  0.00    -0.202 F 
ATOM     12  C   UNL     1      34.985 -20.050 -20.581  0.00  0.00    +0.067 C 
ATOM     13  C   UNL     1      33.948 -19.224 -20.968  0.00  0.00    +0.064 C 
ATOM     14  C   UNL     1      36.294 -19.802 -20.946  0.00  0.00    +0.037 C 
ATOM     15  C   UNL     1      34.232 -18.107 -21.754  0.00  0.00    +0.043 C 
ATOM     16  C   UNL     1      36.577 -18.684 -21.731  0.00  0.00    +0.168 C 
ATOM     17  C   UNL     1      35.547 -17.836 -22.135  0.00  0.00    +0.168 C 
ENDBRANCH   6  12
BRANCH   3  18
ATOM     18  C   UNL     1      36.589 -23.016 -15.492  0.00  0.00    +0.086 C 
ATOM     19  C   UNL     1      35.596 -23.185 -14.526  0.00  0.00    +0.160 C 
ATOM     20  C   UNL     1      37.822 -23.651 -15.344  0.00  0.00    +0.018 C 
ATOM     21  C   UNL     1      37.071 -24.625 -13.265  0.00  0.00    +0.079 C 
ATOM     22  C   UNL     1      35.837 -23.990 -13.412  0.00  0.00    +0.045 C 
ATOM     23  C   UNL     1      38.062 -24.455 -14.230  0.00  0.00    +0.008 C 
BRANCH  21  25
ATOM     24  O   UNL     1      36.946 -26.632 -11.968  0.00  0.00    -0.245 OA
ATOM     25  C   UNL     1      37.322 -25.463 -12.103  0.00  0.00    +0.338 C 
BRANCH  25  26
ATOM     26  O   UNL     1      38.038 -24.817 -11.141  0.00  0.00    -0.477 OA
ATOM     27  H   UNL     1      38.269 -23.916 -11.254  0.00  0.00    +0.295 HD
ENDBRANCH  25  26
ENDBRANCH  21  25
BRANCH  19  28
ATOM     28  O   UNL     1      34.385 -22.573 -14.652  0.00  0.00    -0.403 OA
BRANCH  28  32
ATOM     29  F   UNL     1      33.523 -24.652 -15.058  0.00  0.00    -0.133 F 
ATOM     30  F   UNL     1      32.363 -22.883 -15.602  0.00  0.00    -0.133 F 
ATOM     31  F   UNL     1      32.596 -23.399 -13.491  0.00  0.00    -0.133 F 
ATOM     32  C   UNL     1      33.220 -23.390 -14.688  0.00  0.00    +0.575 C 
ENDBRANCH  28  32
ENDBRANCH  19  28
ENDBRANCH   3  18
TORSDOF 6
ENDMDL
