MODEL 1
REMARK VINA RESULT:      -8.3      0.000      0.000
REMARK  Name = 86418
REMARK  3 active torsions:
REMARK  status: ('A' for Active; 'I' for Inactive)
REMARK    1  A    between atoms: N_1  and  C_11
REMARK    2  A    between atoms: N_3  and  N_10
REMARK    3  A    between atoms: C_11  and  C_14
REMARK                            x       y       z     vdW  Elec       q    Type
REMARK                         _______ _______ _______ _____ _____    ______ ____
ROOT
ATOM      1  N   UNL     1      35.740 -24.687 -14.336  0.00  0.00    -0.253 N 
ATOM      2  N   UNL     1      37.178 -25.605 -12.827  0.00  0.00    -0.213 NA
ATOM      3  N   UNL     1      36.008 -23.618 -12.247  0.00  0.00    -0.158 N 
ATOM      4  C   UNL     1      36.120 -25.906 -15.002  0.00  0.00    +0.089 C 
ATOM      5  C   UNL     1      37.205 -26.438 -14.063  0.00  0.00    +0.118 C 
ATOM      6  C   UNL     1      36.333 -24.635 -13.099  0.00  0.00    +0.212 C 
ATOM      7  H   UNL     1      35.364 -22.932 -12.536  0.00  0.00    +0.182 HD
ENDROOT
BRANCH   3  10
ATOM      8  O   UNL     1      37.530 -22.779 -10.942  0.00  0.00    -0.109 OA
ATOM      9  O   UNL     1      36.073 -24.190 -10.080  0.00  0.00    -0.109 OA
ATOM     10  N   UNL     1      36.557 -23.537 -11.010  0.00  0.00    +0.125 N 
ENDBRANCH   3  10
BRANCH   1  11
ATOM     11  C   UNL     1      34.711 -23.835 -14.875  0.00  0.00    +0.126 C 
BRANCH  11  14
ATOM     12 CL   UNL     1      36.494 -21.051 -19.797  0.00  0.00    -0.061 Cl
ATOM     13  N   UNL     1      34.829 -22.436 -18.373  0.00  0.00    -0.233 NA
ATOM     14  C   UNL     1      35.209 -23.116 -16.098  0.00  0.00    +0.017 C 
ATOM     15  C   UNL     1      36.444 -22.494 -16.091  0.00  0.00    +0.001 C 
ATOM     16  C   UNL     1      34.442 -23.066 -17.241  0.00  0.00    +0.097 C 
ATOM     17  C   UNL     1      36.877 -21.836 -17.237  0.00  0.00    +0.031 C 
ATOM     18  C   UNL     1      36.041 -21.837 -18.341  0.00  0.00    +0.138 C 
ENDBRANCH  11  14
ENDBRANCH   1  11
TORSDOF 3
ENDMDL
MODEL 2
REMARK VINA RESULT:      -8.1      7.734     10.747
REMARK  Name = 86418
REMARK  3 active torsions:
REMARK  status: ('A' for Active; 'I' for Inactive)
REMARK    1  A    between atoms: N_1  and  C_11
REMARK    2  A    between atoms: N_3  and  N_10
REMARK    3  A    between atoms: C_11  and  C_14
REMARK                            x       y       z     vdW  Elec       q    Type
REMARK                         _______ _______ _______ _____ _____    ______ ____
ROOT
ATOM      1  N   UNL     1      35.466 -17.493 -21.815  0.00  0.00    -0.253 N 
ATOM      2  N   UNL     1      34.151 -15.985 -22.903  0.00  0.00    -0.213 NA
ATOM      3  N   UNL     1      35.137 -17.761 -24.139  0.00  0.00    -0.158 N 
ATOM      4  C   UNL     1      34.974 -16.695 -20.721  0.00  0.00    +0.089 C 
ATOM      5  C   UNL     1      34.225 -15.589 -21.468  0.00  0.00    +0.118 C 
ATOM      6  C   UNL     1      34.903 -17.060 -22.990  0.00  0.00    +0.212 C 
ATOM      7  H   UNL     1      35.716 -18.556 -24.110  0.00  0.00    +0.182 HD
ENDROOT
BRANCH   3  10
ATOM      8  O   UNL     1      33.615 -18.058 -25.661  0.00  0.00    -0.109 OA
ATOM      9  O   UNL     1      35.071 -16.426 -25.938  0.00  0.00    -0.109 OA
ATOM     10  N   UNL     1      34.589 -17.379 -25.317  0.00  0.00    +0.125 N 
ENDBRANCH   3  10
BRANCH   1  11
ATOM     11  C   UNL     1      36.245 -18.681 -21.576  0.00  0.00    +0.126 C 
BRANCH  11  14
ATOM     12 CL   UNL     1      33.273 -22.730 -18.426  0.00  0.00    -0.061 Cl
ATOM     13  N   UNL     1      35.416 -21.530 -19.252  0.00  0.00    -0.233 NA
ATOM     14  C   UNL     1      35.445 -19.688 -20.798  0.00  0.00    +0.017 C 
ATOM     15  C   UNL     1      34.066 -19.712 -20.893  0.00  0.00    +0.001 C 
ATOM     16  C   UNL     1      36.075 -20.599 -19.979  0.00  0.00    +0.097 C 
ATOM     17  C   UNL     1      33.354 -20.656 -20.160  0.00  0.00    +0.031 C 
ATOM     18  C   UNL     1      34.069 -21.534 -19.363  0.00  0.00    +0.138 C 
ENDBRANCH  11  14
ENDBRANCH   1  11
TORSDOF 3
ENDMDL
MODEL 3
REMARK VINA RESULT:      -8.0      7.692     10.757
REMARK  Name = 86418
REMARK  3 active torsions:
REMARK  status: ('A' for Active; 'I' for Inactive)
REMARK    1  A    between atoms: N_1  and  C_11
REMARK    2  A    between atoms: N_3  and  N_10
REMARK    3  A    between atoms: C_11  and  C_14
REMARK                            x       y       z     vdW  Elec       q    Type
REMARK                         _______ _______ _______ _____ _____    ______ ____
ROOT
ATOM      1  N   UNL     1      35.181 -17.857 -22.896  0.00  0.00    -0.253 N 
ATOM      2  N   UNL     1      34.030 -16.692 -24.478  0.00  0.00    -0.213 NA
ATOM      3  N   UNL     1      34.286 -15.752 -22.310  0.00  0.00    -0.158 N 
ATOM      4  C   UNL     1      35.372 -18.684 -24.059  0.00  0.00    +0.089 C 
ATOM      5  C   UNL     1      34.465 -17.986 -25.077  0.00  0.00    +0.118 C 
ATOM      6  C   UNL     1      34.471 -16.734 -23.240  0.00  0.00    +0.212 C 
ATOM      7  H   UNL     1      34.652 -15.869 -21.403  0.00  0.00    +0.182 HD
ENDROOT
BRANCH   3  10
ATOM      8  O   UNL     1      32.402 -14.668 -22.336  0.00  0.00    -0.109 OA
ATOM      9  O   UNL     1      34.202 -13.661 -23.114  0.00  0.00    -0.109 OA
ATOM     10  N   UNL     1      33.606 -14.619 -22.611  0.00  0.00    +0.125 N 
ENDBRANCH   3  10
BRANCH   1  11
ATOM     11  C   UNL     1      35.868 -18.143 -21.661  0.00  0.00    +0.126 C 
BRANCH  11  14
ATOM     12 CL   UNL     1      33.490 -22.763 -18.806  0.00  0.00    -0.061 Cl
ATOM     13  N   UNL     1      35.460 -21.331 -19.692  0.00  0.00    -0.233 NA
ATOM     14  C   UNL     1      35.216 -19.295 -20.949  0.00  0.00    +0.017 C 
ATOM     15  C   UNL     1      33.838 -19.391 -20.888  0.00  0.00    +0.001 C 
ATOM     16  C   UNL     1      35.982 -20.269 -20.348  0.00  0.00    +0.097 C 
ATOM     17  C   UNL     1      33.264 -20.469 -20.221  0.00  0.00    +0.031 C 
ATOM     18  C   UNL     1      34.110 -21.402 -19.646  0.00  0.00    +0.138 C 
ENDBRANCH  11  14
ENDBRANCH   1  11
TORSDOF 3
ENDMDL
MODEL 4
REMARK VINA RESULT:      -7.8      3.051      3.901
REMARK  Name = 86418
REMARK  3 active torsions:
REMARK  status: ('A' for Active; 'I' for Inactive)
REMARK    1  A    between atoms: N_1  and  C_11
REMARK    2  A    between atoms: N_3  and  N_10
REMARK    3  A    between atoms: C_11  and  C_14
REMARK                            x       y       z     vdW  Elec       q    Type
REMARK                         _______ _______ _______ _____ _____    ______ ____
ROOT
ATOM      1  N   UNL     1      35.696 -24.163 -14.607  0.00  0.00    -0.253 N 
ATOM      2  N   UNL     1      37.127 -25.379 -13.319  0.00  0.00    -0.213 NA
ATOM      3  N   UNL     1      36.466 -23.216 -12.585  0.00  0.00    -0.158 N 
ATOM      4  C   UNL     1      35.729 -25.416 -15.316  0.00  0.00    +0.089 C 
ATOM      5  C   UNL     1      36.812 -26.172 -14.542  0.00  0.00    +0.118 C 
ATOM      6  C   UNL     1      36.459 -24.256 -13.470  0.00  0.00    +0.212 C 
ATOM      7  H   UNL     1      35.934 -22.411 -12.781  0.00  0.00    +0.182 HD
ENDROOT
BRANCH   3  10
ATOM      8  O   UNL     1      38.310 -22.754 -11.531  0.00  0.00    -0.109 OA
ATOM      9  O   UNL     1      36.713 -23.809 -10.437  0.00  0.00    -0.109 OA
ATOM     10  N   UNL     1      37.192 -23.273 -11.442  0.00  0.00    +0.125 N 
ENDBRANCH   3  10
BRANCH   1  11
ATOM     11  C   UNL     1      34.788 -23.114 -14.996  0.00  0.00    +0.126 C 
BRANCH  11  14
ATOM     12 CL   UNL     1      29.225 -25.138 -14.669  0.00  0.00    -0.061 Cl
ATOM     13  N   UNL     1      31.636 -24.786 -13.784  0.00  0.00    -0.233 NA
ATOM     14  C   UNL     1      33.368 -23.605 -14.962  0.00  0.00    +0.017 C 
ATOM     15  C   UNL     1      32.513 -23.350 -16.017  0.00  0.00    +0.001 C 
ATOM     16  C   UNL     1      32.900 -24.315 -13.878  0.00  0.00    +0.097 C 
ATOM     17  C   UNL     1      31.204 -23.818 -15.957  0.00  0.00    +0.031 C 
ATOM     18  C   UNL     1      30.819 -24.524 -14.829  0.00  0.00    +0.138 C 
ENDBRANCH  11  14
ENDBRANCH   1  11
TORSDOF 3
ENDMDL
MODEL 5
REMARK VINA RESULT:      -7.7      8.497     11.333
REMARK  Name = 86418
REMARK  3 active torsions:
REMARK  status: ('A' for Active; 'I' for Inactive)
REMARK    1  A    between atoms: N_1  and  C_11
REMARK    2  A    between atoms: N_3  and  N_10
REMARK    3  A    between atoms: C_11  and  C_14
REMARK                            x       y       z     vdW  Elec       q    Type
REMARK                         _______ _______ _______ _____ _____    ______ ____
ROOT
ATOM      1  N   UNL     1      34.917 -17.143 -23.073  0.00  0.00    -0.253 N 
ATOM      2  N   UNL     1      33.908 -16.149 -24.857  0.00  0.00    -0.213 NA
ATOM      3  N   UNL     1      34.069 -14.955 -22.807  0.00  0.00    -0.158 N 
ATOM      4  C   UNL     1      35.145 -18.114 -24.112  0.00  0.00    +0.089 C 
ATOM      5  C   UNL     1      34.329 -17.521 -25.263  0.00  0.00    +0.118 C 
ATOM      6  C   UNL     1      34.273 -16.051 -23.597  0.00  0.00    +0.212 C 
ATOM      7  H   UNL     1      34.376 -14.970 -21.872  0.00  0.00    +0.182 HD
ENDROOT
BRANCH   3  10
ATOM      8  O   UNL     1      32.263 -13.758 -22.968  0.00  0.00    -0.109 OA
ATOM      9  O   UNL     1      34.087 -13.044 -23.978  0.00  0.00    -0.109 OA
ATOM     10  N   UNL     1      33.452 -13.848 -23.288  0.00  0.00    +0.125 N 
ENDBRANCH   3  10
BRANCH   1  11
ATOM     11  C   UNL     1      35.517 -17.294 -21.772  0.00  0.00    +0.126 C 
BRANCH  11  14
ATOM     12 CL   UNL     1      33.718 -22.399 -19.353  0.00  0.00    -0.061 Cl
ATOM     13  N   UNL     1      33.350 -20.078 -20.445  0.00  0.00    -0.233 NA
ATOM     14  C   UNL     1      35.112 -18.602 -21.152  0.00  0.00    +0.017 C 
ATOM     15  C   UNL     1      36.072 -19.506 -20.734  0.00  0.00    +0.001 C 
ATOM     16  C   UNL     1      33.781 -18.919 -20.994  0.00  0.00    +0.097 C 
ATOM     17  C   UNL     1      35.667 -20.709 -20.165  0.00  0.00    +0.031 C 
ATOM     18  C   UNL     1      34.307 -20.944 -20.044  0.00  0.00    +0.138 C 
ENDBRANCH  11  14
ENDBRANCH   1  11
TORSDOF 3
ENDMDL
MODEL 6
REMARK VINA RESULT:      -7.7      8.510     11.512
REMARK  Name = 86418
REMARK  3 active torsions:
REMARK  status: ('A' for Active; 'I' for Inactive)
REMARK    1  A    between atoms: N_1  and  C_11
REMARK    2  A    between atoms: N_3  and  N_10
REMARK    3  A    between atoms: C_11  and  C_14
REMARK                            x       y       z     vdW  Elec       q    Type
REMARK                         _______ _______ _______ _____ _____    ______ ____
ROOT
ATOM      1  N   UNL     1      34.984 -16.556 -22.211  0.00  0.00    -0.253 N 
ATOM      2  N   UNL     1      33.614 -14.788 -22.638  0.00  0.00    -0.213 NA
ATOM      3  N   UNL     1      34.262 -16.207 -24.432  0.00  0.00    -0.158 N 
ATOM      4  C   UNL     1      34.734 -16.057 -20.883  0.00  0.00    +0.089 C 
ATOM      5  C   UNL     1      33.949 -14.778 -21.186  0.00  0.00    +0.118 C 
ATOM      6  C   UNL     1      34.267 -15.822 -23.122  0.00  0.00    +0.212 C 
ATOM      7  H   UNL     1      34.783 -16.997 -24.706  0.00  0.00    +0.182 HD
ENDROOT
BRANCH   3  10
ATOM      8  O   UNL     1      33.047 -16.235 -26.234  0.00  0.00    -0.109 OA
ATOM      9  O   UNL     1      33.467 -14.292 -25.283  0.00  0.00    -0.109 OA
ATOM     10  N   UNL     1      33.555 -15.522 -25.363  0.00  0.00    +0.125 N 
ENDBRANCH   3  10
BRANCH   1  11
ATOM     11  C   UNL     1      35.709 -17.784 -22.418  0.00  0.00    +0.126 C 
BRANCH  11  14
ATOM     12 CL   UNL     1      33.731 -22.124 -18.897  0.00  0.00    -0.061 Cl
ATOM     13  N   UNL     1      35.558 -20.579 -19.894  0.00  0.00    -0.233 NA
ATOM     14  C   UNL     1      35.158 -18.876 -21.544  0.00  0.00    +0.017 C 
ATOM     15  C   UNL     1      33.810 -19.180 -21.570  0.00  0.00    +0.001 C 
ATOM     16  C   UNL     1      35.988 -19.586 -20.705  0.00  0.00    +0.097 C 
ATOM     17  C   UNL     1      33.329 -20.196 -20.750  0.00  0.00    +0.031 C 
ATOM     18  C   UNL     1      34.235 -20.859 -19.939  0.00  0.00    +0.138 C 
ENDBRANCH  11  14
ENDBRANCH   1  11
TORSDOF 3
ENDMDL
MODEL 7
REMARK VINA RESULT:      -7.5      4.028      5.133
REMARK  Name = 86418
REMARK  3 active torsions:
REMARK  status: ('A' for Active; 'I' for Inactive)
REMARK    1  A    between atoms: N_1  and  C_11
REMARK    2  A    between atoms: N_3  and  N_10
REMARK    3  A    between atoms: C_11  and  C_14
REMARK                            x       y       z     vdW  Elec       q    Type
REMARK                         _______ _______ _______ _____ _____    ______ ____
ROOT
ATOM      1  N   UNL     1      35.040 -23.897 -14.286  0.00  0.00    -0.253 N 
ATOM      2  N   UNL     1      36.672 -24.148 -15.855  0.00  0.00    -0.213 NA
ATOM      3  N   UNL     1      35.999 -26.035 -14.575  0.00  0.00    -0.158 N 
ATOM      4  C   UNL     1      35.048 -22.597 -14.905  0.00  0.00    +0.089 C 
ATOM      5  C   UNL     1      36.251 -22.718 -15.844  0.00  0.00    +0.118 C 
ATOM      6  C   UNL     1      35.937 -24.717 -14.924  0.00  0.00    +0.212 C 
ATOM      7  H   UNL     1      35.410 -26.376 -13.863  0.00  0.00    +0.182 HD
ENDROOT
BRANCH   3  10
ATOM      8  O   UNL     1      37.899 -27.091 -14.557  0.00  0.00    -0.109 OA
ATOM      9  O   UNL     1      36.560 -27.371 -16.285  0.00  0.00    -0.109 OA
ATOM     10  N   UNL     1      36.858 -26.884 -15.190  0.00  0.00    +0.125 N 
ENDBRANCH   3  10
BRANCH   1  11
ATOM     11  C   UNL     1      34.043 -24.246 -13.307  0.00  0.00    +0.126 C 
BRANCH  11  14
ATOM     12 CL   UNL     1      28.577 -23.982 -15.587  0.00  0.00    -0.061 Cl
ATOM     13  N   UNL     1      30.607 -25.198 -14.530  0.00  0.00    -0.233 NA
ATOM     14  C   UNL     1      32.664 -24.127 -13.892  0.00  0.00    +0.017 C 
ATOM     15  C   UNL     1      32.187 -22.900 -14.315  0.00  0.00    +0.001 C 
ATOM     16  C   UNL     1      31.856 -25.236 -14.013  0.00  0.00    +0.097 C 
ATOM     17  C   UNL     1      30.906 -22.820 -14.853  0.00  0.00    +0.031 C 
ATOM     18  C   UNL     1      30.164 -23.987 -14.938  0.00  0.00    +0.138 C 
ENDBRANCH  11  14
ENDBRANCH   1  11
TORSDOF 3
ENDMDL
MODEL 8
REMARK VINA RESULT:      -7.4      3.794      4.689
REMARK  Name = 86418
REMARK  3 active torsions:
REMARK  status: ('A' for Active; 'I' for Inactive)
REMARK    1  A    between atoms: N_1  and  C_11
REMARK    2  A    between atoms: N_3  and  N_10
REMARK    3  A    between atoms: C_11  and  C_14
REMARK                            x       y       z     vdW  Elec       q    Type
REMARK                         _______ _______ _______ _____ _____    ______ ____
ROOT
ATOM      1  N   UNL     1      36.968 -23.899 -14.067  0.00  0.00    -0.253 N 
ATOM      2  N   UNL     1      38.772 -24.226 -12.716  0.00  0.00    -0.213 NA
ATOM      3  N   UNL     1      38.815 -25.092 -14.930  0.00  0.00    -0.158 N 
ATOM      4  C   UNL     1      36.604 -23.128 -12.907  0.00  0.00    +0.089 C 
ATOM      5  C   UNL     1      37.738 -23.480 -11.942  0.00  0.00    +0.118 C 
ATOM      6  C   UNL     1      38.223 -24.426 -13.894  0.00  0.00    +0.212 C 
ATOM      7  H   UNL     1      38.328 -25.195 -15.779  0.00  0.00    +0.182 HD
ENDROOT
BRANCH   3  10
ATOM      8  O   UNL     1      40.079 -26.842 -14.679  0.00  0.00    -0.109 OA
ATOM      9  O   UNL     1      41.043 -24.867 -14.835  0.00  0.00    -0.109 OA
ATOM     10  N   UNL     1      40.060 -25.614 -14.808  0.00  0.00    +0.125 N 
ENDBRANCH   3  10
BRANCH   1  11
ATOM     11  C   UNL     1      36.164 -23.868 -15.262  0.00  0.00    +0.126 C 
BRANCH  11  14
ATOM     12 CL   UNL     1      30.442 -24.070 -13.725  0.00  0.00    -0.061 Cl
ATOM     13  N   UNL     1      32.955 -24.633 -13.439  0.00  0.00    -0.233 NA
ATOM     14  C   UNL     1      34.702 -23.889 -14.915  0.00  0.00    +0.017 C 
ATOM     15  C   UNL     1      33.785 -23.218 -15.704  0.00  0.00    +0.001 C 
ATOM     16  C   UNL     1      34.255 -24.574 -13.807  0.00  0.00    +0.097 C 
ATOM     17  C   UNL     1      32.439 -23.255 -15.357  0.00  0.00    +0.031 C 
ATOM     18  C   UNL     1      32.079 -23.970 -14.227  0.00  0.00    +0.138 C 
ENDBRANCH  11  14
ENDBRANCH   1  11
TORSDOF 3
ENDMDL
MODEL 9
REMARK VINA RESULT:      -7.4      6.447      8.645
REMARK  Name = 86418
REMARK  3 active torsions:
REMARK  status: ('A' for Active; 'I' for Inactive)
REMARK    1  A    between atoms: N_1  and  C_11
REMARK    2  A    between atoms: N_3  and  N_10
REMARK    3  A    between atoms: C_11  and  C_14
REMARK                            x       y       z     vdW  Elec       q    Type
REMARK                         _______ _______ _______ _____ _____    ______ ____
ROOT
ATOM      1  N   UNL     1      34.912 -19.561 -21.177  0.00  0.00    -0.253 N 
ATOM      2  N   UNL     1      33.934 -20.915 -19.628  0.00  0.00    -0.213 NA
ATOM      3  N   UNL     1      36.285 -20.571 -19.541  0.00  0.00    -0.158 N 
ATOM      4  C   UNL     1      33.516 -19.396 -21.488  0.00  0.00    +0.089 C 
ATOM      5  C   UNL     1      32.874 -20.427 -20.557  0.00  0.00    +0.118 C 
ATOM      6  C   UNL     1      35.046 -20.380 -20.083  0.00  0.00    +0.212 C 
ATOM      7  H   UNL     1      37.064 -20.129 -19.950  0.00  0.00    +0.182 HD
ENDROOT
BRANCH   3  10
ATOM      8  O   UNL     1      37.098 -20.819 -17.541  0.00  0.00    -0.109 OA
ATOM      9  O   UNL     1      35.995 -22.502 -18.441  0.00  0.00    -0.109 OA
ATOM     10  N   UNL     1      36.461 -21.357 -18.452  0.00  0.00    +0.125 N 
ENDBRANCH   3  10
BRANCH   1  11
ATOM     11  C   UNL     1      35.918 -18.764 -21.830  0.00  0.00    +0.126 C 
BRANCH  11  14
ATOM     12 CL   UNL     1      33.519 -15.348 -26.040  0.00  0.00    -0.061 Cl
ATOM     13  N   UNL     1      34.520 -15.801 -23.693  0.00  0.00    -0.233 NA
ATOM     14  C   UNL     1      35.308 -17.941 -22.930  0.00  0.00    +0.017 C 
ATOM     15  C   UNL     1      34.981 -18.522 -24.141  0.00  0.00    +0.001 C 
ATOM     16  C   UNL     1      35.066 -16.597 -22.747  0.00  0.00    +0.097 C 
ATOM     17  C   UNL     1      34.417 -17.735 -25.140  0.00  0.00    +0.031 C 
ATOM     18  C   UNL     1      34.209 -16.393 -24.868  0.00  0.00    +0.138 C 
ENDBRANCH  11  14
ENDBRANCH   1  11
TORSDOF 3
ENDMDL
