MODEL 1
REMARK VINA RESULT:     -10.8      0.000      0.000
REMARK  Name = 465669
REMARK  6 active torsions:
REMARK  status: ('A' for Active; 'I' for Inactive)
REMARK    1  A    between atoms: C_2  and  C_9
REMARK    2  A    between atoms: C_3  and  O_16
REMARK    3  A    between atoms: C_9  and  C_10
REMARK    4  A    between atoms: O_16  and  C_17
REMARK    5  A    between atoms: C_17  and  C_20
REMARK    6  A    between atoms: N_19  and  C_22
REMARK                            x       y       z     vdW  Elec       q    Type
REMARK                         _______ _______ _______ _____ _____    ______ ____
ROOT
ATOM      1 CL   UNL     1      37.569 -23.615 -14.044  0.00  0.00    -0.082 Cl
ATOM      2  C   UNL     1      34.938 -22.929 -16.939  0.00  0.00    +0.074 C 
ATOM      3  C   UNL     1      35.576 -22.037 -17.770  0.00  0.00    +0.142 C 
ATOM      4  C   UNL     1      35.519 -23.428 -15.795  0.00  0.00    +0.018 C 
ATOM      5  C   UNL     1      36.867 -21.622 -17.439  0.00  0.00    +0.038 C 
ATOM      6  C   UNL     1      36.809 -23.013 -15.465  0.00  0.00    +0.058 C 
ATOM      7  C   UNL     1      37.482 -22.109 -16.287  0.00  0.00    +0.015 C 
ENDROOT
BRANCH   2   9
ATOM      8  O   UNL     1      33.390 -23.942 -18.371  0.00  0.00    -0.286 OA
ATOM      9  C   UNL     1      33.555 -23.388 -17.274  0.00  0.00    +0.198 C 
BRANCH   9  10
ATOM     10  C   UNL     1      32.433 -23.206 -16.369  0.00  0.00    +0.039 C 
ATOM     11  C   UNL     1      31.169 -22.900 -16.875  0.00  0.00    +0.003 C 
ATOM     12  C   UNL     1      32.620 -23.337 -14.993  0.00  0.00    +0.003 C 
ATOM     13  C   UNL     1      30.093 -22.725 -16.005  0.00  0.00    +0.000 C 
ATOM     14  C   UNL     1      31.543 -23.162 -14.122  0.00  0.00    +0.000 C 
ATOM     15  C   UNL     1      30.280 -22.856 -14.629  0.00  0.00    +0.000 C 
ENDBRANCH   9  10
ENDBRANCH   2   9
BRANCH   3  16
ATOM     16  O   UNL     1      34.991 -21.549 -18.900  0.00  0.00    -0.466 OA
BRANCH  16  17
ATOM     17  C   UNL     1      35.849 -20.930 -19.858  0.00  0.00    +0.290 C 
BRANCH  17  20
ATOM     18  O   UNL     1      33.884 -20.191 -20.985  0.00  0.00    -0.271 OA
ATOM     19  N   UNL     1      35.777 -18.795 -20.952  0.00  0.00    -0.281 N 
ATOM     20  C   UNL     1      35.042 -19.939 -20.667  0.00  0.00    +0.271 C 
ATOM     21  H   UNL     1      36.698 -18.771 -20.605  0.00  0.00    +0.155 HD
BRANCH  19  22
ATOM     22  C   UNL     1      35.354 -17.660 -21.683  0.00  0.00    +0.050 C 
ATOM     23  C   UNL     1      35.357 -17.706 -23.068  0.00  0.00    +0.015 C 
ATOM     24  C   UNL     1      34.944 -16.528 -21.000  0.00  0.00    +0.015 C 
ATOM     25  C   UNL     1      34.939 -16.588 -23.788  0.00  0.00    +0.001 C 
ATOM     26  C   UNL     1      34.525 -15.409 -21.720  0.00  0.00    +0.001 C 
ATOM     27  C   UNL     1      34.523 -15.439 -23.115  0.00  0.00    +0.000 C 
ENDBRANCH  19  22
ENDBRANCH  17  20
ENDBRANCH  16  17
ENDBRANCH   3  16
TORSDOF 6
ENDMDL
MODEL 2
REMARK VINA RESULT:     -10.7      2.231      4.238
REMARK  Name = 465669
REMARK  6 active torsions:
REMARK  status: ('A' for Active; 'I' for Inactive)
REMARK    1  A    between atoms: C_2  and  C_9
REMARK    2  A    between atoms: C_3  and  O_16
REMARK    3  A    between atoms: C_9  and  C_10
REMARK    4  A    between atoms: O_16  and  C_17
REMARK    5  A    between atoms: C_17  and  C_20
REMARK    6  A    between atoms: N_19  and  C_22
REMARK                            x       y       z     vdW  Elec       q    Type
REMARK                         _______ _______ _______ _____ _____    ______ ____
ROOT
ATOM      1 CL   UNL     1      31.260 -23.974 -13.528  0.00  0.00    -0.082 Cl
ATOM      2  C   UNL     1      34.393 -23.300 -15.875  0.00  0.00    +0.074 C 
ATOM      3  C   UNL     1      33.839 -23.005 -17.100  0.00  0.00    +0.142 C 
ATOM      4  C   UNL     1      33.633 -23.600 -14.767  0.00  0.00    +0.018 C 
ATOM      5  C   UNL     1      32.449 -23.010 -17.223  0.00  0.00    +0.038 C 
ATOM      6  C   UNL     1      32.244 -23.605 -14.891  0.00  0.00    +0.058 C 
ATOM      7  C   UNL     1      31.652 -23.311 -16.120  0.00  0.00    +0.015 C 
ENDROOT
BRANCH   2   9
ATOM      8  O   UNL     1      36.523 -22.488 -16.402  0.00  0.00    -0.286 OA
ATOM      9  C   UNL     1      35.880 -23.300 -15.720  0.00  0.00    +0.198 C 
BRANCH   9  10
ATOM     10  C   UNL     1      36.569 -24.203 -14.813  0.00  0.00    +0.039 C 
ATOM     11  C   UNL     1      37.236 -23.698 -13.697  0.00  0.00    +0.003 C 
ATOM     12  C   UNL     1      36.562 -25.576 -15.058  0.00  0.00    +0.003 C 
ATOM     13  C   UNL     1      37.897 -24.565 -12.827  0.00  0.00    +0.000 C 
ATOM     14  C   UNL     1      37.222 -26.444 -14.188  0.00  0.00    +0.000 C 
ATOM     15  C   UNL     1      37.890 -25.938 -13.073  0.00  0.00    +0.000 C 
ENDBRANCH   9  10
ENDBRANCH   2   9
BRANCH   3  16
ATOM     16  O   UNL     1      34.601 -22.710 -18.190  0.00  0.00    -0.466 OA
BRANCH  16  17
ATOM     17  C   UNL     1      33.924 -22.184 -19.330  0.00  0.00    +0.290 C 
BRANCH  17  20
ATOM     18  O   UNL     1      35.838 -20.770 -19.441  0.00  0.00    -0.271 OA
ATOM     19  N   UNL     1      34.018 -20.342 -20.867  0.00  0.00    -0.281 N 
ATOM     20  C   UNL     1      34.717 -21.017 -19.875  0.00  0.00    +0.271 C 
ATOM     21  H   UNL     1      33.125 -20.694 -21.086  0.00  0.00    +0.155 HD
BRANCH  19  22
ATOM     22  C   UNL     1      34.441 -19.208 -21.600  0.00  0.00    +0.050 C 
ATOM     23  C   UNL     1      34.943 -19.378 -22.880  0.00  0.00    +0.015 C 
ATOM     24  C   UNL     1      34.342 -17.953 -21.024  0.00  0.00    +0.015 C 
ATOM     25  C   UNL     1      35.360 -18.260 -23.603  0.00  0.00    +0.001 C 
ATOM     26  C   UNL     1      34.758 -16.835 -21.746  0.00  0.00    +0.001 C 
ATOM     27  C   UNL     1      35.267 -16.989 -23.037  0.00  0.00    +0.000 C 
ENDBRANCH  19  22
ENDBRANCH  17  20
ENDBRANCH  16  17
ENDBRANCH   3  16
TORSDOF 6
ENDMDL
MODEL 3
REMARK VINA RESULT:     -10.7      4.751     10.797
REMARK  Name = 465669
REMARK  6 active torsions:
REMARK  status: ('A' for Active; 'I' for Inactive)
REMARK    1  A    between atoms: C_2  and  C_9
REMARK    2  A    between atoms: C_3  and  O_16
REMARK    3  A    between atoms: C_9  and  C_10
REMARK    4  A    between atoms: O_16  and  C_17
REMARK    5  A    between atoms: C_17  and  C_20
REMARK    6  A    between atoms: N_19  and  C_22
REMARK                            x       y       z     vdW  Elec       q    Type
REMARK                         _______ _______ _______ _____ _____    ______ ____
ROOT
ATOM      1 CL   UNL     1      31.557 -11.947 -19.860  0.00  0.00    -0.082 Cl
ATOM      2  C   UNL     1      32.941 -13.638 -23.178  0.00  0.00    +0.074 C 
ATOM      3  C   UNL     1      33.281 -14.913 -22.789  0.00  0.00    +0.142 C 
ATOM      4  C   UNL     1      32.413 -12.709 -22.308  0.00  0.00    +0.018 C 
ATOM      5  C   UNL     1      33.083 -15.281 -21.458  0.00  0.00    +0.038 C 
ATOM      6  C   UNL     1      32.215 -13.078 -20.978  0.00  0.00    +0.058 C 
ATOM      7  C   UNL     1      32.551 -14.364 -20.552  0.00  0.00    +0.015 C 
ENDROOT
BRANCH   2   9
ATOM      8  O   UNL     1      32.614 -13.920 -25.477  0.00  0.00    -0.286 OA
ATOM      9  C   UNL     1      33.144 -13.222 -24.599  0.00  0.00    +0.198 C 
BRANCH   9  10
ATOM     10  C   UNL     1      33.924 -12.051 -24.965  0.00  0.00    +0.039 C 
ATOM     11  C   UNL     1      34.516 -11.972 -26.225  0.00  0.00    +0.003 C 
ATOM     12  C   UNL     1      34.082 -11.007 -24.054  0.00  0.00    +0.003 C 
ATOM     13  C   UNL     1      35.266 -10.849 -26.575  0.00  0.00    +0.000 C 
ATOM     14  C   UNL     1      34.831  -9.883 -24.403  0.00  0.00    +0.000 C 
ATOM     15  C   UNL     1      35.423  -9.804 -25.664  0.00  0.00    +0.000 C 
ENDBRANCH   9  10
ENDBRANCH   2   9
BRANCH   3  16
ATOM     16  O   UNL     1      33.803 -15.823 -23.659  0.00  0.00    -0.466 OA
BRANCH  16  17
ATOM     17  C   UNL     1      35.073 -16.382 -23.326  0.00  0.00    +0.290 C 
BRANCH  17  20
ATOM     18  O   UNL     1      34.792 -18.683 -23.880  0.00  0.00    -0.271 OA
ATOM     19  N   UNL     1      34.859 -18.053 -21.616  0.00  0.00    -0.281 N 
ATOM     20  C   UNL     1      34.888 -17.845 -22.989  0.00  0.00    +0.271 C 
ATOM     21  H   UNL     1      34.958 -17.252 -21.052  0.00  0.00    +0.155 HD
BRANCH  19  22
ATOM     22  C   UNL     1      34.704 -19.283 -20.934  0.00  0.00    +0.050 C 
ATOM     23  C   UNL     1      33.428 -19.750 -20.662  0.00  0.00    +0.015 C 
ATOM     24  C   UNL     1      35.829 -19.994 -20.554  0.00  0.00    +0.015 C 
ATOM     25  C   UNL     1      33.275 -20.963 -19.991  0.00  0.00    +0.001 C 
ATOM     26  C   UNL     1      35.676 -21.207 -19.882  0.00  0.00    +0.001 C 
ATOM     27  C   UNL     1      34.398 -21.692 -19.601  0.00  0.00    +0.000 C 
ENDBRANCH  19  22
ENDBRANCH  17  20
ENDBRANCH  16  17
ENDBRANCH   3  16
TORSDOF 6
ENDMDL
MODEL 4
REMARK VINA RESULT:     -10.6     10.917     13.762
REMARK  Name = 465669
REMARK  6 active torsions:
REMARK  status: ('A' for Active; 'I' for Inactive)
REMARK    1  A    between atoms: C_2  and  C_9
REMARK    2  A    between atoms: C_3  and  O_16
REMARK    3  A    between atoms: C_9  and  C_10
REMARK    4  A    between atoms: O_16  and  C_17
REMARK    5  A    between atoms: C_17  and  C_20
REMARK    6  A    between atoms: N_19  and  C_22
REMARK                            x       y       z     vdW  Elec       q    Type
REMARK                         _______ _______ _______ _____ _____    ______ ____
ROOT
ATOM      1 CL   UNL     1      30.701  -3.658 -23.112  0.00  0.00    -0.082 Cl
ATOM      2  C   UNL     1      32.479  -7.031 -21.996  0.00  0.00    +0.074 C 
ATOM      3  C   UNL     1      33.187  -7.422 -23.109  0.00  0.00    +0.142 C 
ATOM      4  C   UNL     1      31.711  -5.888 -21.966  0.00  0.00    +0.018 C 
ATOM      5  C   UNL     1      33.125  -6.628 -24.254  0.00  0.00    +0.038 C 
ATOM      6  C   UNL     1      31.649  -5.095 -23.111  0.00  0.00    +0.058 C 
ATOM      7  C   UNL     1      32.356  -5.465 -24.256  0.00  0.00    +0.015 C 
ENDROOT
BRANCH   2   9
ATOM      8  O   UNL     1      33.049  -7.359 -19.751  0.00  0.00    -0.286 OA
ATOM      9  C   UNL     1      32.532  -7.866 -20.758  0.00  0.00    +0.198 C 
BRANCH   9  10
ATOM     10  C   UNL     1      32.004  -9.220 -20.708  0.00  0.00    +0.039 C 
ATOM     11  C   UNL     1      31.512  -9.821 -21.867  0.00  0.00    +0.003 C 
ATOM     12  C   UNL     1      31.990  -9.919 -19.501  0.00  0.00    +0.003 C 
ATOM     13  C   UNL     1      31.005 -11.119 -21.819  0.00  0.00    +0.000 C 
ATOM     14  C   UNL     1      31.484 -11.218 -19.452  0.00  0.00    +0.000 C 
ATOM     15  C   UNL     1      30.992 -11.818 -20.612  0.00  0.00    +0.000 C 
ENDBRANCH   9  10
ENDBRANCH   2   9
BRANCH   3  16
ATOM     16  O   UNL     1      33.944  -8.555 -23.127  0.00  0.00    -0.466 OA
BRANCH  16  17
ATOM     17  C   UNL     1      35.009  -8.607 -24.075  0.00  0.00    +0.290 C 
BRANCH  17  20
ATOM     18  O   UNL     1      35.783 -10.213 -25.657  0.00  0.00    -0.271 OA
ATOM     19  N   UNL     1      34.066 -10.812 -24.166  0.00  0.00    -0.281 N 
ATOM     20  C   UNL     1      35.008  -9.967 -24.737  0.00  0.00    +0.271 C 
ATOM     21  H   UNL     1      33.535 -10.436 -23.427  0.00  0.00    +0.155 HD
BRANCH  19  22
ATOM     22  C   UNL     1      33.782 -12.152 -24.522  0.00  0.00    +0.050 C 
ATOM     23  C   UNL     1      33.494 -12.455 -25.843  0.00  0.00    +0.015 C 
ATOM     24  C   UNL     1      33.800 -13.132 -23.544  0.00  0.00    +0.015 C 
ATOM     25  C   UNL     1      33.215 -13.776 -26.194  0.00  0.00    +0.001 C 
ATOM     26  C   UNL     1      33.522 -14.453 -23.895  0.00  0.00    +0.001 C 
ATOM     27  C   UNL     1      33.229 -14.775 -25.221  0.00  0.00    +0.000 C 
ENDBRANCH  19  22
ENDBRANCH  17  20
ENDBRANCH  16  17
ENDBRANCH   3  16
TORSDOF 6
ENDMDL
MODEL 5
REMARK VINA RESULT:     -10.5      3.360      7.378
REMARK  Name = 465669
REMARK  6 active torsions:
REMARK  status: ('A' for Active; 'I' for Inactive)
REMARK    1  A    between atoms: C_2  and  C_9
REMARK    2  A    between atoms: C_3  and  O_16
REMARK    3  A    between atoms: C_9  and  C_10
REMARK    4  A    between atoms: O_16  and  C_17
REMARK    5  A    between atoms: C_17  and  C_20
REMARK    6  A    between atoms: N_19  and  C_22
REMARK                            x       y       z     vdW  Elec       q    Type
REMARK                         _______ _______ _______ _____ _____    ______ ____
ROOT
ATOM      1 CL   UNL     1      33.081 -19.233 -21.674  0.00  0.00    -0.082 Cl
ATOM      2  C   UNL     1      34.275 -22.033 -19.121  0.00  0.00    +0.074 C 
ATOM      3  C   UNL     1      35.593 -21.724 -18.876  0.00  0.00    +0.142 C 
ATOM      4  C   UNL     1      33.482 -21.293 -19.970  0.00  0.00    +0.018 C 
ATOM      5  C   UNL     1      36.150 -20.615 -19.514  0.00  0.00    +0.038 C 
ATOM      6  C   UNL     1      34.040 -20.184 -20.607  0.00  0.00    +0.058 C 
ATOM      7  C   UNL     1      35.374 -19.846 -20.379  0.00  0.00    +0.015 C 
ENDROOT
BRANCH   2   9
ATOM      8  O   UNL     1      33.722 -24.304 -19.039  0.00  0.00    -0.286 OA
ATOM      9  C   UNL     1      33.657 -23.216 -18.448  0.00  0.00    +0.198 C 
BRANCH   9  10
ATOM     10  C   UNL     1      33.003 -23.122 -17.154  0.00  0.00    +0.039 C 
ATOM     11  C   UNL     1      31.642 -22.822 -17.079  0.00  0.00    +0.003 C 
ATOM     12  C   UNL     1      33.735 -23.333 -15.985  0.00  0.00    +0.003 C 
ATOM     13  C   UNL     1      31.015 -22.731 -15.837  0.00  0.00    +0.000 C 
ATOM     14  C   UNL     1      33.108 -23.243 -14.743  0.00  0.00    +0.000 C 
ATOM     15  C   UNL     1      31.748 -22.942 -14.668  0.00  0.00    +0.000 C 
ENDBRANCH   9  10
ENDBRANCH   2   9
BRANCH   3  16
ATOM     16  O   UNL     1      36.368 -22.465 -18.034  0.00  0.00    -0.466 OA
BRANCH  16  17
ATOM     17  C   UNL     1      37.030 -21.765 -16.981  0.00  0.00    +0.290 C 
BRANCH  17  20
ATOM     18  O   UNL     1      38.893 -23.000 -16.155  0.00  0.00    -0.271 OA
ATOM     19  N   UNL     1      36.778 -23.335 -15.183  0.00  0.00    -0.281 N 
ATOM     20  C   UNL     1      37.691 -22.772 -16.066  0.00  0.00    +0.271 C 
ATOM     21  H   UNL     1      35.848 -23.021 -15.258  0.00  0.00    +0.155 HD
BRANCH  19  22
ATOM     22  C   UNL     1      37.030 -24.307 -14.187  0.00  0.00    +0.050 C 
ATOM     23  C   UNL     1      37.389 -23.896 -12.913  0.00  0.00    +0.015 C 
ATOM     24  C   UNL     1      36.913 -25.650 -14.505  0.00  0.00    +0.015 C 
ATOM     25  C   UNL     1      37.637 -24.855 -11.931  0.00  0.00    +0.001 C 
ATOM     26  C   UNL     1      37.160 -26.609 -13.523  0.00  0.00    +0.001 C 
ATOM     27  C   UNL     1      37.522 -26.211 -12.235  0.00  0.00    +0.000 C 
ENDBRANCH  19  22
ENDBRANCH  17  20
ENDBRANCH  16  17
ENDBRANCH   3  16
TORSDOF 6
ENDMDL
MODEL 6
REMARK VINA RESULT:     -10.3      7.979     11.461
REMARK  Name = 465669
REMARK  6 active torsions:
REMARK  status: ('A' for Active; 'I' for Inactive)
REMARK    1  A    between atoms: C_2  and  C_9
REMARK    2  A    between atoms: C_3  and  O_16
REMARK    3  A    between atoms: C_9  and  C_10
REMARK    4  A    between atoms: O_16  and  C_17
REMARK    5  A    between atoms: C_17  and  C_20
REMARK    6  A    between atoms: N_19  and  C_22
REMARK                            x       y       z     vdW  Elec       q    Type
REMARK                         _______ _______ _______ _____ _____    ______ ____
ROOT
ATOM      1 CL   UNL     1      35.110 -16.902 -20.924  0.00  0.00    -0.082 Cl
ATOM      2  C   UNL     1      33.435 -13.615 -22.397  0.00  0.00    +0.074 C 
ATOM      3  C   UNL     1      32.418 -13.332 -21.515  0.00  0.00    +0.142 C 
ATOM      4  C   UNL     1      34.273 -14.697 -22.245  0.00  0.00    +0.018 C 
ATOM      5  C   UNL     1      32.227 -14.175 -20.420  0.00  0.00    +0.038 C 
ATOM      6  C   UNL     1      34.082 -15.540 -21.149  0.00  0.00    +0.058 C 
ATOM      7  C   UNL     1      33.059 -15.279 -20.238  0.00  0.00    +0.015 C 
ENDROOT
BRANCH   2   9
ATOM      8  O   UNL     1      34.031 -11.564 -23.350  0.00  0.00    -0.286 OA
ATOM      9  C   UNL     1      33.657 -12.724 -23.577  0.00  0.00    +0.198 C 
BRANCH   9  10
ATOM     10  C   UNL     1      33.452 -13.176 -24.943  0.00  0.00    +0.039 C 
ATOM     11  C   UNL     1      33.706 -12.313 -26.010  0.00  0.00    +0.003 C 
ATOM     12  C   UNL     1      33.001 -14.473 -25.188  0.00  0.00    +0.003 C 
ATOM     13  C   UNL     1      33.508 -12.746 -27.321  0.00  0.00    +0.000 C 
ATOM     14  C   UNL     1      32.804 -14.907 -26.499  0.00  0.00    +0.000 C 
ATOM     15  C   UNL     1      33.057 -14.043 -27.565  0.00  0.00    +0.000 C 
ENDBRANCH   9  10
ENDBRANCH   2   9
BRANCH   3  16
ATOM     16  O   UNL     1      31.594 -12.258 -21.676  0.00  0.00    -0.466 OA
BRANCH  16  17
ATOM     17  C   UNL     1      31.398 -11.416 -20.541  0.00  0.00    +0.290 C 
BRANCH  17  20
ATOM     18  O   UNL     1      32.033  -9.173 -20.044  0.00  0.00    -0.271 OA
ATOM     19  N   UNL     1      31.772  -9.816 -22.291  0.00  0.00    -0.281 N 
ATOM     20  C   UNL     1      31.771  -9.998 -20.914  0.00  0.00    +0.271 C 
ATOM     21  H   UNL     1      31.538 -10.603 -22.835  0.00  0.00    +0.155 HD
BRANCH  19  22
ATOM     22  C   UNL     1      32.070  -8.630 -23.003  0.00  0.00    +0.050 C 
ATOM     23  C   UNL     1      31.036  -7.899 -23.565  0.00  0.00    +0.015 C 
ATOM     24  C   UNL     1      33.388  -8.224 -23.120  0.00  0.00    +0.015 C 
ATOM     25  C   UNL     1      31.330  -6.730 -24.266  0.00  0.00    +0.001 C 
ATOM     26  C   UNL     1      33.683  -7.054 -23.821  0.00  0.00    +0.001 C 
ATOM     27  C   UNL     1      32.653  -6.306 -24.393  0.00  0.00    +0.000 C 
ENDBRANCH  19  22
ENDBRANCH  17  20
ENDBRANCH  16  17
ENDBRANCH   3  16
TORSDOF 6
ENDMDL
MODEL 7
REMARK VINA RESULT:     -10.3      7.997     11.782
REMARK  Name = 465669
REMARK  6 active torsions:
REMARK  status: ('A' for Active; 'I' for Inactive)
REMARK    1  A    between atoms: C_2  and  C_9
REMARK    2  A    between atoms: C_3  and  O_16
REMARK    3  A    between atoms: C_9  and  C_10
REMARK    4  A    between atoms: O_16  and  C_17
REMARK    5  A    between atoms: C_17  and  C_20
REMARK    6  A    between atoms: N_19  and  C_22
REMARK                            x       y       z     vdW  Elec       q    Type
REMARK                         _______ _______ _______ _____ _____    ______ ____
ROOT
ATOM      1 CL   UNL     1      35.702 -17.286 -22.512  0.00  0.00    -0.082 Cl
ATOM      2  C   UNL     1      33.506 -14.077 -23.325  0.00  0.00    +0.074 C 
ATOM      3  C   UNL     1      32.927 -13.751 -22.120  0.00  0.00    +0.142 C 
ATOM      4  C   UNL     1      34.356 -15.150 -23.477  0.00  0.00    +0.018 C 
ATOM      5  C   UNL     1      33.214 -14.540 -21.006  0.00  0.00    +0.038 C 
ATOM      6  C   UNL     1      34.643 -15.937 -22.362  0.00  0.00    +0.058 C 
ATOM      7  C   UNL     1      34.071 -15.633 -21.127  0.00  0.00    +0.015 C 
ENDROOT
BRANCH   2   9
ATOM      8  O   UNL     1      32.322 -13.646 -25.296  0.00  0.00    -0.286 OA
ATOM      9  C   UNL     1      33.213 -13.246 -24.532  0.00  0.00    +0.198 C 
BRANCH   9  10
ATOM     10  C   UNL     1      33.927 -12.013 -24.821  0.00  0.00    +0.039 C 
ATOM     11  C   UNL     1      33.994 -11.003 -23.861  0.00  0.00    +0.003 C 
ATOM     12  C   UNL     1      34.546 -11.840 -26.059  0.00  0.00    +0.003 C 
ATOM     13  C   UNL     1      34.679  -9.820 -24.139  0.00  0.00    +0.000 C 
ATOM     14  C   UNL     1      35.232 -10.658 -26.338  0.00  0.00    +0.000 C 
ATOM     15  C   UNL     1      35.298  -9.647 -25.377  0.00  0.00    +0.000 C 
ENDBRANCH   9  10
ENDBRANCH   2   9
BRANCH   3  16
ATOM     16  O   UNL     1      32.087 -12.687 -21.982  0.00  0.00    -0.466 OA
BRANCH  16  17
ATOM     17  C   UNL     1      31.610 -12.406 -20.667  0.00  0.00    +0.290 C 
BRANCH  17  20
ATOM     18  O   UNL     1      30.763 -10.466 -19.571  0.00  0.00    -0.271 OA
ATOM     19  N   UNL     1      31.851 -10.226 -21.642  0.00  0.00    -0.281 N 
ATOM     20  C   UNL     1      31.349 -10.921 -20.549  0.00  0.00    +0.271 C 
ATOM     21  H   UNL     1      32.299 -10.766 -22.333  0.00  0.00    +0.155 HD
BRANCH  19  22
ATOM     22  C   UNL     1      31.794  -8.832 -21.877  0.00  0.00    +0.050 C 
ATOM     23  C   UNL     1      31.290  -8.367 -23.081  0.00  0.00    +0.015 C 
ATOM     24  C   UNL     1      32.243  -7.961 -20.898  0.00  0.00    +0.015 C 
ATOM     25  C   UNL     1      31.233  -6.993 -23.311  0.00  0.00    +0.001 C 
ATOM     26  C   UNL     1      32.186  -6.587 -21.128  0.00  0.00    +0.001 C 
ATOM     27  C   UNL     1      31.680  -6.103 -22.336  0.00  0.00    +0.000 C 
ENDBRANCH  19  22
ENDBRANCH  17  20
ENDBRANCH  16  17
ENDBRANCH   3  16
TORSDOF 6
ENDMDL
MODEL 8
REMARK VINA RESULT:     -10.3      4.086      7.348
REMARK  Name = 465669
REMARK  6 active torsions:
REMARK  status: ('A' for Active; 'I' for Inactive)
REMARK    1  A    between atoms: C_2  and  C_9
REMARK    2  A    between atoms: C_3  and  O_16
REMARK    3  A    between atoms: C_9  and  C_10
REMARK    4  A    between atoms: O_16  and  C_17
REMARK    5  A    between atoms: C_17  and  C_20
REMARK    6  A    between atoms: N_19  and  C_22
REMARK                            x       y       z     vdW  Elec       q    Type
REMARK                         _______ _______ _______ _____ _____    ______ ____
ROOT
ATOM      1 CL   UNL     1      40.489 -25.697 -15.047  0.00  0.00    -0.082 Cl
ATOM      2  C   UNL     1      36.865 -24.075 -15.181  0.00  0.00    +0.074 C 
ATOM      3  C   UNL     1      36.030 -25.081 -14.751  0.00  0.00    +0.142 C 
ATOM      4  C   UNL     1      38.229 -24.233 -15.283  0.00  0.00    +0.018 C 
ATOM      5  C   UNL     1      36.589 -26.311 -14.403  0.00  0.00    +0.038 C 
ATOM      6  C   UNL     1      38.787 -25.462 -14.934  0.00  0.00    +0.058 C 
ATOM      7  C   UNL     1      37.967 -26.502 -14.495  0.00  0.00    +0.015 C 
ENDROOT
BRANCH   2   9
ATOM      8  O   UNL     1      36.191 -21.896 -14.664  0.00  0.00    -0.286 OA
ATOM      9  C   UNL     1      36.287 -22.749 -15.558  0.00  0.00    +0.198 C 
BRANCH   9  10
ATOM     10  C   UNL     1      35.850 -22.447 -16.911  0.00  0.00    +0.039 C 
ATOM     11  C   UNL     1      36.714 -21.803 -17.797  0.00  0.00    +0.003 C 
ATOM     12  C   UNL     1      34.565 -22.800 -17.323  0.00  0.00    +0.003 C 
ATOM     13  C   UNL     1      36.293 -21.512 -19.095  0.00  0.00    +0.000 C 
ATOM     14  C   UNL     1      34.144 -22.510 -18.622  0.00  0.00    +0.000 C 
ATOM     15  C   UNL     1      35.009 -21.866 -19.507  0.00  0.00    +0.000 C 
ENDBRANCH   9  10
ENDBRANCH   2   9
BRANCH   3  16
ATOM     16  O   UNL     1      34.681 -24.915 -14.655  0.00  0.00    -0.466 OA
BRANCH  16  17
ATOM     17  C   UNL     1      34.171 -24.475 -13.397  0.00  0.00    +0.290 C 
BRANCH  17  20
ATOM     18  O   UNL     1      32.250 -23.221 -12.752  0.00  0.00    -0.271 OA
ATOM     19  N   UNL     1      32.225 -24.380 -14.799  0.00  0.00    -0.281 N 
ATOM     20  C   UNL     1      32.768 -23.946 -13.596  0.00  0.00    +0.271 C 
ATOM     21  H   UNL     1      32.798 -24.957 -15.352  0.00  0.00    +0.155 HD
BRANCH  19  22
ATOM     22  C   UNL     1      30.942 -24.087 -15.319  0.00  0.00    +0.050 C 
ATOM     23  C   UNL     1      29.875 -24.908 -14.992  0.00  0.00    +0.015 C 
ATOM     24  C   UNL     1      30.780 -22.987 -16.144  0.00  0.00    +0.015 C 
ATOM     25  C   UNL     1      28.610 -24.619 -15.505  0.00  0.00    +0.001 C 
ATOM     26  C   UNL     1      29.516 -22.697 -16.656  0.00  0.00    +0.001 C 
ATOM     27  C   UNL     1      28.430 -23.514 -16.336  0.00  0.00    +0.000 C 
ENDBRANCH  19  22
ENDBRANCH  17  20
ENDBRANCH  16  17
ENDBRANCH   3  16
TORSDOF 6
ENDMDL
MODEL 9
REMARK VINA RESULT:     -10.2      2.677      3.726
REMARK  Name = 465669
REMARK  6 active torsions:
REMARK  status: ('A' for Active; 'I' for Inactive)
REMARK    1  A    between atoms: C_2  and  C_9
REMARK    2  A    between atoms: C_3  and  O_16
REMARK    3  A    between atoms: C_9  and  C_10
REMARK    4  A    between atoms: O_16  and  C_17
REMARK    5  A    between atoms: C_17  and  C_20
REMARK    6  A    between atoms: N_19  and  C_22
REMARK                            x       y       z     vdW  Elec       q    Type
REMARK                         _______ _______ _______ _____ _____    ______ ____
ROOT
ATOM      1 CL   UNL     1      35.408 -24.533 -10.524  0.00  0.00    -0.082 Cl
ATOM      2  C   UNL     1      34.985 -23.887 -14.421  0.00  0.00    +0.074 C 
ATOM      3  C   UNL     1      36.271 -23.692 -14.871  0.00  0.00    +0.142 C 
ATOM      4  C   UNL     1      34.690 -24.145 -13.101  0.00  0.00    +0.018 C 
ATOM      5  C   UNL     1      37.319 -23.759 -13.952  0.00  0.00    +0.038 C 
ATOM      6  C   UNL     1      35.737 -24.212 -12.183  0.00  0.00    +0.058 C 
ATOM      7  C   UNL     1      37.052 -24.018 -12.608  0.00  0.00    +0.015 C 
ENDROOT
BRANCH   2   9
ATOM      8  O   UNL     1      34.130 -23.715 -16.591  0.00  0.00    -0.286 OA
ATOM      9  C   UNL     1      33.848 -23.821 -15.389  0.00  0.00    +0.198 C 
BRANCH   9  10
ATOM     10  C   UNL     1      32.459 -23.878 -14.963  0.00  0.00    +0.039 C 
ATOM     11  C   UNL     1      31.969 -25.019 -14.328  0.00  0.00    +0.003 C 
ATOM     12  C   UNL     1      31.616 -22.790 -15.190  0.00  0.00    +0.003 C 
ATOM     13  C   UNL     1      30.636 -25.073 -13.921  0.00  0.00    +0.000 C 
ATOM     14  C   UNL     1      30.283 -22.843 -14.782  0.00  0.00    +0.000 C 
ATOM     15  C   UNL     1      29.793 -23.986 -14.148  0.00  0.00    +0.000 C 
ENDBRANCH   9  10
ENDBRANCH   2   9
BRANCH   3  16
ATOM     16  O   UNL     1      36.552 -23.437 -16.180  0.00  0.00    -0.466 OA
BRANCH  16  17
ATOM     17  C   UNL     1      37.556 -22.459 -16.448  0.00  0.00    +0.290 C 
BRANCH  17  20
ATOM     18  O   UNL     1      37.422 -20.281 -17.405  0.00  0.00    -0.271 OA
ATOM     19  N   UNL     1      36.000 -21.973 -18.210  0.00  0.00    -0.281 N 
ATOM     20  C   UNL     1      36.993 -21.431 -17.404  0.00  0.00    +0.271 C 
ATOM     21  H   UNL     1      35.793 -22.924 -18.066  0.00  0.00    +0.155 HD
BRANCH  19  22
ATOM     22  C   UNL     1      35.253 -21.315 -19.216  0.00  0.00    +0.050 C 
ATOM     23  C   UNL     1      35.919 -20.583 -20.186  0.00  0.00    +0.015 C 
ATOM     24  C   UNL     1      33.872 -21.417 -19.210  0.00  0.00    +0.015 C 
ATOM     25  C   UNL     1      35.182 -19.936 -21.177  0.00  0.00    +0.001 C 
ATOM     26  C   UNL     1      33.135 -20.770 -20.202  0.00  0.00    +0.001 C 
ATOM     27  C   UNL     1      33.791 -20.029 -21.186  0.00  0.00    +0.000 C 
ENDBRANCH  19  22
ENDBRANCH  17  20
ENDBRANCH  16  17
ENDBRANCH   3  16
TORSDOF 6
ENDMDL
