MODEL 1
REMARK VINA RESULT:      -9.9      0.000      0.000
REMARK  Name = 449003
REMARK  4 active torsions:
REMARK  status: ('A' for Active; 'I' for Inactive)
REMARK    1  A    between atoms: C_2  and  C_12
REMARK    2  A    between atoms: C_3  and  S_20
REMARK    3  A    between atoms: C_4  and  N_17
REMARK    4  A    between atoms: S_20  and  C_23
REMARK                            x       y       z     vdW  Elec       q    Type
REMARK                         _______ _______ _______ _____ _____    ______ ____
ROOT
ATOM      1  F   UNL     1      35.566 -19.154 -24.378  0.00  0.00    -0.204 F 
ATOM      2  C   UNL     1      33.946 -15.449 -23.531  0.00  0.00    +0.067 C 
ATOM      3  C   UNL     1      35.170 -17.404 -22.812  0.00  0.00    +0.060 C 
ATOM      4  C   UNL     1      33.820 -15.997 -24.808  0.00  0.00    +0.048 C 
ATOM      5  C   UNL     1      34.621 -16.153 -22.533  0.00  0.00    +0.015 C 
ATOM      6  C   UNL     1      35.045 -17.953 -24.089  0.00  0.00    +0.147 C 
ATOM      7  C   UNL     1      34.370 -17.249 -25.087  0.00  0.00    +0.044 C 
ENDROOT
BRANCH   2  12
ATOM      8  S   UNL     1      34.649 -10.616 -24.547  0.00  0.00    -0.051 S 
ATOM      9  O   UNL     1      32.392 -14.091 -22.464  0.00  0.00    -0.270 OA
ATOM     10  N   UNL     1      34.017 -13.049 -23.807  0.00  0.00    -0.261 N 
ATOM     11  N   UNL     1      32.676 -11.221 -22.991  0.00  0.00    -0.222 NA
ATOM     12  C   UNL     1      33.383 -14.145 -23.208  0.00  0.00    +0.252 C 
ATOM     13  C   UNL     1      33.660 -11.703 -23.685  0.00  0.00    +0.166 C 
ATOM     14  C   UNL     1      33.676  -9.336 -23.951  0.00  0.00    +0.059 C 
ATOM     15  C   UNL     1      32.682  -9.848 -23.144  0.00  0.00    +0.108 C 
ATOM     16  H   UNL     1      34.796 -13.249 -24.374  0.00  0.00    +0.157 HD
ENDBRANCH   2  12
BRANCH   4  17
ATOM     17  N   UNL     1      33.141 -15.301 -25.832  0.00  0.00    -0.357 N 
ATOM     18  H   UNL     1      32.518 -14.573 -25.603  0.00  0.00    +0.142 HD
ATOM     19  H   UNL     1      33.289 -15.544 -26.775  0.00  0.00    +0.142 HD
ENDBRANCH   4  17
BRANCH   3  20
ATOM     20  S   UNL     1      36.031 -18.297 -21.531  0.00  0.00    -0.050 S 
BRANCH  20  23
ATOM     21  N   UNL     1      34.889 -20.422 -20.270  0.00  0.00    -0.263 N 
ATOM     22  N   UNL     1      33.435 -19.001 -21.165  0.00  0.00    -0.221 NA
ATOM     23  C   UNL     1      34.678 -19.287 -20.962  0.00  0.00    +0.167 C 
ATOM     24  C   UNL     1      33.650 -20.928 -19.992  0.00  0.00    +0.088 C 
ATOM     25  C   UNL     1      36.137 -21.032 -19.871  0.00  0.00    +0.119 C 
ATOM     26  C   UNL     1      32.770 -20.033 -20.554  0.00  0.00    +0.117 C 
ENDBRANCH  20  23
ENDBRANCH   3  20
TORSDOF 4
ENDMDL
MODEL 2
REMARK VINA RESULT:      -9.9      1.526      1.649
REMARK  Name = 449003
REMARK  4 active torsions:
REMARK  status: ('A' for Active; 'I' for Inactive)
REMARK    1  A    between atoms: C_2  and  C_12
REMARK    2  A    between atoms: C_3  and  S_20
REMARK    3  A    between atoms: C_4  and  N_17
REMARK    4  A    between atoms: S_20  and  C_23
REMARK                            x       y       z     vdW  Elec       q    Type
REMARK                         _______ _______ _______ _____ _____    ______ ____
ROOT
ATOM      1  F   UNL     1      35.335 -19.269 -24.159  0.00  0.00    -0.204 F 
ATOM      2  C   UNL     1      34.026 -15.362 -23.877  0.00  0.00    +0.067 C 
ATOM      3  C   UNL     1      35.098 -17.280 -22.873  0.00  0.00    +0.060 C 
ATOM      4  C   UNL     1      33.843 -16.082 -25.058  0.00  0.00    +0.048 C 
ATOM      5  C   UNL     1      34.654 -15.961 -22.785  0.00  0.00    +0.015 C 
ATOM      6  C   UNL     1      34.915 -18.001 -24.054  0.00  0.00    +0.147 C 
ATOM      7  C   UNL     1      34.288 -17.401 -25.146  0.00  0.00    +0.044 C 
ENDROOT
BRANCH   2  12
ATOM      8  S   UNL     1      31.648 -12.385 -20.657  0.00  0.00    -0.051 S 
ATOM      9  O   UNL     1      33.817 -13.190 -24.676  0.00  0.00    -0.270 OA
ATOM     10  N   UNL     1      32.911 -13.670 -22.560  0.00  0.00    -0.261 N 
ATOM     11  N   UNL     1      32.455 -11.324 -22.872  0.00  0.00    -0.222 NA
ATOM     12  C   UNL     1      33.573 -13.982 -23.754  0.00  0.00    +0.252 C 
ATOM     13  C   UNL     1      32.404 -12.422 -22.183  0.00  0.00    +0.166 C 
ATOM     14  C   UNL     1      31.338 -10.717 -20.907  0.00  0.00    +0.059 C 
ATOM     15  C   UNL     1      31.837 -10.333 -22.134  0.00  0.00    +0.108 C 
ATOM     16  H   UNL     1      32.789 -14.407 -21.920  0.00  0.00    +0.157 HD
ENDBRANCH   2  12
BRANCH   4  17
ATOM     17  N   UNL     1      33.210 -15.494 -26.176  0.00  0.00    -0.357 N 
ATOM     18  H   UNL     1      32.678 -14.673 -26.064  0.00  0.00    +0.142 HD
ATOM     19  H   UNL     1      33.301 -15.905 -27.066  0.00  0.00    +0.142 HD
ENDBRANCH   4  17
BRANCH   3  20
ATOM     20  S   UNL     1      35.899 -18.038 -21.472  0.00  0.00    -0.050 S 
BRANCH  20  23
ATOM     21  N   UNL     1      34.825 -20.285 -20.373  0.00  0.00    -0.263 N 
ATOM     22  N   UNL     1      33.327 -18.842 -21.152  0.00  0.00    -0.221 NA
ATOM     23  C   UNL     1      34.578 -19.107 -20.976  0.00  0.00    +0.167 C 
ATOM     24  C   UNL     1      33.603 -20.846 -20.129  0.00  0.00    +0.088 C 
ATOM     25  C   UNL     1      36.092 -20.887 -20.025  0.00  0.00    +0.119 C 
ATOM     26  C   UNL     1      32.694 -19.937 -20.619  0.00  0.00    +0.117 C 
ENDBRANCH  20  23
ENDBRANCH   3  20
TORSDOF 4
ENDMDL
MODEL 3
REMARK VINA RESULT:      -9.2      4.119      9.499
REMARK  Name = 449003
REMARK  4 active torsions:
REMARK  status: ('A' for Active; 'I' for Inactive)
REMARK    1  A    between atoms: C_2  and  C_12
REMARK    2  A    between atoms: C_3  and  S_20
REMARK    3  A    between atoms: C_4  and  N_17
REMARK    4  A    between atoms: S_20  and  C_23
REMARK                            x       y       z     vdW  Elec       q    Type
REMARK                         _______ _______ _______ _____ _____    ______ ____
ROOT
ATOM      1  F   UNL     1      33.248 -19.115 -22.284  0.00  0.00    -0.204 F 
ATOM      2  C   UNL     1      35.063 -21.267 -19.261  0.00  0.00    +0.067 C 
ATOM      3  C   UNL     1      35.214 -19.658 -21.056  0.00  0.00    +0.060 C 
ATOM      4  C   UNL     1      33.699 -21.418 -19.510  0.00  0.00    +0.048 C 
ATOM      5  C   UNL     1      35.821 -20.388 -20.035  0.00  0.00    +0.015 C 
ATOM      6  C   UNL     1      33.850 -19.808 -21.306  0.00  0.00    +0.147 C 
ATOM      7  C   UNL     1      33.092 -20.687 -20.533  0.00  0.00    +0.044 C 
ENDROOT
BRANCH   2  12
ATOM      8  S   UNL     1      33.988 -23.696 -15.039  0.00  0.00    -0.051 S 
ATOM      9  O   UNL     1      36.952 -22.189 -18.271  0.00  0.00    -0.270 OA
ATOM     10  N   UNL     1      34.887 -22.503 -17.191  0.00  0.00    -0.261 N 
ATOM     11  N   UNL     1      36.462 -23.666 -15.787  0.00  0.00    -0.222 NA
ATOM     12  C   UNL     1      35.726 -22.015 -18.201  0.00  0.00    +0.252 C 
ATOM     13  C   UNL     1      35.263 -23.268 -16.084  0.00  0.00    +0.166 C 
ATOM     14  C   UNL     1      35.132 -24.517 -14.059  0.00  0.00    +0.059 C 
ATOM     15  C   UNL     1      36.388 -24.391 -14.613  0.00  0.00    +0.108 C 
ATOM     16  H   UNL     1      33.931 -22.283 -17.270  0.00  0.00    +0.157 HD
ENDBRANCH   2  12
BRANCH   4  17
ATOM     17  N   UNL     1      32.913 -22.303 -18.739  0.00  0.00    -0.357 N 
ATOM     18  H   UNL     1      33.343 -23.040 -18.247  0.00  0.00    +0.142 HD
ATOM     19  H   UNL     1      31.937 -22.184 -18.695  0.00  0.00    +0.142 HD
ENDBRANCH   4  17
BRANCH   3  20
ATOM     20  S   UNL     1      36.190 -18.535 -22.040  0.00  0.00    -0.050 S 
BRANCH  20  23
ATOM     21  N   UNL     1      34.783 -16.276 -22.613  0.00  0.00    -0.263 N 
ATOM     22  N   UNL     1      35.162 -16.593 -20.447  0.00  0.00    -0.221 NA
ATOM     23  C   UNL     1      35.326 -17.041 -21.647  0.00  0.00    +0.167 C 
ATOM     24  C   UNL     1      34.202 -15.219 -21.972  0.00  0.00    +0.088 C 
ATOM     25  C   UNL     1      34.778 -16.477 -24.044  0.00  0.00    +0.119 C 
ATOM     26  C   UNL     1      34.449 -15.436 -20.637  0.00  0.00    +0.117 C 
ENDBRANCH  20  23
ENDBRANCH   3  20
TORSDOF 4
ENDMDL
MODEL 4
REMARK VINA RESULT:      -8.9      4.115      8.085
REMARK  Name = 449003
REMARK  4 active torsions:
REMARK  status: ('A' for Active; 'I' for Inactive)
REMARK    1  A    between atoms: C_2  and  C_12
REMARK    2  A    between atoms: C_3  and  S_20
REMARK    3  A    between atoms: C_4  and  N_17
REMARK    4  A    between atoms: S_20  and  C_23
REMARK                            x       y       z     vdW  Elec       q    Type
REMARK                         _______ _______ _______ _____ _____    ______ ____
ROOT
ATOM      1  F   UNL     1      33.859  -6.752 -23.212  0.00  0.00    -0.204 F 
ATOM      2  C   UNL     1      33.913 -10.749 -24.255  0.00  0.00    +0.067 C 
ATOM      3  C   UNL     1      32.850  -8.906 -23.110  0.00  0.00    +0.060 C 
ATOM      4  C   UNL     1      34.927  -9.895 -24.688  0.00  0.00    +0.048 C 
ATOM      5  C   UNL     1      32.874 -10.255 -23.465  0.00  0.00    +0.015 C 
ATOM      6  C   UNL     1      33.864  -8.052 -23.542  0.00  0.00    +0.147 C 
ATOM      7  C   UNL     1      34.902  -8.546 -24.332  0.00  0.00    +0.044 C 
ENDROOT
BRANCH   2  12
ATOM      8  S   UNL     1      34.518 -15.229 -22.146  0.00  0.00    -0.051 S 
ATOM      9  O   UNL     1      33.671 -12.481 -25.785  0.00  0.00    -0.270 OA
ATOM     10  N   UNL     1      34.157 -13.049 -23.555  0.00  0.00    -0.261 N 
ATOM     11  N   UNL     1      33.982 -15.176 -24.674  0.00  0.00    -0.222 NA
ATOM     12  C   UNL     1      33.910 -12.162 -24.610  0.00  0.00    +0.252 C 
ATOM     13  C   UNL     1      34.182 -14.445 -23.621  0.00  0.00    +0.166 C 
ATOM     14  C   UNL     1      34.387 -16.727 -22.969  0.00  0.00    +0.059 C 
ATOM     15  C   UNL     1      34.100 -16.500 -24.299  0.00  0.00    +0.108 C 
ATOM     16  H   UNL     1      34.332 -12.646 -22.674  0.00  0.00    +0.157 HD
ENDBRANCH   2  12
BRANCH   4  17
ATOM     17  N   UNL     1      35.988 -10.375 -25.488  0.00  0.00    -0.357 N 
ATOM     18  H   UNL     1      35.868 -10.466 -26.461  0.00  0.00    +0.142 HD
ATOM     19  H   UNL     1      36.846 -10.619 -25.073  0.00  0.00    +0.142 HD
ENDBRANCH   4  17
BRANCH   3  20
ATOM     20  S   UNL     1      31.518  -8.283 -22.100  0.00  0.00    -0.050 S 
BRANCH  20  23
ATOM     21  N   UNL     1      31.241 -10.552 -20.622  0.00  0.00    -0.263 N 
ATOM     22  N   UNL     1      32.458  -8.970 -19.648  0.00  0.00    -0.221 NA
ATOM     23  C   UNL     1      31.771  -9.316 -20.685  0.00  0.00    +0.167 C 
ATOM     24  C   UNL     1      31.625 -11.065 -19.415  0.00  0.00    +0.088 C 
ATOM     25  C   UNL     1      30.429 -11.250 -21.593  0.00  0.00    +0.119 C 
ATOM     26  C   UNL     1      32.375 -10.070 -18.832  0.00  0.00    +0.117 C 
ENDBRANCH  20  23
ENDBRANCH   3  20
TORSDOF 4
ENDMDL
MODEL 5
REMARK VINA RESULT:      -8.8      5.627      8.967
REMARK  Name = 449003
REMARK  4 active torsions:
REMARK  status: ('A' for Active; 'I' for Inactive)
REMARK    1  A    between atoms: C_2  and  C_12
REMARK    2  A    between atoms: C_3  and  S_20
REMARK    3  A    between atoms: C_4  and  N_17
REMARK    4  A    between atoms: S_20  and  C_23
REMARK                            x       y       z     vdW  Elec       q    Type
REMARK                         _______ _______ _______ _____ _____    ______ ____
ROOT
ATOM      1  F   UNL     1      33.641 -24.125 -15.076  0.00  0.00    -0.204 F 
ATOM      2  C   UNL     1      35.184 -22.029 -18.284  0.00  0.00    +0.067 C 
ATOM      3  C   UNL     1      35.429 -22.879 -16.036  0.00  0.00    +0.060 C 
ATOM      4  C   UNL     1      33.910 -22.591 -18.359  0.00  0.00    +0.048 C 
ATOM      5  C   UNL     1      35.943 -22.172 -17.122  0.00  0.00    +0.015 C 
ATOM      6  C   UNL     1      34.154 -23.442 -16.110  0.00  0.00    +0.147 C 
ATOM      7  C   UNL     1      33.395 -23.299 -17.271  0.00  0.00    +0.044 C 
ENDROOT
BRANCH   2  12
ATOM      8  S   UNL     1      34.091 -18.188 -21.273  0.00  0.00    -0.051 S 
ATOM      9  O   UNL     1      36.872 -21.604 -19.824  0.00  0.00    -0.270 OA
ATOM     10  N   UNL     1      34.961 -20.235 -19.889  0.00  0.00    -0.261 N 
ATOM     11  N   UNL     1      36.370 -19.354 -21.634  0.00  0.00    -0.222 NA
ATOM     12  C   UNL     1      35.750 -21.285 -19.402  0.00  0.00    +0.252 C 
ATOM     13  C   UNL     1      35.281 -19.357 -20.928  0.00  0.00    +0.166 C 
ATOM     14  C   UNL     1      35.116 -17.582 -22.508  0.00  0.00    +0.059 C 
ATOM     15  C   UNL     1      36.276 -18.326 -22.552  0.00  0.00    +0.108 C 
ATOM     16  H   UNL     1      34.089 -20.103 -19.453  0.00  0.00    +0.157 HD
ENDBRANCH   2  12
BRANCH   4  17
ATOM     17  N   UNL     1      33.125 -22.458 -19.525  0.00  0.00    -0.357 N 
ATOM     18  H   UNL     1      32.495 -21.706 -19.611  0.00  0.00    +0.142 HD
ATOM     19  H   UNL     1      33.207 -23.117 -20.252  0.00  0.00    +0.142 HD
ENDBRANCH   4  17
BRANCH   3  20
ATOM     20  S   UNL     1      36.406 -23.057 -14.555  0.00  0.00    -0.050 S 
BRANCH  20  23
ATOM     21  N   UNL     1      37.183 -25.482 -13.591  0.00  0.00    -0.263 N 
ATOM     22  N   UNL     1      36.384 -25.535 -15.663  0.00  0.00    -0.221 NA
ATOM     23  C   UNL     1      36.665 -24.807 -14.634  0.00  0.00    +0.167 C 
ATOM     24  C   UNL     1      37.245 -26.789 -13.983  0.00  0.00    +0.088 C 
ATOM     25  C   UNL     1      37.604 -24.988 -12.300  0.00  0.00    +0.119 C 
ATOM     26  C   UNL     1      36.747 -26.797 -15.265  0.00  0.00    +0.117 C 
ENDBRANCH  20  23
ENDBRANCH   3  20
TORSDOF 4
ENDMDL
MODEL 6
REMARK VINA RESULT:      -8.8      2.303      7.840
REMARK  Name = 449003
REMARK  4 active torsions:
REMARK  status: ('A' for Active; 'I' for Inactive)
REMARK    1  A    between atoms: C_2  and  C_12
REMARK    2  A    between atoms: C_3  and  S_20
REMARK    3  A    between atoms: C_4  and  N_17
REMARK    4  A    between atoms: S_20  and  C_23
REMARK                            x       y       z     vdW  Elec       q    Type
REMARK                         _______ _______ _______ _____ _____    ______ ____
ROOT
ATOM      1  F   UNL     1      32.423 -13.694 -25.650  0.00  0.00    -0.204 F 
ATOM      2  C   UNL     1      34.318 -16.515 -23.302  0.00  0.00    +0.067 C 
ATOM      3  C   UNL     1      33.063 -14.459 -23.488  0.00  0.00    +0.060 C 
ATOM      4  C   UNL     1      34.290 -16.658 -24.689  0.00  0.00    +0.048 C 
ATOM      5  C   UNL     1      33.705 -15.415 -22.702  0.00  0.00    +0.015 C 
ATOM      6  C   UNL     1      33.035 -14.601 -24.876  0.00  0.00    +0.147 C 
ATOM      7  C   UNL     1      33.648 -15.701 -25.476  0.00  0.00    +0.044 C 
ENDROOT
BRANCH   2  12
ATOM      8  S   UNL     1      33.228 -20.409 -20.382  0.00  0.00    -0.051 S 
ATOM      9  O   UNL     1      36.217 -17.469 -22.362  0.00  0.00    -0.270 OA
ATOM     10  N   UNL     1      34.134 -18.419 -21.824  0.00  0.00    -0.261 N 
ATOM     11  N   UNL     1      35.723 -19.786 -20.636  0.00  0.00    -0.222 NA
ATOM     12  C   UNL     1      34.980 -17.496 -22.453  0.00  0.00    +0.252 C 
ATOM     13  C   UNL     1      34.515 -19.471 -20.986  0.00  0.00    +0.166 C 
ATOM     14  C   UNL     1      34.382 -21.365 -19.548  0.00  0.00    +0.059 C 
ATOM     15  C   UNL     1      35.650 -20.884 -19.801  0.00  0.00    +0.108 C 
ATOM     16  H   UNL     1      33.170 -18.314 -21.991  0.00  0.00    +0.157 HD
ENDBRANCH   2  12
BRANCH   4  17
ATOM     17  N   UNL     1      34.905 -17.764 -25.317  0.00  0.00    -0.357 N 
ATOM     18  H   UNL     1      34.579 -18.076 -26.193  0.00  0.00    +0.142 HD
ATOM     19  H   UNL     1      35.657 -18.223 -24.879  0.00  0.00    +0.142 HD
ENDBRANCH   4  17
BRANCH   3  20
ATOM     20  S   UNL     1      32.282 -13.056 -22.713  0.00  0.00    -0.050 S 
BRANCH  20  23
ATOM     21  N   UNL     1      32.931 -10.480 -23.307  0.00  0.00    -0.263 N 
ATOM     22  N   UNL     1      34.247 -11.996 -24.257  0.00  0.00    -0.221 NA
ATOM     23  C   UNL     1      33.232 -11.779 -23.488  0.00  0.00    +0.167 C 
ATOM     24  C   UNL     1      33.849  -9.776 -24.034  0.00  0.00    +0.088 C 
ATOM     25  C   UNL     1      31.875  -9.886 -22.519  0.00  0.00    +0.119 C 
ATOM     26  C   UNL     1      34.650 -10.733 -24.612  0.00  0.00    +0.117 C 
ENDBRANCH  20  23
ENDBRANCH   3  20
TORSDOF 4
ENDMDL
MODEL 7
REMARK VINA RESULT:      -8.8      9.052     11.453
REMARK  Name = 449003
REMARK  4 active torsions:
REMARK  status: ('A' for Active; 'I' for Inactive)
REMARK    1  A    between atoms: C_2  and  C_12
REMARK    2  A    between atoms: C_3  and  S_20
REMARK    3  A    between atoms: C_4  and  N_17
REMARK    4  A    between atoms: S_20  and  C_23
REMARK                            x       y       z     vdW  Elec       q    Type
REMARK                         _______ _______ _______ _____ _____    ______ ____
ROOT
ATOM      1  F   UNL     1      38.134 -22.057 -16.872  0.00  0.00    -0.204 F 
ATOM      2  C   UNL     1      34.059 -22.716 -17.026  0.00  0.00    +0.067 C 
ATOM      3  C   UNL     1      36.135 -22.769 -15.792  0.00  0.00    +0.060 C 
ATOM      4  C   UNL     1      34.734 -22.222 -18.142  0.00  0.00    +0.048 C 
ATOM      5  C   UNL     1      34.759 -22.990 -15.851  0.00  0.00    +0.015 C 
ATOM      6  C   UNL     1      36.811 -22.276 -16.908  0.00  0.00    +0.147 C 
ATOM      7  C   UNL     1      36.111 -22.001 -18.083  0.00  0.00    +0.044 C 
ENDROOT
BRANCH   2  12
ATOM      8  S   UNL     1      30.505 -25.019 -14.389  0.00  0.00    -0.051 S 
ATOM      9  O   UNL     1      31.954 -22.462 -17.977  0.00  0.00    -0.270 OA
ATOM     10  N   UNL     1      32.116 -23.721 -15.998  0.00  0.00    -0.261 N 
ATOM     11  N   UNL     1      29.763 -23.751 -16.516  0.00  0.00    -0.222 NA
ATOM     12  C   UNL     1      32.622 -22.956 -17.056  0.00  0.00    +0.252 C 
ATOM     13  C   UNL     1      30.780 -24.071 -15.778  0.00  0.00    +0.166 C 
ATOM     14  C   UNL     1      28.836 -25.021 -14.784  0.00  0.00    +0.059 C 
ATOM     15  C   UNL     1      28.634 -24.301 -15.942  0.00  0.00    +0.108 C 
ATOM     16  H   UNL     1      32.771 -24.048 -15.340  0.00  0.00    +0.157 HD
ENDBRANCH   2  12
BRANCH   4  17
ATOM     17  N   UNL     1      34.044 -21.938 -19.342  0.00  0.00    -0.357 N 
ATOM     18  H   UNL     1      33.079 -22.122 -19.409  0.00  0.00    +0.142 HD
ATOM     19  H   UNL     1      34.528 -21.557 -20.110  0.00  0.00    +0.142 HD
ENDBRANCH   4  17
BRANCH   3  20
ATOM     20  S   UNL     1      37.022 -23.122 -14.286  0.00  0.00    -0.050 S 
BRANCH  20  23
ATOM     21  N   UNL     1      37.455 -25.656 -13.389  0.00  0.00    -0.263 N 
ATOM     22  N   UNL     1      36.670 -25.543 -15.463  0.00  0.00    -0.221 NA
ATOM     23  C   UNL     1      37.040 -24.888 -14.414  0.00  0.00    +0.167 C 
ATOM     24  C   UNL     1      37.341 -26.948 -13.817  0.00  0.00    +0.088 C 
ATOM     25  C   UNL     1      37.931 -25.259 -12.083  0.00  0.00    +0.119 C 
ATOM     26  C   UNL     1      36.855 -26.853 -15.100  0.00  0.00    +0.117 C 
ENDBRANCH  20  23
ENDBRANCH   3  20
TORSDOF 4
ENDMDL
MODEL 8
REMARK VINA RESULT:      -8.6      2.667      7.244
REMARK  Name = 449003
REMARK  4 active torsions:
REMARK  status: ('A' for Active; 'I' for Inactive)
REMARK    1  A    between atoms: C_2  and  C_12
REMARK    2  A    between atoms: C_3  and  S_20
REMARK    3  A    between atoms: C_4  and  N_17
REMARK    4  A    between atoms: S_20  and  C_23
REMARK                            x       y       z     vdW  Elec       q    Type
REMARK                         _______ _______ _______ _____ _____    ______ ____
ROOT
ATOM      1  F   UNL     1      33.487 -15.488 -26.161  0.00  0.00    -0.204 F 
ATOM      2  C   UNL     1      35.078 -17.855 -23.173  0.00  0.00    +0.067 C 
ATOM      3  C   UNL     1      34.371 -15.683 -23.959  0.00  0.00    +0.060 C 
ATOM      4  C   UNL     1      34.712 -18.418 -24.396  0.00  0.00    +0.048 C 
ATOM      5  C   UNL     1      34.908 -16.488 -22.955  0.00  0.00    +0.015 C 
ATOM      6  C   UNL     1      34.005 -16.245 -25.183  0.00  0.00    +0.147 C 
ATOM      7  C   UNL     1      34.175 -17.612 -25.401  0.00  0.00    +0.044 C 
ENDROOT
BRANCH   2  12
ATOM      8  S   UNL     1      33.681 -21.278 -19.823  0.00  0.00    -0.051 S 
ATOM      9  O   UNL     1      36.856 -18.587 -21.869  0.00  0.00    -0.270 OA
ATOM     10  N   UNL     1      34.736 -19.509 -21.444  0.00  0.00    -0.261 N 
ATOM     11  N   UNL     1      36.181 -20.620 -19.868  0.00  0.00    -0.222 NA
ATOM     12  C   UNL     1      35.641 -18.669 -22.104  0.00  0.00    +0.252 C 
ATOM     13  C   UNL     1      35.021 -20.404 -20.409  0.00  0.00    +0.166 C 
ATOM     14  C   UNL     1      34.735 -22.053 -18.713  0.00  0.00    +0.059 C 
ATOM     15  C   UNL     1      36.017 -21.576 -18.884  0.00  0.00    +0.108 C 
ATOM     16  H   UNL     1      33.798 -19.464 -21.741  0.00  0.00    +0.157 HD
ENDBRANCH   2  12
BRANCH   4  17
ATOM     17  N   UNL     1      34.876 -19.800 -24.637  0.00  0.00    -0.357 N 
ATOM     18  H   UNL     1      34.796 -20.152 -25.553  0.00  0.00    +0.142 HD
ATOM     19  H   UNL     1      35.068 -20.411 -23.890  0.00  0.00    +0.142 HD
ENDBRANCH   4  17
BRANCH   3  20
ATOM     20  S   UNL     1      34.158 -13.936 -23.672  0.00  0.00    -0.050 S 
BRANCH  20  23
ATOM     21  N   UNL     1      32.487 -13.103 -21.691  0.00  0.00    -0.263 N 
ATOM     22  N   UNL     1      33.581 -14.980 -21.234  0.00  0.00    -0.221 NA
ATOM     23  C   UNL     1      33.370 -14.036 -22.090  0.00  0.00    +0.167 C 
ATOM     24  C   UNL     1      32.078 -13.480 -20.443  0.00  0.00    +0.088 C 
ATOM     25  C   UNL     1      32.023 -11.925 -22.389  0.00  0.00    +0.119 C 
ATOM     26  C   UNL     1      32.767 -14.641 -20.182  0.00  0.00    +0.117 C 
ENDBRANCH  20  23
ENDBRANCH   3  20
TORSDOF 4
ENDMDL
MODEL 9
REMARK VINA RESULT:      -8.4     10.094     11.825
REMARK  Name = 449003
REMARK  4 active torsions:
REMARK  status: ('A' for Active; 'I' for Inactive)
REMARK    1  A    between atoms: C_2  and  C_12
REMARK    2  A    between atoms: C_3  and  S_20
REMARK    3  A    between atoms: C_4  and  N_17
REMARK    4  A    between atoms: S_20  and  C_23
REMARK                            x       y       z     vdW  Elec       q    Type
REMARK                         _______ _______ _______ _____ _____    ______ ____
ROOT
ATOM      1  F   UNL     1      38.964 -23.936 -15.065  0.00  0.00    -0.204 F 
ATOM      2  C   UNL     1      35.075 -23.316 -16.312  0.00  0.00    +0.067 C 
ATOM      3  C   UNL     1      36.660 -24.526 -14.948  0.00  0.00    +0.060 C 
ATOM      4  C   UNL     1      36.111 -22.535 -16.825  0.00  0.00    +0.048 C 
ATOM      5  C   UNL     1      35.349 -24.311 -15.374  0.00  0.00    +0.015 C 
ATOM      6  C   UNL     1      37.697 -23.746 -15.461  0.00  0.00    +0.147 C 
ATOM      7  C   UNL     1      37.422 -22.750 -16.399  0.00  0.00    +0.044 C 
ENDROOT
BRANCH   2  12
ATOM      8  S   UNL     1      30.452 -23.309 -14.435  0.00  0.00    -0.051 S 
ATOM      9  O   UNL     1      33.472 -22.829 -17.922  0.00  0.00    -0.270 OA
ATOM     10  N   UNL     1      32.730 -23.244 -15.730  0.00  0.00    -0.261 N 
ATOM     11  N   UNL     1      30.707 -22.771 -16.950  0.00  0.00    -0.222 NA
ATOM     12  C   UNL     1      33.695 -23.116 -16.736  0.00  0.00    +0.252 C 
ATOM     13  C   UNL     1      31.348 -23.076 -15.865  0.00  0.00    +0.166 C 
ATOM     14  C   UNL     1      29.030 -22.968 -15.330  0.00  0.00    +0.059 C 
ATOM     15  C   UNL     1      29.361 -22.708 -16.643  0.00  0.00    +0.108 C 
ATOM     16  H   UNL     1      33.059 -23.478 -14.832  0.00  0.00    +0.157 HD
ENDBRANCH   2  12
BRANCH   4  17
ATOM     17  N   UNL     1      35.854 -21.522 -17.775  0.00  0.00    -0.357 N 
ATOM     18  H   UNL     1      35.784 -21.750 -18.730  0.00  0.00    +0.142 HD
ATOM     19  H   UNL     1      35.747 -20.588 -17.482  0.00  0.00    +0.142 HD
ENDBRANCH   4  17
BRANCH   3  20
ATOM     20  S   UNL     1      37.002 -25.801 -13.749  0.00  0.00    -0.050 S 
BRANCH  20  23
ATOM     21  N   UNL     1      37.290 -24.103 -11.641  0.00  0.00    -0.263 N 
ATOM     22  N   UNL     1      35.281 -25.036 -11.794  0.00  0.00    -0.221 NA
ATOM     23  C   UNL     1      36.464 -24.935 -12.302  0.00  0.00    +0.167 C 
ATOM     24  C   UNL     1      36.567 -23.610 -10.592  0.00  0.00    +0.088 C 
ATOM     25  C   UNL     1      38.664 -23.758 -11.929  0.00  0.00    +0.119 C 
ATOM     26  C   UNL     1      35.331 -24.200 -10.707  0.00  0.00    +0.117 C 
ENDBRANCH  20  23
ENDBRANCH   3  20
TORSDOF 4
ENDMDL
