MODEL 1
REMARK VINA RESULT:      -9.9      0.000      0.000
REMARK  Name = 449547
REMARK  15 active torsions:
REMARK  status: ('A' for Active; 'I' for Inactive)
REMARK    1  A    between atoms: C_1  and  C_6
REMARK    2  A    between atoms: C_1  and  C_7
REMARK    3  A    between atoms: C_2  and  C_18
REMARK    4  A    between atoms: C_7  and  C_8
REMARK    5  A    between atoms: C_8  and  C_10
REMARK    6  A    between atoms: C_9  and  C_12
REMARK    7  A    between atoms: C_12  and  C_13
REMARK    8  A    between atoms: C_13  and  C_14
REMARK    9  A    between atoms: C_18  and  O_19
REMARK   10  A    between atoms: O_19  and  P_20
REMARK   11  A    between atoms: P_20  and  O_22
REMARK   12  A    between atoms: P_20  and  O_24
REMARK   13  A    between atoms: O_24  and  P_25
REMARK   14  A    between atoms: P_25  and  O_27
REMARK   15  A    between atoms: P_25  and  O_29
REMARK                            x       y       z     vdW  Elec       q    Type
REMARK                         _______ _______ _______ _____ _____    ______ ____
ROOT
ATOM      1  C   UNL     1      33.276 -23.692 -15.271  0.00  0.00    +0.048 C 
ATOM      2  C   UNL     1      34.573 -23.762 -14.917  0.00  0.00    +0.006 C 
ENDROOT
BRANCH   1   6
ATOM      3  F   UNL     1      32.260 -25.281 -13.790  0.00  0.00    -0.166 F 
ATOM      4  F   UNL     1      32.252 -23.189 -13.196  0.00  0.00    -0.166 F 
ATOM      5  F   UNL     1      30.952 -23.873 -14.807  0.00  0.00    -0.166 F 
ATOM      6  C   UNL     1      32.193 -24.013 -14.274  0.00  0.00    +0.415 C 
ENDBRANCH   1   6
BRANCH   1   7
ATOM      7  C   UNL     1      32.783 -23.255 -16.636  0.00  0.00    +0.035 C 
BRANCH   7   8
ATOM      8  C   UNL     1      33.896 -23.080 -17.678  0.00  0.00    +0.030 C 
BRANCH   8  10
ATOM      9  C   UNL     1      34.340 -21.376 -19.543  0.00  0.00    -0.048 C 
ATOM     10  C   UNL     1      33.523 -22.122 -18.774  0.00  0.00    -0.034 C 
ATOM     11  C   UNL     1      35.841 -21.369 -19.442  0.00  0.00    +0.026 C 
BRANCH   9  12
ATOM     12  C   UNL     1      33.754 -20.427 -20.573  0.00  0.00    +0.026 C 
BRANCH  12  13
ATOM     13  C   UNL     1      34.766 -19.445 -21.177  0.00  0.00    +0.030 C 
BRANCH  13  14
ATOM     14  C   UNL     1      34.599 -19.269 -22.662  0.00  0.00    -0.034 C 
ATOM     15  C   UNL     1      34.805 -18.150 -23.380  0.00  0.00    -0.048 C 
ATOM     16  C   UNL     1      34.621 -18.156 -24.874  0.00  0.00    +0.026 C 
ATOM     17  C   UNL     1      35.209 -16.821 -22.806  0.00  0.00    +0.026 C 
ENDBRANCH  13  14
ENDBRANCH  12  13
ENDBRANCH   9  12
ENDBRANCH   8  10
ENDBRANCH   7   8
ENDBRANCH   1   7
BRANCH   2  18
ATOM     18  C   UNL     1      35.150 -24.180 -13.601  0.00  0.00    +0.179 C 
BRANCH  18  19
ATOM     19  O   UNL     1      36.557 -24.325 -13.751  0.00  0.00    -0.268 OA
BRANCH  19  20
ATOM     20  P   UNL     1      37.413 -25.076 -12.605  0.00  0.00    +0.484 P 
ATOM     21  O   UNL     1      37.350 -24.428 -11.252  0.00  0.00    -0.227 OA
BRANCH  20  22
ATOM     22  O   UNL     1      36.883 -26.604 -12.638  0.00  0.00    -0.302 OA
ATOM     23  H   UNL     1      36.726 -26.872 -13.556  0.00  0.00    +0.222 HD
ENDBRANCH  20  22
BRANCH  20  24
ATOM     24  O   UNL     1      38.905 -25.188 -13.218  0.00  0.00    -0.186 OA
BRANCH  24  25
ATOM     25  P   UNL     1      39.415 -25.394 -14.737  0.00  0.00    +0.481 P 
ATOM     26  O   UNL     1      40.855 -25.795 -14.864  0.00  0.00    -0.227 OA
BRANCH  25  27
ATOM     27  O   UNL     1      38.351 -26.444 -15.350  0.00  0.00    -0.302 OA
ATOM     28  H   UNL     1      38.060 -26.137 -16.224  0.00  0.00    +0.222 HD
ENDBRANCH  25  27
BRANCH  25  29
ATOM     29  O   UNL     1      39.022 -23.998 -15.449  0.00  0.00    -0.302 OA
ATOM     30  H   UNL     1      38.354 -23.539 -14.916  0.00  0.00    +0.222 HD
ENDBRANCH  25  29
ENDBRANCH  24  25
ENDBRANCH  20  24
ENDBRANCH  19  20
ENDBRANCH  18  19
ENDBRANCH   2  18
TORSDOF 15
ENDMDL
MODEL 2
REMARK VINA RESULT:      -9.7      0.616      1.269
REMARK  Name = 449547
REMARK  15 active torsions:
REMARK  status: ('A' for Active; 'I' for Inactive)
REMARK    1  A    between atoms: C_1  and  C_6
REMARK    2  A    between atoms: C_1  and  C_7
REMARK    3  A    between atoms: C_2  and  C_18
REMARK    4  A    between atoms: C_7  and  C_8
REMARK    5  A    between atoms: C_8  and  C_10
REMARK    6  A    between atoms: C_9  and  C_12
REMARK    7  A    between atoms: C_12  and  C_13
REMARK    8  A    between atoms: C_13  and  C_14
REMARK    9  A    between atoms: C_18  and  O_19
REMARK   10  A    between atoms: O_19  and  P_20
REMARK   11  A    between atoms: P_20  and  O_22
REMARK   12  A    between atoms: P_20  and  O_24
REMARK   13  A    between atoms: O_24  and  P_25
REMARK   14  A    between atoms: P_25  and  O_27
REMARK   15  A    between atoms: P_25  and  O_29
REMARK                            x       y       z     vdW  Elec       q    Type
REMARK                         _______ _______ _______ _____ _____    ______ ____
ROOT
ATOM      1  C   UNL     1      33.423 -23.541 -15.485  0.00  0.00    +0.048 C 
ATOM      2  C   UNL     1      34.696 -23.726 -15.084  0.00  0.00    +0.006 C 
ENDROOT
BRANCH   1   6
ATOM      3  F   UNL     1      32.218 -23.169 -13.447  0.00  0.00    -0.166 F 
ATOM      4  F   UNL     1      31.080 -23.751 -15.207  0.00  0.00    -0.166 F 
ATOM      5  F   UNL     1      32.338 -25.210 -14.188  0.00  0.00    -0.166 F 
ATOM      6  C   UNL     1      32.276 -23.912 -14.582  0.00  0.00    +0.415 C 
ENDBRANCH   1   6
BRANCH   1   7
ATOM      7  C   UNL     1      33.024 -22.921 -16.809  0.00  0.00    +0.035 C 
BRANCH   7   8
ATOM      8  C   UNL     1      33.741 -23.523 -18.025  0.00  0.00    +0.030 C 
BRANCH   8  10
ATOM      9  C   UNL     1      35.440 -21.797 -18.870  0.00  0.00    -0.048 C 
ATOM     10  C   UNL     1      34.281 -22.478 -18.961  0.00  0.00    -0.034 C 
ATOM     11  C   UNL     1      36.449 -21.968 -17.769  0.00  0.00    +0.026 C 
BRANCH   9  12
ATOM     12  C   UNL     1      35.779 -20.739 -19.905  0.00  0.00    +0.026 C 
BRANCH  12  13
ATOM     13  C   UNL     1      34.564 -20.159 -20.639  0.00  0.00    +0.030 C 
BRANCH  13  14
ATOM     14  C   UNL     1      34.796 -18.763 -21.147  0.00  0.00    -0.034 C 
ATOM     15  C   UNL     1      34.893 -18.365 -22.430  0.00  0.00    -0.048 C 
ATOM     16  C   UNL     1      35.096 -16.913 -22.767  0.00  0.00    +0.026 C 
ATOM     17  C   UNL     1      34.831 -19.280 -23.620  0.00  0.00    +0.026 C 
ENDBRANCH  13  14
ENDBRANCH  12  13
ENDBRANCH   9  12
ENDBRANCH   8  10
ENDBRANCH   7   8
ENDBRANCH   1   7
BRANCH   2  18
ATOM     18  C   UNL     1      35.182 -24.326 -13.803  0.00  0.00    +0.179 C 
BRANCH  18  19
ATOM     19  O   UNL     1      36.602 -24.248 -13.778  0.00  0.00    -0.268 OA
BRANCH  19  20
ATOM     20  P   UNL     1      37.430 -25.038 -12.638  0.00  0.00    +0.484 P 
ATOM     21  O   UNL     1      37.371 -24.410 -11.275  0.00  0.00    -0.227 OA
BRANCH  20  22
ATOM     22  O   UNL     1      36.864 -26.552 -12.700  0.00  0.00    -0.302 OA
ATOM     23  H   UNL     1      36.113 -26.591 -13.313  0.00  0.00    +0.222 HD
ENDBRANCH  20  22
BRANCH  20  24
ATOM     24  O   UNL     1      38.923 -25.176 -13.240  0.00  0.00    -0.186 OA
BRANCH  24  25
ATOM     25  P   UNL     1      39.440 -25.416 -14.752  0.00  0.00    +0.481 P 
ATOM     26  O   UNL     1      40.854 -25.907 -14.860  0.00  0.00    -0.227 OA
BRANCH  25  27
ATOM     27  O   UNL     1      38.320 -26.398 -15.379  0.00  0.00    -0.302 OA
ATOM     28  H   UNL     1      38.738 -27.228 -15.660  0.00  0.00    +0.222 HD
ENDBRANCH  25  27
BRANCH  25  29
ATOM     29  O   UNL     1      39.145 -23.999 -15.471  0.00  0.00    -0.302 OA
ATOM     30  H   UNL     1      39.730 -23.319 -15.100  0.00  0.00    +0.222 HD
ENDBRANCH  25  29
ENDBRANCH  24  25
ENDBRANCH  20  24
ENDBRANCH  19  20
ENDBRANCH  18  19
ENDBRANCH   2  18
TORSDOF 15
ENDMDL
MODEL 3
REMARK VINA RESULT:      -9.5      1.423      2.749
REMARK  Name = 449547
REMARK  15 active torsions:
REMARK  status: ('A' for Active; 'I' for Inactive)
REMARK    1  A    between atoms: C_1  and  C_6
REMARK    2  A    between atoms: C_1  and  C_7
REMARK    3  A    between atoms: C_2  and  C_18
REMARK    4  A    between atoms: C_7  and  C_8
REMARK    5  A    between atoms: C_8  and  C_10
REMARK    6  A    between atoms: C_9  and  C_12
REMARK    7  A    between atoms: C_12  and  C_13
REMARK    8  A    between atoms: C_13  and  C_14
REMARK    9  A    between atoms: C_18  and  O_19
REMARK   10  A    between atoms: O_19  and  P_20
REMARK   11  A    between atoms: P_20  and  O_22
REMARK   12  A    between atoms: P_20  and  O_24
REMARK   13  A    between atoms: O_24  and  P_25
REMARK   14  A    between atoms: P_25  and  O_27
REMARK   15  A    between atoms: P_25  and  O_29
REMARK                            x       y       z     vdW  Elec       q    Type
REMARK                         _______ _______ _______ _____ _____    ______ ____
ROOT
ATOM      1  C   UNL     1      33.136 -23.292 -16.487  0.00  0.00    +0.048 C 
ATOM      2  C   UNL     1      34.371 -23.797 -16.302  0.00  0.00    +0.006 C 
ENDROOT
BRANCH   1   6
ATOM      3  F   UNL     1      31.829 -24.637 -14.994  0.00  0.00    -0.166 F 
ATOM      4  F   UNL     1      32.516 -22.702 -14.279  0.00  0.00    -0.166 F 
ATOM      5  F   UNL     1      30.924 -22.815 -15.763  0.00  0.00    -0.166 F 
ATOM      6  C   UNL     1      32.107 -23.368 -15.390  0.00  0.00    +0.415 C 
ENDBRANCH   1   6
BRANCH   1   7
ATOM      7  C   UNL     1      32.683 -22.578 -17.745  0.00  0.00    +0.035 C 
BRANCH   7   8
ATOM      8  C   UNL     1      33.748 -22.514 -18.848  0.00  0.00    +0.030 C 
BRANCH   8  10
ATOM      9  C   UNL     1      34.644 -20.530 -20.205  0.00  0.00    -0.048 C 
ATOM     10  C   UNL     1      33.645 -21.272 -19.687  0.00  0.00    -0.034 C 
ATOM     11  C   UNL     1      36.108 -20.827 -20.033  0.00  0.00    +0.026 C 
BRANCH   9  12
ATOM     12  C   UNL     1      34.323 -19.272 -20.992  0.00  0.00    +0.026 C 
BRANCH  12  13
ATOM     13  C   UNL     1      35.547 -18.417 -21.344  0.00  0.00    +0.030 C 
BRANCH  13  14
ATOM     14  C   UNL     1      35.232 -17.312 -22.314  0.00  0.00    -0.034 C 
ATOM     15  C   UNL     1      34.783 -16.075 -22.026  0.00  0.00    -0.048 C 
ATOM     16  C   UNL     1      34.548 -15.073 -23.124  0.00  0.00    +0.026 C 
ATOM     17  C   UNL     1      34.463 -15.576 -20.646  0.00  0.00    +0.026 C 
ENDBRANCH  13  14
ENDBRANCH  12  13
ENDBRANCH   9  12
ENDBRANCH   8  10
ENDBRANCH   7   8
ENDBRANCH   1   7
BRANCH   2  18
ATOM     18  C   UNL     1      34.905 -24.512 -15.102  0.00  0.00    +0.179 C 
BRANCH  18  19
ATOM     19  O   UNL     1      36.155 -25.097 -15.444  0.00  0.00    -0.268 OA
BRANCH  19  20
ATOM     20  P   UNL     1      37.236 -25.418 -14.287  0.00  0.00    +0.484 P 
ATOM     21  O   UNL     1      38.101 -26.617 -14.555  0.00  0.00    -0.227 OA
BRANCH  20  22
ATOM     22  O   UNL     1      38.054 -24.035 -14.100  0.00  0.00    -0.302 OA
ATOM     23  H   UNL     1      37.969 -23.499 -14.904  0.00  0.00    +0.222 HD
ENDBRANCH  20  22
BRANCH  20  24
ATOM     24  O   UNL     1      36.363 -25.520 -12.930  0.00  0.00    -0.186 OA
BRANCH  24  25
ATOM     25  P   UNL     1      36.318 -24.570 -11.624  0.00  0.00    +0.481 P 
ATOM     26  O   UNL     1      35.370 -25.023 -10.554  0.00  0.00    -0.227 OA
BRANCH  25  27
ATOM     27  O   UNL     1      37.868 -24.473 -11.177  0.00  0.00    -0.302 OA
ATOM     28  H   UNL     1      38.389 -25.122 -11.676  0.00  0.00    +0.222 HD
ENDBRANCH  25  27
BRANCH  25  29
ATOM     29  O   UNL     1      36.011 -23.109 -12.244  0.00  0.00    -0.302 OA
ATOM     30  H   UNL     1      35.739 -22.506 -11.533  0.00  0.00    +0.222 HD
ENDBRANCH  25  29
ENDBRANCH  24  25
ENDBRANCH  20  24
ENDBRANCH  19  20
ENDBRANCH  18  19
ENDBRANCH   2  18
TORSDOF 15
ENDMDL
MODEL 4
REMARK VINA RESULT:      -9.4      5.263      6.620
REMARK  Name = 449547
REMARK  15 active torsions:
REMARK  status: ('A' for Active; 'I' for Inactive)
REMARK    1  A    between atoms: C_1  and  C_6
REMARK    2  A    between atoms: C_1  and  C_7
REMARK    3  A    between atoms: C_2  and  C_18
REMARK    4  A    between atoms: C_7  and  C_8
REMARK    5  A    between atoms: C_8  and  C_10
REMARK    6  A    between atoms: C_9  and  C_12
REMARK    7  A    between atoms: C_12  and  C_13
REMARK    8  A    between atoms: C_13  and  C_14
REMARK    9  A    between atoms: C_18  and  O_19
REMARK   10  A    between atoms: O_19  and  P_20
REMARK   11  A    between atoms: P_20  and  O_22
REMARK   12  A    between atoms: P_20  and  O_24
REMARK   13  A    between atoms: O_24  and  P_25
REMARK   14  A    between atoms: P_25  and  O_27
REMARK   15  A    between atoms: P_25  and  O_29
REMARK                            x       y       z     vdW  Elec       q    Type
REMARK                         _______ _______ _______ _____ _____    ______ ____
ROOT
ATOM      1  C   UNL     1      35.447 -22.345 -17.427  0.00  0.00    +0.048 C 
ATOM      2  C   UNL     1      34.196 -22.711 -17.766  0.00  0.00    +0.006 C 
ENDROOT
BRANCH   1   6
ATOM      3  F   UNL     1      35.163 -22.202 -15.051  0.00  0.00    -0.166 F 
ATOM      4  F   UNL     1      36.157 -23.964 -15.851  0.00  0.00    -0.166 F 
ATOM      5  F   UNL     1      37.185 -22.041 -15.835  0.00  0.00    -0.166 F 
ATOM      6  C   UNL     1      35.980 -22.631 -16.048  0.00  0.00    +0.415 C 
ENDBRANCH   1   6
BRANCH   1   7
ATOM      7  C   UNL     1      36.429 -21.679 -18.370  0.00  0.00    +0.035 C 
BRANCH   7   8
ATOM      8  C   UNL     1      36.027 -21.754 -19.850  0.00  0.00    +0.030 C 
BRANCH   8  10
ATOM      9  C   UNL     1      34.524 -19.834 -20.648  0.00  0.00    -0.048 C 
ATOM     10  C   UNL     1      35.727 -20.406 -20.441  0.00  0.00    -0.034 C 
ATOM     11  C   UNL     1      33.205 -20.470 -20.307  0.00  0.00    +0.026 C 
BRANCH   9  12
ATOM     12  C   UNL     1      34.437 -18.470 -21.309  0.00  0.00    +0.026 C 
BRANCH  12  13
ATOM     13  C   UNL     1      35.518 -18.208 -22.364  0.00  0.00    +0.030 C 
BRANCH  13  14
ATOM     14  C   UNL     1      34.953 -17.768 -23.687  0.00  0.00    -0.034 C 
ATOM     15  C   UNL     1      34.587 -16.523 -24.045  0.00  0.00    -0.048 C 
ATOM     16  C   UNL     1      34.066 -16.248 -25.430  0.00  0.00    +0.026 C 
ATOM     17  C   UNL     1      34.637 -15.319 -23.147  0.00  0.00    +0.026 C 
ENDBRANCH  13  14
ENDBRANCH  12  13
ENDBRANCH   9  12
ENDBRANCH   8  10
ENDBRANCH   7   8
ENDBRANCH   1   7
BRANCH   2  18
ATOM     18  C   UNL     1      33.163 -23.370 -16.907  0.00  0.00    +0.179 C 
BRANCH  18  19
ATOM     19  O   UNL     1      31.906 -22.755 -17.162  0.00  0.00    -0.268 OA
BRANCH  19  20
ATOM     20  P   UNL     1      30.623 -23.146 -16.262  0.00  0.00    +0.484 P 
ATOM     21  O   UNL     1      30.394 -24.623 -16.108  0.00  0.00    -0.227 OA
BRANCH  20  22
ATOM     22  O   UNL     1      30.850 -22.357 -14.868  0.00  0.00    -0.302 OA
ATOM     23  H   UNL     1      30.418 -22.844 -14.148  0.00  0.00    +0.222 HD
ENDBRANCH  20  22
BRANCH  20  24
ATOM     24  O   UNL     1      29.390 -22.352 -16.941  0.00  0.00    -0.186 OA
BRANCH  24  25
ATOM     25  P   UNL     1      27.795 -22.594 -16.853  0.00  0.00    +0.481 P 
ATOM     26  O   UNL     1      26.960 -21.417 -17.265  0.00  0.00    -0.227 OA
BRANCH  25  27
ATOM     27  O   UNL     1      27.571 -23.936 -17.724  0.00  0.00    -0.302 OA
ATOM     28  H   UNL     1      27.642 -24.712 -17.146  0.00  0.00    +0.222 HD
ENDBRANCH  25  27
BRANCH  25  29
ATOM     29  O   UNL     1      27.582 -23.091 -15.330  0.00  0.00    -0.302 OA
ATOM     30  H   UNL     1      27.169 -22.382 -14.813  0.00  0.00    +0.222 HD
ENDBRANCH  25  29
ENDBRANCH  24  25
ENDBRANCH  20  24
ENDBRANCH  19  20
ENDBRANCH  18  19
ENDBRANCH   2  18
TORSDOF 15
ENDMDL
MODEL 5
REMARK VINA RESULT:      -9.4      2.031      3.497
REMARK  Name = 449547
REMARK  15 active torsions:
REMARK  status: ('A' for Active; 'I' for Inactive)
REMARK    1  A    between atoms: C_1  and  C_6
REMARK    2  A    between atoms: C_1  and  C_7
REMARK    3  A    between atoms: C_2  and  C_18
REMARK    4  A    between atoms: C_7  and  C_8
REMARK    5  A    between atoms: C_8  and  C_10
REMARK    6  A    between atoms: C_9  and  C_12
REMARK    7  A    between atoms: C_12  and  C_13
REMARK    8  A    between atoms: C_13  and  C_14
REMARK    9  A    between atoms: C_18  and  O_19
REMARK   10  A    between atoms: O_19  and  P_20
REMARK   11  A    between atoms: P_20  and  O_22
REMARK   12  A    between atoms: P_20  and  O_24
REMARK   13  A    between atoms: O_24  and  P_25
REMARK   14  A    between atoms: P_25  and  O_27
REMARK   15  A    between atoms: P_25  and  O_29
REMARK                            x       y       z     vdW  Elec       q    Type
REMARK                         _______ _______ _______ _____ _____    ______ ____
ROOT
ATOM      1  C   UNL     1      36.356 -22.552 -16.576  0.00  0.00    +0.048 C 
ATOM      2  C   UNL     1      37.479 -23.108 -16.081  0.00  0.00    +0.006 C 
ENDROOT
BRANCH   1   6
ATOM      3  F   UNL     1      34.645 -22.559 -14.897  0.00  0.00    -0.166 F 
ATOM      4  F   UNL     1      34.024 -22.641 -16.980  0.00  0.00    -0.166 F 
ATOM      5  F   UNL     1      34.940 -24.383 -16.042  0.00  0.00    -0.166 F 
ATOM      6  C   UNL     1      35.003 -23.029 -16.120  0.00  0.00    +0.415 C 
ENDBRANCH   1   6
BRANCH   1   7
ATOM      7  C   UNL     1      36.334 -21.403 -17.564  0.00  0.00    +0.035 C 
BRANCH   7   8
ATOM      8  C   UNL     1      36.269 -21.841 -19.034  0.00  0.00    +0.030 C 
BRANCH   8  10
ATOM      9  C   UNL     1      34.542 -20.401 -20.270  0.00  0.00    -0.048 C 
ATOM     10  C   UNL     1      35.806 -20.743 -19.949  0.00  0.00    -0.034 C 
ATOM     11  C   UNL     1      33.311 -21.086 -19.743  0.00  0.00    +0.026 C 
BRANCH   9  12
ATOM     12  C   UNL     1      34.289 -19.279 -21.261  0.00  0.00    +0.026 C 
BRANCH  12  13
ATOM     13  C   UNL     1      35.543 -18.488 -21.653  0.00  0.00    +0.030 C 
BRANCH  13  14
ATOM     14  C   UNL     1      35.317 -17.575 -22.828  0.00  0.00    -0.034 C 
ATOM     15  C   UNL     1      34.985 -17.927 -24.084  0.00  0.00    -0.048 C 
ATOM     16  C   UNL     1      34.763 -16.877 -25.139  0.00  0.00    +0.026 C 
ATOM     17  C   UNL     1      34.820 -19.341 -24.566  0.00  0.00    +0.026 C 
ENDBRANCH  13  14
ENDBRANCH  12  13
ENDBRANCH   9  12
ENDBRANCH   8  10
ENDBRANCH   7   8
ENDBRANCH   1   7
BRANCH   2  18
ATOM     18  C   UNL     1      37.598 -24.238 -15.108  0.00  0.00    +0.179 C 
BRANCH  18  19
ATOM     19  O   UNL     1      37.776 -23.695 -13.805  0.00  0.00    -0.268 OA
BRANCH  19  20
ATOM     20  P   UNL     1      38.359 -24.625 -12.620  0.00  0.00    +0.484 P 
ATOM     21  O   UNL     1      39.278 -25.720 -13.080  0.00  0.00    -0.227 OA
BRANCH  20  22
ATOM     22  O   UNL     1      39.031 -23.584 -11.580  0.00  0.00    -0.302 OA
ATOM     23  H   UNL     1      38.756 -22.681 -11.804  0.00  0.00    +0.222 HD
ENDBRANCH  20  22
BRANCH  20  24
ATOM     24  O   UNL     1      37.050 -25.147 -11.829  0.00  0.00    -0.186 OA
BRANCH  24  25
ATOM     25  P   UNL     1      35.728 -24.362 -11.331  0.00  0.00    +0.481 P 
ATOM     26  O   UNL     1      35.462 -24.456  -9.858  0.00  0.00    -0.227 OA
BRANCH  25  27
ATOM     27  O   UNL     1      35.946 -22.864 -11.898  0.00  0.00    -0.302 OA
ATOM     28  H   UNL     1      35.128 -22.354 -11.785  0.00  0.00    +0.222 HD
ENDBRANCH  25  27
BRANCH  25  29
ATOM     29  O   UNL     1      34.566 -24.960 -12.281  0.00  0.00    -0.302 OA
ATOM     30  H   UNL     1      34.817 -25.848 -12.581  0.00  0.00    +0.222 HD
ENDBRANCH  25  29
ENDBRANCH  24  25
ENDBRANCH  20  24
ENDBRANCH  19  20
ENDBRANCH  18  19
ENDBRANCH   2  18
TORSDOF 15
ENDMDL
MODEL 6
REMARK VINA RESULT:      -9.3      1.458      2.113
REMARK  Name = 449547
REMARK  15 active torsions:
REMARK  status: ('A' for Active; 'I' for Inactive)
REMARK    1  A    between atoms: C_1  and  C_6
REMARK    2  A    between atoms: C_1  and  C_7
REMARK    3  A    between atoms: C_2  and  C_18
REMARK    4  A    between atoms: C_7  and  C_8
REMARK    5  A    between atoms: C_8  and  C_10
REMARK    6  A    between atoms: C_9  and  C_12
REMARK    7  A    between atoms: C_12  and  C_13
REMARK    8  A    between atoms: C_13  and  C_14
REMARK    9  A    between atoms: C_18  and  O_19
REMARK   10  A    between atoms: O_19  and  P_20
REMARK   11  A    between atoms: P_20  and  O_22
REMARK   12  A    between atoms: P_20  and  O_24
REMARK   13  A    between atoms: O_24  and  P_25
REMARK   14  A    between atoms: P_25  and  O_27
REMARK   15  A    between atoms: P_25  and  O_29
REMARK                            x       y       z     vdW  Elec       q    Type
REMARK                         _______ _______ _______ _____ _____    ______ ____
ROOT
ATOM      1  C   UNL     1      32.943 -23.240 -16.459  0.00  0.00    +0.048 C 
ATOM      2  C   UNL     1      34.088 -23.543 -15.817  0.00  0.00    +0.006 C 
ENDROOT
BRANCH   1   6
ATOM      3  F   UNL     1      31.228 -24.394 -15.245  0.00  0.00    -0.166 F 
ATOM      4  F   UNL     1      31.722 -22.369 -14.626  0.00  0.00    -0.166 F 
ATOM      5  F   UNL     1      30.628 -22.708 -16.480  0.00  0.00    -0.166 F 
ATOM      6  C   UNL     1      31.639 -23.185 -15.709  0.00  0.00    +0.415 C 
ENDBRANCH   1   6
BRANCH   1   7
ATOM      7  C   UNL     1      32.854 -22.886 -17.930  0.00  0.00    +0.035 C 
BRANCH   7   8
ATOM      8  C   UNL     1      34.184 -22.433 -18.547  0.00  0.00    +0.030 C 
BRANCH   8  10
ATOM      9  C   UNL     1      34.967 -20.647 -20.215  0.00  0.00    -0.048 C 
ATOM     10  C   UNL     1      34.011 -21.350 -19.574  0.00  0.00    -0.034 C 
ATOM     11  C   UNL     1      36.445 -20.831 -20.011  0.00  0.00    +0.026 C 
BRANCH   9  12
ATOM     12  C   UNL     1      34.576 -19.552 -21.191  0.00  0.00    +0.026 C 
BRANCH  12  13
ATOM     13  C   UNL     1      35.476 -18.312 -21.143  0.00  0.00    +0.030 C 
BRANCH  13  14
ATOM     14  C   UNL     1      35.150 -17.308 -22.215  0.00  0.00    -0.034 C 
ATOM     15  C   UNL     1      34.756 -16.032 -22.046  0.00  0.00    -0.048 C 
ATOM     16  C   UNL     1      34.499 -15.147 -23.236  0.00  0.00    +0.026 C 
ATOM     17  C   UNL     1      34.520 -15.373 -20.716  0.00  0.00    +0.026 C 
ENDBRANCH  13  14
ENDBRANCH  12  13
ENDBRANCH   9  12
ENDBRANCH   8  10
ENDBRANCH   7   8
ENDBRANCH   1   7
BRANCH   2  18
ATOM     18  C   UNL     1      34.271 -23.902 -14.377  0.00  0.00    +0.179 C 
BRANCH  18  19
ATOM     19  O   UNL     1      35.452 -23.269 -13.900  0.00  0.00    -0.268 OA
BRANCH  19  20
ATOM     20  P   UNL     1      36.447 -24.066 -12.908  0.00  0.00    +0.484 P 
ATOM     21  O   UNL     1      37.183 -23.196 -11.930  0.00  0.00    -0.227 OA
BRANCH  20  22
ATOM     22  O   UNL     1      35.516 -25.198 -12.223  0.00  0.00    -0.302 OA
ATOM     23  H   UNL     1      35.117 -25.749 -12.914  0.00  0.00    +0.222 HD
ENDBRANCH  20  22
BRANCH  20  24
ATOM     24  O   UNL     1      37.407 -24.919 -13.890  0.00  0.00    -0.186 OA
BRANCH  24  25
ATOM     25  P   UNL     1      37.251 -26.409 -14.495  0.00  0.00    +0.481 P 
ATOM     26  O   UNL     1      36.264 -26.527 -15.619  0.00  0.00    -0.227 OA
BRANCH  25  27
ATOM     27  O   UNL     1      38.769 -26.824 -14.864  0.00  0.00    -0.302 OA
ATOM     28  H   UNL     1      39.248 -26.044 -15.185  0.00  0.00    +0.222 HD
ENDBRANCH  25  27
BRANCH  25  29
ATOM     29  O   UNL     1      36.920 -27.303 -13.190  0.00  0.00    -0.302 OA
ATOM     30  H   UNL     1      36.302 -26.823 -12.616  0.00  0.00    +0.222 HD
ENDBRANCH  25  29
ENDBRANCH  24  25
ENDBRANCH  20  24
ENDBRANCH  19  20
ENDBRANCH  18  19
ENDBRANCH   2  18
TORSDOF 15
ENDMDL
MODEL 7
REMARK VINA RESULT:      -9.3      4.485      5.782
REMARK  Name = 449547
REMARK  15 active torsions:
REMARK  status: ('A' for Active; 'I' for Inactive)
REMARK    1  A    between atoms: C_1  and  C_6
REMARK    2  A    between atoms: C_1  and  C_7
REMARK    3  A    between atoms: C_2  and  C_18
REMARK    4  A    between atoms: C_7  and  C_8
REMARK    5  A    between atoms: C_8  and  C_10
REMARK    6  A    between atoms: C_9  and  C_12
REMARK    7  A    between atoms: C_12  and  C_13
REMARK    8  A    between atoms: C_13  and  C_14
REMARK    9  A    between atoms: C_18  and  O_19
REMARK   10  A    between atoms: O_19  and  P_20
REMARK   11  A    between atoms: P_20  and  O_22
REMARK   12  A    between atoms: P_20  and  O_24
REMARK   13  A    between atoms: O_24  and  P_25
REMARK   14  A    between atoms: P_25  and  O_27
REMARK   15  A    between atoms: P_25  and  O_29
REMARK                            x       y       z     vdW  Elec       q    Type
REMARK                         _______ _______ _______ _____ _____    ______ ____
ROOT
ATOM      1  C   UNL     1      36.021 -22.493 -16.740  0.00  0.00    +0.048 C 
ATOM      2  C   UNL     1      34.722 -22.827 -16.623  0.00  0.00    +0.006 C 
ENDROOT
BRANCH   1   6
ATOM      3  F   UNL     1      36.969 -24.409 -15.654  0.00  0.00    -0.166 F 
ATOM      4  F   UNL     1      38.310 -22.788 -16.206  0.00  0.00    -0.166 F 
ATOM      5  F   UNL     1      36.923 -22.540 -14.543  0.00  0.00    -0.166 F 
ATOM      6  C   UNL     1      37.044 -23.060 -15.792  0.00  0.00    +0.415 C 
ENDBRANCH   1   6
BRANCH   1   7
ATOM      7  C   UNL     1      36.579 -21.592 -17.824  0.00  0.00    +0.035 C 
BRANCH   7   8
ATOM      8  C   UNL     1      36.094 -21.937 -19.238  0.00  0.00    +0.030 C 
BRANCH   8  10
ATOM      9  C   UNL     1      34.422 -20.286 -20.268  0.00  0.00    -0.048 C 
ATOM     10  C   UNL     1      35.672 -20.726 -20.022  0.00  0.00    -0.034 C 
ATOM     11  C   UNL     1      33.167 -20.955 -19.779  0.00  0.00    +0.026 C 
BRANCH   9  12
ATOM     12  C   UNL     1      34.209 -19.055 -21.130  0.00  0.00    +0.026 C 
BRANCH  12  13
ATOM     13  C   UNL     1      35.503 -18.386 -21.609  0.00  0.00    +0.030 C 
BRANCH  13  14
ATOM     14  C   UNL     1      35.296 -17.492 -22.801  0.00  0.00    -0.034 C 
ATOM     15  C   UNL     1      34.963 -17.862 -24.052  0.00  0.00    -0.048 C 
ATOM     16  C   UNL     1      34.762 -16.828 -25.127  0.00  0.00    +0.026 C 
ATOM     17  C   UNL     1      34.777 -19.282 -24.508  0.00  0.00    +0.026 C 
ENDBRANCH  13  14
ENDBRANCH  12  13
ENDBRANCH   9  12
ENDBRANCH   8  10
ENDBRANCH   7   8
ENDBRANCH   1   7
BRANCH   2  18
ATOM     18  C   UNL     1      34.084 -23.705 -15.593  0.00  0.00    +0.179 C 
BRANCH  18  19
ATOM     19  O   UNL     1      32.672 -23.563 -15.690  0.00  0.00    -0.268 OA
BRANCH  19  20
ATOM     20  P   UNL     1      31.742 -23.890 -14.411  0.00  0.00    +0.484 P 
ATOM     21  O   UNL     1      31.414 -25.345 -14.232  0.00  0.00    -0.227 OA
BRANCH  20  22
ATOM     22  O   UNL     1      32.522 -23.223 -13.160  0.00  0.00    -0.302 OA
ATOM     23  H   UNL     1      32.378 -23.762 -12.366  0.00  0.00    +0.222 HD
ENDBRANCH  20  22
BRANCH  20  24
ATOM     24  O   UNL     1      30.449 -22.937 -14.592  0.00  0.00    -0.186 OA
BRANCH  24  25
ATOM     25  P   UNL     1      29.339 -22.866 -15.764  0.00  0.00    +0.481 P 
ATOM     26  O   UNL     1      28.165 -21.983 -15.462  0.00  0.00    -0.227 OA
BRANCH  25  27
ATOM     27  O   UNL     1      30.198 -22.450 -17.068  0.00  0.00    -0.302 OA
ATOM     28  H   UNL     1      29.614 -22.026 -17.718  0.00  0.00    +0.222 HD
ENDBRANCH  25  27
BRANCH  25  29
ATOM     29  O   UNL     1      28.983 -24.420 -16.027  0.00  0.00    -0.302 OA
ATOM     30  H   UNL     1      28.189 -24.482 -16.582  0.00  0.00    +0.222 HD
ENDBRANCH  25  29
ENDBRANCH  24  25
ENDBRANCH  20  24
ENDBRANCH  19  20
ENDBRANCH  18  19
ENDBRANCH   2  18
TORSDOF 15
ENDMDL
MODEL 8
REMARK VINA RESULT:      -9.3      2.599      4.218
REMARK  Name = 449547
REMARK  15 active torsions:
REMARK  status: ('A' for Active; 'I' for Inactive)
REMARK    1  A    between atoms: C_1  and  C_6
REMARK    2  A    between atoms: C_1  and  C_7
REMARK    3  A    between atoms: C_2  and  C_18
REMARK    4  A    between atoms: C_7  and  C_8
REMARK    5  A    between atoms: C_8  and  C_10
REMARK    6  A    between atoms: C_9  and  C_12
REMARK    7  A    between atoms: C_12  and  C_13
REMARK    8  A    between atoms: C_13  and  C_14
REMARK    9  A    between atoms: C_18  and  O_19
REMARK   10  A    between atoms: O_19  and  P_20
REMARK   11  A    between atoms: P_20  and  O_22
REMARK   12  A    between atoms: P_20  and  O_24
REMARK   13  A    between atoms: O_24  and  P_25
REMARK   14  A    between atoms: P_25  and  O_27
REMARK   15  A    between atoms: P_25  and  O_29
REMARK                            x       y       z     vdW  Elec       q    Type
REMARK                         _______ _______ _______ _____ _____    ______ ____
ROOT
ATOM      1  C   UNL     1      35.753 -21.944 -18.614  0.00  0.00    +0.048 C 
ATOM      2  C   UNL     1      36.405 -21.977 -17.436  0.00  0.00    +0.006 C 
ENDROOT
BRANCH   1   6
ATOM      3  F   UNL     1      33.881 -23.048 -17.603  0.00  0.00    -0.166 F 
ATOM      4  F   UNL     1      33.482 -21.324 -18.867  0.00  0.00    -0.166 F 
ATOM      5  F   UNL     1      34.103 -23.213 -19.759  0.00  0.00    -0.166 F 
ATOM      6  C   UNL     1      34.316 -22.384 -18.705  0.00  0.00    +0.415 C 
ENDBRANCH   1   6
BRANCH   1   7
ATOM      7  C   UNL     1      36.354 -21.437 -19.910  0.00  0.00    +0.035 C 
BRANCH   7   8
ATOM      8  C   UNL     1      36.572 -19.918 -19.948  0.00  0.00    +0.030 C 
BRANCH   8  10
ATOM      9  C   UNL     1      34.995 -19.056 -21.779  0.00  0.00    -0.048 C 
ATOM     10  C   UNL     1      36.220 -19.312 -21.277  0.00  0.00    -0.034 C 
ATOM     11  C   UNL     1      33.702 -19.342 -21.068  0.00  0.00    +0.026 C 
BRANCH   9  12
ATOM     12  C   UNL     1      34.855 -18.478 -23.176  0.00  0.00    +0.026 C 
BRANCH  12  13
ATOM     13  C   UNL     1      35.258 -17.002 -23.292  0.00  0.00    +0.030 C 
BRANCH  13  14
ATOM     14  C   UNL     1      34.117 -16.059 -23.026  0.00  0.00    -0.034 C 
ATOM     15  C   UNL     1      33.824 -15.438 -21.868  0.00  0.00    -0.048 C 
ATOM     16  C   UNL     1      32.655 -14.494 -21.782  0.00  0.00    +0.026 C 
ATOM     17  C   UNL     1      34.579 -15.614 -20.582  0.00  0.00    +0.026 C 
ENDBRANCH  13  14
ENDBRANCH  12  13
ENDBRANCH   9  12
ENDBRANCH   8  10
ENDBRANCH   7   8
ENDBRANCH   1   7
BRANCH   2  18
ATOM     18  C   UNL     1      35.896 -22.457 -16.113  0.00  0.00    +0.179 C 
BRANCH  18  19
ATOM     19  O   UNL     1      36.289 -23.814 -15.945  0.00  0.00    -0.268 OA
BRANCH  19  20
ATOM     20  P   UNL     1      35.603 -24.711 -14.791  0.00  0.00    +0.484 P 
ATOM     21  O   UNL     1      34.112 -24.559 -14.683  0.00  0.00    -0.227 OA
BRANCH  20  22
ATOM     22  O   UNL     1      36.097 -26.220 -15.101  0.00  0.00    -0.302 OA
ATOM     23  H   UNL     1      37.057 -26.278 -14.972  0.00  0.00    +0.222 HD
ENDBRANCH  20  22
BRANCH  20  24
ATOM     24  O   UNL     1      36.407 -24.327 -13.442  0.00  0.00    -0.186 OA
BRANCH  24  25
ATOM     25  P   UNL     1      36.366 -24.973 -11.962  0.00  0.00    +0.481 P 
ATOM     26  O   UNL     1      35.043 -24.856 -11.264  0.00  0.00    -0.227 OA
BRANCH  25  27
ATOM     27  O   UNL     1      36.888 -26.484 -12.199  0.00  0.00    -0.302 OA
ATOM     28  H   UNL     1      37.100 -26.610 -13.137  0.00  0.00    +0.222 HD
ENDBRANCH  25  27
BRANCH  25  29
ATOM     29  O   UNL     1      37.606 -24.257 -11.214  0.00  0.00    -0.302 OA
ATOM     30  H   UNL     1      37.280 -23.507 -10.691  0.00  0.00    +0.222 HD
ENDBRANCH  25  29
ENDBRANCH  24  25
ENDBRANCH  20  24
ENDBRANCH  19  20
ENDBRANCH  18  19
ENDBRANCH   2  18
TORSDOF 15
ENDMDL
MODEL 9
REMARK VINA RESULT:      -9.3      2.390      2.659
REMARK  Name = 449547
REMARK  15 active torsions:
REMARK  status: ('A' for Active; 'I' for Inactive)
REMARK    1  A    between atoms: C_1  and  C_6
REMARK    2  A    between atoms: C_1  and  C_7
REMARK    3  A    between atoms: C_2  and  C_18
REMARK    4  A    between atoms: C_7  and  C_8
REMARK    5  A    between atoms: C_8  and  C_10
REMARK    6  A    between atoms: C_9  and  C_12
REMARK    7  A    between atoms: C_12  and  C_13
REMARK    8  A    between atoms: C_13  and  C_14
REMARK    9  A    between atoms: C_18  and  O_19
REMARK   10  A    between atoms: O_19  and  P_20
REMARK   11  A    between atoms: P_20  and  O_22
REMARK   12  A    between atoms: P_20  and  O_24
REMARK   13  A    between atoms: O_24  and  P_25
REMARK   14  A    between atoms: P_25  and  O_27
REMARK   15  A    between atoms: P_25  and  O_29
REMARK                            x       y       z     vdW  Elec       q    Type
REMARK                         _______ _______ _______ _____ _____    ______ ____
ROOT
ATOM      1  C   UNL     1      35.622 -23.205 -16.068  0.00  0.00    +0.048 C 
ATOM      2  C   UNL     1      35.592 -24.480 -15.635  0.00  0.00    +0.006 C 
ENDROOT
BRANCH   1   6
ATOM      3  F   UNL     1      37.958 -23.006 -16.567  0.00  0.00    -0.166 F 
ATOM      4  F   UNL     1      36.755 -21.194 -16.598  0.00  0.00    -0.166 F 
ATOM      5  F   UNL     1      37.250 -22.145 -14.700  0.00  0.00    -0.166 F 
ATOM      6  C   UNL     1      36.891 -22.399 -15.985  0.00  0.00    +0.415 C 
ENDBRANCH   1   6
BRANCH   1   7
ATOM      7  C   UNL     1      34.446 -22.489 -16.703  0.00  0.00    +0.035 C 
BRANCH   7   8
ATOM      8  C   UNL     1      34.051 -23.036 -18.082  0.00  0.00    +0.030 C 
BRANCH   8  10
ATOM      9  C   UNL     1      34.541 -21.189 -19.794  0.00  0.00    -0.048 C 
ATOM     10  C   UNL     1      33.704 -21.950 -19.061  0.00  0.00    -0.034 C 
ATOM     11  C   UNL     1      36.041 -21.295 -19.764  0.00  0.00    +0.026 C 
BRANCH   9  12
ATOM     12  C   UNL     1      33.983 -20.105 -20.698  0.00  0.00    +0.026 C 
BRANCH  12  13
ATOM     13  C   UNL     1      35.051 -19.257 -21.401  0.00  0.00    +0.030 C 
BRANCH  13  14
ATOM     14  C   UNL     1      34.794 -19.092 -22.874  0.00  0.00    -0.034 C 
ATOM     15  C   UNL     1      34.843 -17.953 -23.589  0.00  0.00    -0.048 C 
ATOM     16  C   UNL     1      34.589 -17.971 -25.072  0.00  0.00    +0.026 C 
ATOM     17  C   UNL     1      35.126 -16.591 -23.021  0.00  0.00    +0.026 C 
ENDBRANCH  13  14
ENDBRANCH  12  13
ENDBRANCH   9  12
ENDBRANCH   8  10
ENDBRANCH   7   8
ENDBRANCH   1   7
BRANCH   2  18
ATOM     18  C   UNL     1      36.696 -25.264 -14.999  0.00  0.00    +0.179 C 
BRANCH  18  19
ATOM     19  O   UNL     1      36.839 -24.831 -13.652  0.00  0.00    -0.268 OA
BRANCH  19  20
ATOM     20  P   UNL     1      38.114 -25.312 -12.784  0.00  0.00    +0.484 P 
ATOM     21  O   UNL     1      38.889 -24.198 -12.141  0.00  0.00    -0.227 OA
BRANCH  20  22
ATOM     22  O   UNL     1      37.511 -26.393 -11.742  0.00  0.00    -0.302 OA
ATOM     23  H   UNL     1      38.238 -26.810 -11.253  0.00  0.00    +0.222 HD
ENDBRANCH  20  22
BRANCH  20  24
ATOM     24  O   UNL     1      38.980 -26.221 -13.801  0.00  0.00    -0.186 OA
BRANCH  24  25
ATOM     25  P   UNL     1      40.462 -26.013 -14.412  0.00  0.00    +0.481 P 
ATOM     26  O   UNL     1      41.465 -27.044 -13.986  0.00  0.00    -0.227 OA
BRANCH  25  27
ATOM     27  O   UNL     1      40.201 -25.920 -16.004  0.00  0.00    -0.302 OA
ATOM     28  H   UNL     1      40.472 -25.045 -16.325  0.00  0.00    +0.222 HD
ENDBRANCH  25  27
BRANCH  25  29
ATOM     29  O   UNL     1      40.819 -24.492 -13.998  0.00  0.00    -0.302 OA
ATOM     30  H   UNL     1      40.651 -23.903 -14.751  0.00  0.00    +0.222 HD
ENDBRANCH  25  29
ENDBRANCH  24  25
ENDBRANCH  20  24
ENDBRANCH  19  20
ENDBRANCH  18  19
ENDBRANCH   2  18
TORSDOF 15
ENDMDL
