MODEL 1
REMARK VINA RESULT:      -9.1      0.000      0.000
REMARK  Name = 46937145
REMARK  8 active torsions:
REMARK  status: ('A' for Active; 'I' for Inactive)
REMARK    1  A    between atoms: C_1  and  N_9
REMARK    2  A    between atoms: C_2  and  N_14
REMARK    3  A    between atoms: N_14  and  C_16
REMARK    4  A    between atoms: C_16  and  O_17
REMARK    5  A    between atoms: C_16  and  C_19
REMARK    6  A    between atoms: C_19  and  C_20
REMARK    7  A    between atoms: C_20  and  C_22
REMARK    8  A    between atoms: C_22  and  O_23
REMARK                            x       y       z     vdW  Elec       q    Type
REMARK                         _______ _______ _______ _____ _____    ______ ____
ROOT
ATOM      1  C   UNL     1      34.979 -18.568 -21.376  0.00  0.00    +0.061 C 
ATOM      2  C   UNL     1      35.195 -20.911 -19.877  0.00  0.00    +0.046 C 
ATOM      3  C   UNL     1      36.236 -19.042 -20.998  0.00  0.00    +0.017 C 
ATOM      4  C   UNL     1      33.830 -19.267 -21.003  0.00  0.00    +0.017 C 
ATOM      5  C   UNL     1      36.344 -20.212 -20.249  0.00  0.00    +0.016 C 
ATOM      6  C   UNL     1      33.938 -20.438 -20.255  0.00  0.00    +0.016 C 
ENDROOT
BRANCH   1   9
ATOM      7  O   UNL     1      34.753 -18.247 -24.341  0.00  0.00    -0.274 OA
ATOM      8  O   UNL     1      34.916 -15.731 -20.431  0.00  0.00    -0.274 OA
ATOM      9  N   UNL     1      34.868 -17.365 -22.145  0.00  0.00    -0.208 N 
ATOM     10  C   UNL     1      34.869 -15.892 -23.961  0.00  0.00    +0.096 C 
ATOM     11  C   UNL     1      34.525 -15.122 -22.707  0.00  0.00    +0.096 C 
ATOM     12  C   UNL     1      34.822 -17.330 -23.534  0.00  0.00    +0.236 C 
ATOM     13  C   UNL     1      34.794 -16.092 -21.594  0.00  0.00    +0.236 C 
ENDBRANCH   1   9
BRANCH   2  14
ATOM     14  N   UNL     1      35.303 -22.075 -19.133  0.00  0.00    -0.312 N 
ATOM     15  H   UNL     1      36.170 -22.542 -19.143  0.00  0.00    +0.149 HD
BRANCH  14  16
ATOM     16  C   UNL     1      34.239 -22.661 -18.339  0.00  0.00    +0.186 C 
BRANCH  16  17
ATOM     17  O   UNL     1      33.835 -23.911 -18.893  0.00  0.00    -0.367 OA
ATOM     18  H   UNL     1      33.372 -23.759 -19.731  0.00  0.00    +0.212 HD
ENDBRANCH  16  17
BRANCH  16  19
ATOM     19  C   UNL     1      34.719 -22.932 -16.904  0.00  0.00    +0.062 C 
BRANCH  19  20
ATOM     20  C   UNL     1      36.127 -22.407 -16.612  0.00  0.00    +0.114 C 
BRANCH  20  22
ATOM     21  O   UNL     1      37.645 -22.805 -14.750  0.00  0.00    -0.250 OA
ATOM     22  C   UNL     1      36.895 -23.241 -15.611  0.00  0.00    +0.314 C 
BRANCH  22  23
ATOM     23  O   UNL     1      36.622 -24.565 -15.750  0.00  0.00    -0.480 OA
ATOM     24  H   UNL     1      37.314 -25.195 -15.691  0.00  0.00    +0.295 HD
ENDBRANCH  22  23
ENDBRANCH  20  22
ENDBRANCH  19  20
ENDBRANCH  16  19
ENDBRANCH  14  16
ENDBRANCH   2  14
TORSDOF 8
ENDMDL
MODEL 2
REMARK VINA RESULT:      -9.1      0.113      1.976
REMARK  Name = 46937145
REMARK  8 active torsions:
REMARK  status: ('A' for Active; 'I' for Inactive)
REMARK    1  A    between atoms: C_1  and  N_9
REMARK    2  A    between atoms: C_2  and  N_14
REMARK    3  A    between atoms: N_14  and  C_16
REMARK    4  A    between atoms: C_16  and  O_17
REMARK    5  A    between atoms: C_16  and  C_19
REMARK    6  A    between atoms: C_19  and  C_20
REMARK    7  A    between atoms: C_20  and  C_22
REMARK    8  A    between atoms: C_22  and  O_23
REMARK                            x       y       z     vdW  Elec       q    Type
REMARK                         _______ _______ _______ _____ _____    ______ ____
ROOT
ATOM      1  C   UNL     1      34.977 -18.647 -21.414  0.00  0.00    +0.061 C 
ATOM      2  C   UNL     1      35.205 -20.947 -19.850  0.00  0.00    +0.046 C 
ATOM      3  C   UNL     1      33.832 -19.348 -21.032  0.00  0.00    +0.017 C 
ATOM      4  C   UNL     1      36.235 -19.097 -21.013  0.00  0.00    +0.017 C 
ATOM      5  C   UNL     1      33.945 -20.497 -20.251  0.00  0.00    +0.016 C 
ATOM      6  C   UNL     1      36.349 -20.246 -20.231  0.00  0.00    +0.016 C 
ENDROOT
BRANCH   1   9
ATOM      7  O   UNL     1      34.944 -15.783 -20.552  0.00  0.00    -0.274 OA
ATOM      8  O   UNL     1      34.702 -18.412 -24.382  0.00  0.00    -0.274 OA
ATOM      9  N   UNL     1      34.860 -17.466 -22.217  0.00  0.00    -0.208 N 
ATOM     10  C   UNL     1      34.521 -15.239 -22.839  0.00  0.00    +0.096 C 
ATOM     11  C   UNL     1      34.839 -16.048 -24.074  0.00  0.00    +0.096 C 
ATOM     12  C   UNL     1      34.802 -16.177 -21.702  0.00  0.00    +0.236 C 
ATOM     13  C   UNL     1      34.791 -17.472 -23.604  0.00  0.00    +0.236 C 
ENDBRANCH   1   9
BRANCH   2  14
ATOM     14  N   UNL     1      35.316 -22.088 -19.072  0.00  0.00    -0.312 N 
ATOM     15  H   UNL     1      36.199 -22.522 -19.027  0.00  0.00    +0.149 HD
BRANCH  14  16
ATOM     16  C   UNL     1      34.235 -22.694 -18.319  0.00  0.00    +0.186 C 
BRANCH  16  17
ATOM     17  O   UNL     1      33.819 -23.911 -18.934  0.00  0.00    -0.367 OA
ATOM     18  H   UNL     1      34.100 -23.916 -19.862  0.00  0.00    +0.212 HD
ENDBRANCH  16  17
BRANCH  16  19
ATOM     19  C   UNL     1      34.695 -23.038 -16.893  0.00  0.00    +0.062 C 
BRANCH  19  20
ATOM     20  C   UNL     1      36.036 -22.411 -16.505  0.00  0.00    +0.114 C 
BRANCH  20  22
ATOM     21  O   UNL     1      37.569 -22.815 -14.657  0.00  0.00    -0.250 OA
ATOM     22  C   UNL     1      36.848 -23.250 -15.543  0.00  0.00    +0.314 C 
BRANCH  22  23
ATOM     23  O   UNL     1      36.652 -24.578 -15.751  0.00  0.00    -0.480 OA
ATOM     24  H   UNL     1      36.813 -24.949 -16.596  0.00  0.00    +0.295 HD
ENDBRANCH  22  23
ENDBRANCH  20  22
ENDBRANCH  19  20
ENDBRANCH  16  19
ENDBRANCH  14  16
ENDBRANCH   2  14
TORSDOF 8
ENDMDL
MODEL 3
REMARK VINA RESULT:      -8.9      1.894      2.481
REMARK  Name = 46937145
REMARK  8 active torsions:
REMARK  status: ('A' for Active; 'I' for Inactive)
REMARK    1  A    between atoms: C_1  and  N_9
REMARK    2  A    between atoms: C_2  and  N_14
REMARK    3  A    between atoms: N_14  and  C_16
REMARK    4  A    between atoms: C_16  and  O_17
REMARK    5  A    between atoms: C_16  and  C_19
REMARK    6  A    between atoms: C_19  and  C_20
REMARK    7  A    between atoms: C_20  and  C_22
REMARK    8  A    between atoms: C_22  and  O_23
REMARK                            x       y       z     vdW  Elec       q    Type
REMARK                         _______ _______ _______ _____ _____    ______ ____
ROOT
ATOM      1  C   UNL     1      34.813 -18.932 -21.360  0.00  0.00    +0.061 C 
ATOM      2  C   UNL     1      34.828 -21.126 -19.635  0.00  0.00    +0.046 C 
ATOM      3  C   UNL     1      33.609 -19.505 -20.949  0.00  0.00    +0.017 C 
ATOM      4  C   UNL     1      36.024 -19.457 -20.908  0.00  0.00    +0.017 C 
ATOM      5  C   UNL     1      33.616 -20.601 -20.087  0.00  0.00    +0.016 C 
ATOM      6  C   UNL     1      36.032 -20.553 -20.046  0.00  0.00    +0.016 C 
ENDROOT
BRANCH   1   9
ATOM      7  O   UNL     1      34.632 -18.891 -24.344  0.00  0.00    -0.274 OA
ATOM      8  O   UNL     1      34.976 -16.019 -20.700  0.00  0.00    -0.274 OA
ATOM      9  N   UNL     1      34.806 -17.806 -22.245  0.00  0.00    -0.208 N 
ATOM     10  C   UNL     1      34.938 -16.526 -24.197  0.00  0.00    +0.096 C 
ATOM     11  C   UNL     1      34.651 -15.610 -23.030  0.00  0.00    +0.096 C 
ATOM     12  C   UNL     1      34.772 -17.906 -23.631  0.00  0.00    +0.236 C 
ATOM     13  C   UNL     1      34.833 -16.483 -21.823  0.00  0.00    +0.236 C 
ENDBRANCH   1   9
BRANCH   2  14
ATOM     14  N   UNL     1      34.834 -22.214 -18.778  0.00  0.00    -0.312 N 
ATOM     15  H   UNL     1      35.694 -22.465 -18.368  0.00  0.00    +0.149 HD
BRANCH  14  16
ATOM     16  C   UNL     1      33.673 -23.014 -18.436  0.00  0.00    +0.186 C 
BRANCH  16  17
ATOM     17  O   UNL     1      33.733 -24.282 -19.085  0.00  0.00    -0.367 OA
ATOM     18  H   UNL     1      32.959 -24.388 -19.660  0.00  0.00    +0.212 HD
ENDBRANCH  16  17
BRANCH  16  19
ATOM     19  C   UNL     1      33.624 -23.278 -16.922  0.00  0.00    +0.062 C 
BRANCH  19  20
ATOM     20  C   UNL     1      32.208 -23.286 -16.340  0.00  0.00    +0.114 C 
BRANCH  20  22
ATOM     21  O   UNL     1      32.149 -24.725 -14.377  0.00  0.00    -0.250 OA
ATOM     22  C   UNL     1      32.158 -23.603 -14.861  0.00  0.00    +0.314 C 
BRANCH  22  23
ATOM     23  O   UNL     1      32.164 -22.473 -14.108  0.00  0.00    -0.480 OA
ATOM     24  H   UNL     1      31.543 -22.370 -13.412  0.00  0.00    +0.295 HD
ENDBRANCH  22  23
ENDBRANCH  20  22
ENDBRANCH  19  20
ENDBRANCH  16  19
ENDBRANCH  14  16
ENDBRANCH   2  14
TORSDOF 8
ENDMDL
MODEL 4
REMARK VINA RESULT:      -8.7      3.158      9.095
REMARK  Name = 46937145
REMARK  8 active torsions:
REMARK  status: ('A' for Active; 'I' for Inactive)
REMARK    1  A    between atoms: C_1  and  N_9
REMARK    2  A    between atoms: C_2  and  N_14
REMARK    3  A    between atoms: N_14  and  C_16
REMARK    4  A    between atoms: C_16  and  O_17
REMARK    5  A    between atoms: C_16  and  C_19
REMARK    6  A    between atoms: C_19  and  C_20
REMARK    7  A    between atoms: C_20  and  C_22
REMARK    8  A    between atoms: C_22  and  O_23
REMARK                            x       y       z     vdW  Elec       q    Type
REMARK                         _______ _______ _______ _____ _____    ______ ____
ROOT
ATOM      1  C   UNL     1      34.636 -18.566 -21.578  0.00  0.00    +0.061 C 
ATOM      2  C   UNL     1      34.594 -16.271 -23.164  0.00  0.00    +0.046 C 
ATOM      3  C   UNL     1      34.313 -17.332 -21.012  0.00  0.00    +0.017 C 
ATOM      4  C   UNL     1      34.938 -18.651 -22.937  0.00  0.00    +0.017 C 
ATOM      5  C   UNL     1      34.292 -16.185 -21.804  0.00  0.00    +0.016 C 
ATOM      6  C   UNL     1      34.917 -17.505 -23.730  0.00  0.00    +0.016 C 
ENDROOT
BRANCH   1   9
ATOM      7  O   UNL     1      32.380 -20.390 -20.851  0.00  0.00    -0.274 OA
ATOM      8  O   UNL     1      36.948 -19.835 -20.167  0.00  0.00    -0.274 OA
ATOM      9  N   UNL     1      34.657 -19.745 -20.764  0.00  0.00    -0.208 N 
ATOM     10  C   UNL     1      33.937 -21.541 -19.453  0.00  0.00    +0.096 C 
ATOM     11  C   UNL     1      35.444 -21.587 -19.560  0.00  0.00    +0.096 C 
ATOM     12  C   UNL     1      33.530 -20.492 -20.446  0.00  0.00    +0.236 C 
ATOM     13  C   UNL     1      35.807 -20.278 -20.196  0.00  0.00    +0.236 C 
ENDBRANCH   1   9
BRANCH   2  14
ATOM     14  N   UNL     1      34.572 -15.131 -23.951  0.00  0.00    -0.312 N 
ATOM     15  H   UNL     1      35.262 -15.046 -24.648  0.00  0.00    +0.149 HD
BRANCH  14  16
ATOM     16  C   UNL     1      33.611 -14.051 -23.829  0.00  0.00    +0.186 C 
BRANCH  16  17
ATOM     17  O   UNL     1      34.269 -12.788 -23.905  0.00  0.00    -0.367 OA
ATOM     18  H   UNL     1      33.922 -12.201 -23.216  0.00  0.00    +0.212 HD
ENDBRANCH  16  17
BRANCH  16  19
ATOM     19  C   UNL     1      32.589 -14.102 -24.976  0.00  0.00    +0.062 C 
BRANCH  19  20
ATOM     20  C   UNL     1      33.158 -14.643 -26.290  0.00  0.00    +0.114 C 
BRANCH  20  22
ATOM     21  O   UNL     1      34.414 -13.275 -27.865  0.00  0.00    -0.250 OA
ATOM     22  C   UNL     1      33.347 -13.585 -27.355  0.00  0.00    +0.314 C 
BRANCH  22  23
ATOM     23  O   UNL     1      32.163 -13.029 -27.722  0.00  0.00    -0.480 OA
ATOM     24  H   UNL     1      32.150 -12.188 -28.137  0.00  0.00    +0.295 HD
ENDBRANCH  22  23
ENDBRANCH  20  22
ENDBRANCH  19  20
ENDBRANCH  16  19
ENDBRANCH  14  16
ENDBRANCH   2  14
TORSDOF 8
ENDMDL
MODEL 5
REMARK VINA RESULT:      -8.7      3.169      8.587
REMARK  Name = 46937145
REMARK  8 active torsions:
REMARK  status: ('A' for Active; 'I' for Inactive)
REMARK    1  A    between atoms: C_1  and  N_9
REMARK    2  A    between atoms: C_2  and  N_14
REMARK    3  A    between atoms: N_14  and  C_16
REMARK    4  A    between atoms: C_16  and  O_17
REMARK    5  A    between atoms: C_16  and  C_19
REMARK    6  A    between atoms: C_19  and  C_20
REMARK    7  A    between atoms: C_20  and  C_22
REMARK    8  A    between atoms: C_22  and  O_23
REMARK                            x       y       z     vdW  Elec       q    Type
REMARK                         _______ _______ _______ _____ _____    ______ ____
ROOT
ATOM      1  C   UNL     1      34.754 -18.539 -21.498  0.00  0.00    +0.061 C 
ATOM      2  C   UNL     1      34.636 -16.160 -22.950  0.00  0.00    +0.046 C 
ATOM      3  C   UNL     1      34.649 -18.575 -22.888  0.00  0.00    +0.017 C 
ATOM      4  C   UNL     1      34.799 -17.313 -20.834  0.00  0.00    +0.017 C 
ATOM      5  C   UNL     1      34.590 -17.387 -23.615  0.00  0.00    +0.016 C 
ATOM      6  C   UNL     1      34.741 -16.124 -21.559  0.00  0.00    +0.016 C 
ENDROOT
BRANCH   1   9
ATOM      7  O   UNL     1      32.524 -20.366 -20.701  0.00  0.00    -0.274 OA
ATOM      8  O   UNL     1      37.140 -19.917 -20.335  0.00  0.00    -0.274 OA
ATOM      9  N   UNL     1      34.814 -19.761 -20.752  0.00  0.00    -0.208 N 
ATOM     10  C   UNL     1      34.159 -21.616 -19.488  0.00  0.00    +0.096 C 
ATOM     11  C   UNL     1      35.652 -21.678 -19.710  0.00  0.00    +0.096 C 
ATOM     12  C   UNL     1      33.699 -20.507 -20.390  0.00  0.00    +0.236 C 
ATOM     13  C   UNL     1      35.993 -20.341 -20.302  0.00  0.00    +0.236 C 
ENDBRANCH   1   9
BRANCH   2  14
ATOM     14  N   UNL     1      34.578 -14.979 -23.672  0.00  0.00    -0.312 N 
ATOM     15  H   UNL     1      34.915 -14.995 -24.598  0.00  0.00    +0.149 HD
BRANCH  14  16
ATOM     16  C   UNL     1      34.060 -13.720 -23.173  0.00  0.00    +0.186 C 
BRANCH  16  17
ATOM     17  O   UNL     1      34.217 -12.693 -24.151  0.00  0.00    -0.367 OA
ATOM     18  H   UNL     1      33.480 -12.730 -24.779  0.00  0.00    +0.212 HD
ENDBRANCH  16  17
BRANCH  16  19
ATOM     19  C   UNL     1      32.557 -13.834 -22.870  0.00  0.00    +0.062 C 
BRANCH  19  20
ATOM     20  C   UNL     1      32.113 -13.055 -21.630  0.00  0.00    +0.114 C 
BRANCH  20  22
ATOM     21  O   UNL     1      32.223 -10.797 -22.534  0.00  0.00    -0.250 OA
ATOM     22  C   UNL     1      31.604 -11.663 -21.933  0.00  0.00    +0.314 C 
BRANCH  22  23
ATOM     23  O   UNL     1      30.332 -11.487 -21.487  0.00  0.00    -0.480 OA
ATOM     24  H   UNL     1      30.017 -11.992 -20.762  0.00  0.00    +0.295 HD
ENDBRANCH  22  23
ENDBRANCH  20  22
ENDBRANCH  19  20
ENDBRANCH  16  19
ENDBRANCH  14  16
ENDBRANCH   2  14
TORSDOF 8
ENDMDL
MODEL 6
REMARK VINA RESULT:      -8.7      3.163      9.057
REMARK  Name = 46937145
REMARK  8 active torsions:
REMARK  status: ('A' for Active; 'I' for Inactive)
REMARK    1  A    between atoms: C_1  and  N_9
REMARK    2  A    between atoms: C_2  and  N_14
REMARK    3  A    between atoms: N_14  and  C_16
REMARK    4  A    between atoms: C_16  and  O_17
REMARK    5  A    between atoms: C_16  and  C_19
REMARK    6  A    between atoms: C_19  and  C_20
REMARK    7  A    between atoms: C_20  and  C_22
REMARK    8  A    between atoms: C_22  and  O_23
REMARK                            x       y       z     vdW  Elec       q    Type
REMARK                         _______ _______ _______ _____ _____    ______ ____
ROOT
ATOM      1  C   UNL     1      34.686 -18.469 -21.525  0.00  0.00    +0.061 C 
ATOM      2  C   UNL     1      34.714 -16.109 -23.013  0.00  0.00    +0.046 C 
ATOM      3  C   UNL     1      34.468 -17.244 -20.895  0.00  0.00    +0.017 C 
ATOM      4  C   UNL     1      34.919 -18.513 -22.900  0.00  0.00    +0.017 C 
ATOM      5  C   UNL     1      34.482 -16.064 -21.638  0.00  0.00    +0.016 C 
ATOM      6  C   UNL     1      34.932 -17.334 -23.644  0.00  0.00    +0.016 C 
ENDROOT
BRANCH   1   9
ATOM      7  O   UNL     1      36.960 -19.865 -20.176  0.00  0.00    -0.274 OA
ATOM      8  O   UNL     1      32.377 -20.254 -20.872  0.00  0.00    -0.274 OA
ATOM      9  N   UNL     1      34.672 -19.681 -20.762  0.00  0.00    -0.208 N 
ATOM     10  C   UNL     1      35.404 -21.596 -19.638  0.00  0.00    +0.096 C 
ATOM     11  C   UNL     1      33.900 -21.509 -19.527  0.00  0.00    +0.096 C 
ATOM     12  C   UNL     1      35.807 -20.273 -20.220  0.00  0.00    +0.236 C 
ATOM     13  C   UNL     1      33.524 -20.407 -20.474  0.00  0.00    +0.236 C 
ENDBRANCH   1   9
BRANCH   2  14
ATOM     14  N   UNL     1      34.726 -14.936 -23.751  0.00  0.00    -0.312 N 
ATOM     15  H   UNL     1      35.483 -14.794 -24.365  0.00  0.00    +0.149 HD
BRANCH  14  16
ATOM     16  C   UNL     1      33.711 -13.902 -23.691  0.00  0.00    +0.186 C 
BRANCH  16  17
ATOM     17  O   UNL     1      34.280 -12.628 -23.989  0.00  0.00    -0.367 OA
ATOM     18  H   UNL     1      33.727 -12.171 -24.641  0.00  0.00    +0.212 HD
ENDBRANCH  16  17
BRANCH  16  19
ATOM     19  C   UNL     1      32.609 -14.163 -24.730  0.00  0.00    +0.062 C 
BRANCH  19  20
ATOM     20  C   UNL     1      33.125 -14.740 -26.051  0.00  0.00    +0.114 C 
BRANCH  20  22
ATOM     21  O   UNL     1      34.081 -13.361 -27.815  0.00  0.00    -0.250 OA
ATOM     22  C   UNL     1      33.102 -13.755 -27.199  0.00  0.00    +0.314 C 
BRANCH  22  23
ATOM     23  O   UNL     1      31.834 -13.375 -27.506  0.00  0.00    -0.480 OA
ATOM     24  H   UNL     1      31.683 -12.768 -28.204  0.00  0.00    +0.295 HD
ENDBRANCH  22  23
ENDBRANCH  20  22
ENDBRANCH  19  20
ENDBRANCH  16  19
ENDBRANCH  14  16
ENDBRANCH   2  14
TORSDOF 8
ENDMDL
MODEL 7
REMARK VINA RESULT:      -8.6      3.205      8.645
REMARK  Name = 46937145
REMARK  8 active torsions:
REMARK  status: ('A' for Active; 'I' for Inactive)
REMARK    1  A    between atoms: C_1  and  N_9
REMARK    2  A    between atoms: C_2  and  N_14
REMARK    3  A    between atoms: N_14  and  C_16
REMARK    4  A    between atoms: C_16  and  O_17
REMARK    5  A    between atoms: C_16  and  C_19
REMARK    6  A    between atoms: C_19  and  C_20
REMARK    7  A    between atoms: C_20  and  C_22
REMARK    8  A    between atoms: C_22  and  O_23
REMARK                            x       y       z     vdW  Elec       q    Type
REMARK                         _______ _______ _______ _____ _____    ______ ____
ROOT
ATOM      1  C   UNL     1      34.738 -18.355 -21.559  0.00  0.00    +0.061 C 
ATOM      2  C   UNL     1      34.589 -15.963 -22.988  0.00  0.00    +0.046 C 
ATOM      3  C   UNL     1      34.627 -17.141 -20.879  0.00  0.00    +0.017 C 
ATOM      4  C   UNL     1      34.775 -18.371 -22.953  0.00  0.00    +0.017 C 
ATOM      5  C   UNL     1      34.552 -15.946 -21.593  0.00  0.00    +0.016 C 
ATOM      6  C   UNL     1      34.700 -17.176 -23.668  0.00  0.00    +0.016 C 
ENDROOT
BRANCH   1   9
ATOM      7  O   UNL     1      37.140 -19.689 -20.378  0.00  0.00    -0.274 OA
ATOM      8  O   UNL     1      32.541 -20.244 -20.817  0.00  0.00    -0.274 OA
ATOM      9  N   UNL     1      34.816 -19.583 -20.825  0.00  0.00    -0.208 N 
ATOM     10  C   UNL     1      35.685 -21.492 -19.793  0.00  0.00    +0.096 C 
ATOM     11  C   UNL     1      34.187 -21.467 -19.593  0.00  0.00    +0.096 C 
ATOM     12  C   UNL     1      36.002 -20.141 -20.365  0.00  0.00    +0.236 C 
ATOM     13  C   UNL     1      33.715 -20.360 -20.490  0.00  0.00    +0.236 C 
ENDBRANCH   1   9
BRANCH   2  14
ATOM     14  N   UNL     1      34.513 -14.775 -23.697  0.00  0.00    -0.312 N 
ATOM     15  H   UNL     1      34.832 -14.780 -24.628  0.00  0.00    +0.149 HD
BRANCH  14  16
ATOM     16  C   UNL     1      33.999 -13.523 -23.174  0.00  0.00    +0.186 C 
BRANCH  16  17
ATOM     17  O   UNL     1      34.227 -12.464 -24.103  0.00  0.00    -0.367 OA
ATOM     18  H   UNL     1      33.985 -12.759 -24.994  0.00  0.00    +0.212 HD
ENDBRANCH  16  17
BRANCH  16  19
ATOM     19  C   UNL     1      32.481 -13.612 -22.948  0.00  0.00    +0.062 C 
BRANCH  19  20
ATOM     20  C   UNL     1      32.012 -12.986 -21.632  0.00  0.00    +0.114 C 
BRANCH  20  22
ATOM     21  O   UNL     1      31.951 -10.760 -22.618  0.00  0.00    -0.250 OA
ATOM     22  C   UNL     1      31.565 -11.547 -21.765  0.00  0.00    +0.314 C 
BRANCH  22  23
ATOM     23  O   UNL     1      30.631 -11.225 -20.832  0.00  0.00    -0.480 OA
ATOM     24  H   UNL     1      29.752 -11.537 -20.923  0.00  0.00    +0.295 HD
ENDBRANCH  22  23
ENDBRANCH  20  22
ENDBRANCH  19  20
ENDBRANCH  16  19
ENDBRANCH  14  16
ENDBRANCH   2  14
TORSDOF 8
ENDMDL
MODEL 8
REMARK VINA RESULT:      -8.6      3.471      9.252
REMARK  Name = 46937145
REMARK  8 active torsions:
REMARK  status: ('A' for Active; 'I' for Inactive)
REMARK    1  A    between atoms: C_1  and  N_9
REMARK    2  A    between atoms: C_2  and  N_14
REMARK    3  A    between atoms: N_14  and  C_16
REMARK    4  A    between atoms: C_16  and  O_17
REMARK    5  A    between atoms: C_16  and  C_19
REMARK    6  A    between atoms: C_19  and  C_20
REMARK    7  A    between atoms: C_20  and  C_22
REMARK    8  A    between atoms: C_22  and  O_23
REMARK                            x       y       z     vdW  Elec       q    Type
REMARK                         _______ _______ _______ _____ _____    ______ ____
ROOT
ATOM      1  C   UNL     1      34.781 -17.920 -21.565  0.00  0.00    +0.061 C 
ATOM      2  C   UNL     1      34.630 -15.421 -22.797  0.00  0.00    +0.046 C 
ATOM      3  C   UNL     1      34.712 -16.762 -20.789  0.00  0.00    +0.017 C 
ATOM      4  C   UNL     1      34.774 -17.828 -22.957  0.00  0.00    +0.017 C 
ATOM      5  C   UNL     1      34.637 -15.514 -21.405  0.00  0.00    +0.016 C 
ATOM      6  C   UNL     1      34.699 -16.579 -23.573  0.00  0.00    +0.016 C 
ENDROOT
BRANCH   1   9
ATOM      7  O   UNL     1      37.199 -19.412 -20.632  0.00  0.00    -0.274 OA
ATOM      8  O   UNL     1      32.567 -19.796 -20.840  0.00  0.00    -0.274 OA
ATOM      9  N   UNL     1      34.858 -19.203 -20.933  0.00  0.00    -0.208 N 
ATOM     10  C   UNL     1      35.720 -21.211 -20.101  0.00  0.00    +0.096 C 
ATOM     11  C   UNL     1      34.238 -21.158 -19.812  0.00  0.00    +0.096 C 
ATOM     12  C   UNL     1      36.049 -19.830 -20.587  0.00  0.00    +0.236 C 
ATOM     13  C   UNL     1      33.753 -19.972 -20.592  0.00  0.00    +0.236 C 
ENDBRANCH   1   9
BRANCH   2  14
ATOM     14  N   UNL     1      34.554 -14.180 -23.408  0.00  0.00    -0.312 N 
ATOM     15  H   UNL     1      35.402 -13.722 -23.613  0.00  0.00    +0.149 HD
BRANCH  14  16
ATOM     16  C   UNL     1      33.324 -13.502 -23.771  0.00  0.00    +0.186 C 
BRANCH  16  17
ATOM     17  O   UNL     1      32.322 -13.725 -22.781  0.00  0.00    -0.367 OA
ATOM     18  H   UNL     1      31.824 -12.906 -22.635  0.00  0.00    +0.212 HD
ENDBRANCH  16  17
BRANCH  16  19
ATOM     19  C   UNL     1      33.548 -11.984 -23.859  0.00  0.00    +0.062 C 
BRANCH  19  20
ATOM     20  C   UNL     1      33.899 -11.489 -25.265  0.00  0.00    +0.114 C 
BRANCH  20  22
ATOM     21  O   UNL     1      35.745 -10.284 -26.299  0.00  0.00    -0.250 OA
ATOM     22  C   UNL     1      35.087 -10.554 -25.304  0.00  0.00    +0.314 C 
BRANCH  22  23
ATOM     23  O   UNL     1      35.327  -9.999 -24.088  0.00  0.00    -0.480 OA
ATOM     24  H   UNL     1      34.635  -9.567 -23.625  0.00  0.00    +0.295 HD
ENDBRANCH  22  23
ENDBRANCH  20  22
ENDBRANCH  19  20
ENDBRANCH  16  19
ENDBRANCH  14  16
ENDBRANCH   2  14
TORSDOF 8
ENDMDL
MODEL 9
REMARK VINA RESULT:      -8.5      2.803      4.558
REMARK  Name = 46937145
REMARK  8 active torsions:
REMARK  status: ('A' for Active; 'I' for Inactive)
REMARK    1  A    between atoms: C_1  and  N_9
REMARK    2  A    between atoms: C_2  and  N_14
REMARK    3  A    between atoms: N_14  and  C_16
REMARK    4  A    between atoms: C_16  and  O_17
REMARK    5  A    between atoms: C_16  and  C_19
REMARK    6  A    between atoms: C_19  and  C_20
REMARK    7  A    between atoms: C_20  and  C_22
REMARK    8  A    between atoms: C_22  and  O_23
REMARK                            x       y       z     vdW  Elec       q    Type
REMARK                         _______ _______ _______ _____ _____    ______ ____
ROOT
ATOM      1  C   UNL     1      33.995 -15.289 -23.858  0.00  0.00    +0.061 C 
ATOM      2  C   UNL     1      34.715 -17.028 -21.798  0.00  0.00    +0.046 C 
ATOM      3  C   UNL     1      34.925 -16.302 -24.093  0.00  0.00    +0.017 C 
ATOM      4  C   UNL     1      33.425 -15.146 -22.592  0.00  0.00    +0.017 C 
ATOM      5  C   UNL     1      35.285 -17.171 -23.064  0.00  0.00    +0.016 C 
ATOM      6  C   UNL     1      33.785 -16.015 -21.563  0.00  0.00    +0.016 C 
ENDROOT
BRANCH   1   9
ATOM      7  O   UNL     1      32.897 -15.932 -26.564  0.00  0.00    -0.274 OA
ATOM      8  O   UNL     1      34.123 -12.302 -23.926  0.00  0.00    -0.274 OA
ATOM      9  N   UNL     1      33.625 -14.395 -24.915  0.00  0.00    -0.208 N 
ATOM     10  C   UNL     1      33.047 -13.595 -27.034  0.00  0.00    +0.096 C 
ATOM     11  C   UNL     1      33.063 -12.438 -26.062  0.00  0.00    +0.096 C 
ATOM     12  C   UNL     1      33.172 -14.810 -26.162  0.00  0.00    +0.236 C 
ATOM     13  C   UNL     1      33.677 -13.011 -24.818  0.00  0.00    +0.236 C 
ENDBRANCH   1   9
BRANCH   2  14
ATOM     14  N   UNL     1      35.072 -17.893 -20.777  0.00  0.00    -0.312 N 
ATOM     15  H   UNL     1      35.051 -17.543 -19.857  0.00  0.00    +0.149 HD
BRANCH  14  16
ATOM     16  C   UNL     1      35.476 -19.275 -20.956  0.00  0.00    +0.186 C 
BRANCH  16  17
ATOM     17  O   UNL     1      36.603 -19.576 -20.135  0.00  0.00    -0.367 OA
ATOM     18  H   UNL     1      37.409 -19.242 -20.558  0.00  0.00    +0.212 HD
ENDBRANCH  16  17
BRANCH  16  19
ATOM     19  C   UNL     1      34.343 -20.229 -20.542  0.00  0.00    +0.062 C 
BRANCH  19  20
ATOM     20  C   UNL     1      34.791 -21.357 -19.610  0.00  0.00    +0.114 C 
BRANCH  20  22
ATOM     21  O   UNL     1      32.593 -22.001 -18.786  0.00  0.00    -0.250 OA
ATOM     22  C   UNL     1      33.684 -22.318 -19.237  0.00  0.00    +0.314 C 
BRANCH  22  23
ATOM     23  O   UNL     1      34.029 -23.605 -19.503  0.00  0.00    -0.480 OA
ATOM     24  H   UNL     1      34.727 -23.789 -20.101  0.00  0.00    +0.295 HD
ENDBRANCH  22  23
ENDBRANCH  20  22
ENDBRANCH  19  20
ENDBRANCH  16  19
ENDBRANCH  14  16
ENDBRANCH   2  14
TORSDOF 8
ENDMDL
