MODEL 1
REMARK VINA RESULT:      -8.9      0.000      0.000
REMARK  Name = 6323527
REMARK  10 active torsions:
REMARK  status: ('A' for Active; 'I' for Inactive)
REMARK    1  A    between atoms: N_1  and  S_3
REMARK    2  A    between atoms: N_1  and  C_15
REMARK    3  A    between atoms: S_3  and  C_6
REMARK    4  A    between atoms: C_11  and  N_14
REMARK    5  A    between atoms: C_15  and  C_16
REMARK    6  A    between atoms: C_16  and  C_18
REMARK    7  A    between atoms: C_16  and  C_21
REMARK    8  A    between atoms: C_18  and  O_19
REMARK    9  A    between atoms: C_21  and  C_23
REMARK   10  A    between atoms: C_21  and  C_24
REMARK                            x       y       z     vdW  Elec       q    Type
REMARK                         _______ _______ _______ _____ _____    ______ ____
ROOT
ATOM      1  N   UNL     1      35.154 -22.778 -17.540  0.00  0.00    -0.179 NA
ATOM      2  H   UNL     1      35.559 -21.843 -17.537  0.00  0.00    +0.149 HD
ENDROOT
BRANCH   1   3
ATOM      3  S   UNL     1      33.858 -22.749 -18.638  0.00  0.00    +0.060 S 
ATOM      4  O   UNL     1      32.630 -22.454 -17.926  0.00  0.00    -0.153 OA
ATOM      5  O   UNL     1      33.942 -23.917 -19.494  0.00  0.00    -0.153 OA
BRANCH   3   6
ATOM      6  C   UNL     1      34.260 -21.347 -19.636  0.00  0.00    +0.122 C 
ATOM      7  C   UNL     1      33.237 -20.581 -20.169  0.00  0.00    +0.022 C 
ATOM      8  C   UNL     1      35.590 -21.041 -19.867  0.00  0.00    +0.022 C 
ATOM      9  C   UNL     1      33.554 -19.475 -20.957  0.00  0.00    +0.025 C 
ATOM     10  C   UNL     1      35.906 -19.934 -20.655  0.00  0.00    +0.025 C 
ATOM     11  C   UNL     1      34.889 -19.151 -21.201  0.00  0.00    +0.143 C 
BRANCH  11  14
ATOM     12  O   UNL     1      34.967 -16.875 -21.562  0.00  0.00    -0.126 OA
ATOM     13  O   UNL     1      35.733 -18.208 -23.129  0.00  0.00    -0.126 OA
ATOM     14  N   UNL     1      35.211 -18.024 -22.002  0.00  0.00    +0.058 N 
ENDBRANCH  11  14
ENDBRANCH   3   6
ENDBRANCH   1   3
BRANCH   1  15
ATOM     15  C   UNL     1      34.916 -23.146 -16.126  0.00  0.00    +0.103 C 
BRANCH  15  16
ATOM     16  C   UNL     1      36.183 -23.767 -15.512  0.00  0.00    +0.124 C 
BRANCH  16  18
ATOM     17  O   UNL     1      37.269 -21.660 -16.077  0.00  0.00    -0.250 OA
ATOM     18  C   UNL     1      37.363 -22.854 -15.821  0.00  0.00    +0.315 C 
BRANCH  18  19
ATOM     19  O   UNL     1      38.555 -23.503 -15.791  0.00  0.00    -0.480 OA
ATOM     20  H   UNL     1      39.028 -23.578 -14.986  0.00  0.00    +0.295 HD
ENDBRANCH  18  19
ENDBRANCH  16  18
BRANCH  16  21
ATOM     21  C   UNL     1      36.042 -24.055 -13.998  0.00  0.00    +0.077 C 
BRANCH  21  23
ATOM     22  O   UNL     1      34.230 -24.291 -12.411  0.00  0.00    -0.288 OA
ATOM     23  C   UNL     1      34.588 -24.056 -13.561  0.00  0.00    +0.208 C 
ENDBRANCH  21  23
BRANCH  21  24
ATOM     24  C   UNL     1      36.674 -25.380 -13.535  0.00  0.00    +0.008 C 
ATOM     25  C   UNL     1      37.859 -25.188 -12.598  0.00  0.00    +0.000 C 
ENDBRANCH  21  24
ENDBRANCH  16  21
ENDBRANCH  15  16
ENDBRANCH   1  15
TORSDOF 10
ENDMDL
MODEL 2
REMARK VINA RESULT:      -8.8      3.850      8.995
REMARK  Name = 6323527
REMARK  10 active torsions:
REMARK  status: ('A' for Active; 'I' for Inactive)
REMARK    1  A    between atoms: N_1  and  S_3
REMARK    2  A    between atoms: N_1  and  C_15
REMARK    3  A    between atoms: S_3  and  C_6
REMARK    4  A    between atoms: C_11  and  N_14
REMARK    5  A    between atoms: C_15  and  C_16
REMARK    6  A    between atoms: C_16  and  C_18
REMARK    7  A    between atoms: C_16  and  C_21
REMARK    8  A    between atoms: C_18  and  O_19
REMARK    9  A    between atoms: C_21  and  C_23
REMARK   10  A    between atoms: C_21  and  C_24
REMARK                            x       y       z     vdW  Elec       q    Type
REMARK                         _______ _______ _______ _____ _____    ______ ____
ROOT
ATOM      1  N   UNL     1      34.258 -17.513 -21.695  0.00  0.00    -0.179 NA
ATOM      2  H   UNL     1      33.659 -17.789 -20.918  0.00  0.00    +0.149 HD
ENDROOT
BRANCH   1   3
ATOM      3  S   UNL     1      35.285 -18.828 -22.015  0.00  0.00    +0.060 S 
ATOM      4  O   UNL     1      36.648 -18.469 -21.675  0.00  0.00    -0.153 OA
ATOM      5  O   UNL     1      34.976 -19.356 -23.330  0.00  0.00    -0.153 OA
BRANCH   3   6
ATOM      6  C   UNL     1      34.726 -20.020 -20.836  0.00  0.00    +0.122 C 
ATOM      7  C   UNL     1      33.376 -20.096 -20.540  0.00  0.00    +0.022 C 
ATOM      8  C   UNL     1      35.648 -20.857 -20.231  0.00  0.00    +0.022 C 
ATOM      9  C   UNL     1      32.934 -21.036 -19.609  0.00  0.00    +0.025 C 
ATOM     10  C   UNL     1      35.206 -21.798 -19.300  0.00  0.00    +0.025 C 
ATOM     11  C   UNL     1      33.849 -21.887 -18.989  0.00  0.00    +0.143 C 
BRANCH  11  14
ATOM     12  O   UNL     1      34.235 -23.619 -17.517  0.00  0.00    -0.126 OA
ATOM     13  O   UNL     1      32.178 -22.891 -17.757  0.00  0.00    -0.126 OA
ATOM     14  N   UNL     1      33.399 -22.846 -18.042  0.00  0.00    +0.058 N 
ENDBRANCH  11  14
ENDBRANCH   3   6
ENDBRANCH   1   3
BRANCH   1  15
ATOM     15  C   UNL     1      34.833 -16.195 -21.345  0.00  0.00    +0.103 C 
BRANCH  15  16
ATOM     16  C   UNL     1      34.303 -15.107 -22.296  0.00  0.00    +0.124 C 
BRANCH  16  18
ATOM     17  O   UNL     1      33.835 -15.328 -24.677  0.00  0.00    -0.250 OA
ATOM     18  C   UNL     1      34.578 -15.548 -23.729  0.00  0.00    +0.315 C 
BRANCH  18  19
ATOM     19  O   UNL     1      35.746 -16.227 -23.857  0.00  0.00    -0.480 OA
ATOM     20  H   UNL     1      36.212 -16.209 -24.669  0.00  0.00    +0.295 HD
ENDBRANCH  18  19
ENDBRANCH  16  18
BRANCH  16  21
ATOM     21  C   UNL     1      32.810 -14.773 -22.059  0.00  0.00    +0.077 C 
BRANCH  21  23
ATOM     22  O   UNL     1      31.652 -16.238 -20.520  0.00  0.00    -0.288 OA
ATOM     23  C   UNL     1      32.343 -15.238 -20.691  0.00  0.00    +0.208 C 
ENDBRANCH  21  23
BRANCH  21  24
ATOM     24  C   UNL     1      32.458 -13.281 -22.196  0.00  0.00    +0.008 C 
ATOM     25  C   UNL     1      31.989 -12.651 -20.892  0.00  0.00    +0.000 C 
ENDBRANCH  21  24
ENDBRANCH  16  21
ENDBRANCH  15  16
ENDBRANCH   1  15
TORSDOF 10
ENDMDL
MODEL 3
REMARK VINA RESULT:      -8.8      1.361      2.309
REMARK  Name = 6323527
REMARK  10 active torsions:
REMARK  status: ('A' for Active; 'I' for Inactive)
REMARK    1  A    between atoms: N_1  and  S_3
REMARK    2  A    between atoms: N_1  and  C_15
REMARK    3  A    between atoms: S_3  and  C_6
REMARK    4  A    between atoms: C_11  and  N_14
REMARK    5  A    between atoms: C_15  and  C_16
REMARK    6  A    between atoms: C_16  and  C_18
REMARK    7  A    between atoms: C_16  and  C_21
REMARK    8  A    between atoms: C_18  and  O_19
REMARK    9  A    between atoms: C_21  and  C_23
REMARK   10  A    between atoms: C_21  and  C_24
REMARK                            x       y       z     vdW  Elec       q    Type
REMARK                         _______ _______ _______ _____ _____    ______ ____
ROOT
ATOM      1  N   UNL     1      35.047 -22.830 -17.311  0.00  0.00    -0.179 NA
ATOM      2  H   UNL     1      35.552 -21.954 -17.445  0.00  0.00    +0.149 HD
ENDROOT
BRANCH   1   3
ATOM      3  S   UNL     1      33.782 -22.846 -18.446  0.00  0.00    +0.060 S 
ATOM      4  O   UNL     1      32.535 -22.519 -17.782  0.00  0.00    -0.153 OA
ATOM      5  O   UNL     1      33.888 -24.049 -19.249  0.00  0.00    -0.153 OA
BRANCH   3   6
ATOM      6  C   UNL     1      34.215 -21.488 -19.492  0.00  0.00    +0.122 C 
ATOM      7  C   UNL     1      33.210 -20.729 -20.065  0.00  0.00    +0.022 C 
ATOM      8  C   UNL     1      35.552 -21.210 -19.719  0.00  0.00    +0.022 C 
ATOM      9  C   UNL     1      33.551 -19.657 -20.890  0.00  0.00    +0.025 C 
ATOM     10  C   UNL     1      35.894 -20.138 -20.545  0.00  0.00    +0.025 C 
ATOM     11  C   UNL     1      34.893 -19.362 -21.131  0.00  0.00    +0.143 C 
BRANCH  11  14
ATOM     12  O   UNL     1      35.521 -18.493 -23.172  0.00  0.00    -0.126 OA
ATOM     13  O   UNL     1      35.258 -17.113 -21.485  0.00  0.00    -0.126 OA
ATOM     14  N   UNL     1      35.241 -18.270 -21.970  0.00  0.00    +0.058 N 
ENDBRANCH  11  14
ENDBRANCH   3   6
ENDBRANCH   1   3
BRANCH   1  15
ATOM     15  C   UNL     1      34.744 -22.933 -15.867  0.00  0.00    +0.103 C 
BRANCH  15  16
ATOM     16  C   UNL     1      34.500 -24.401 -15.473  0.00  0.00    +0.124 C 
BRANCH  16  18
ATOM     17  O   UNL     1      35.953 -26.357 -15.463  0.00  0.00    -0.250 OA
ATOM     18  C   UNL     1      35.832 -25.140 -15.526  0.00  0.00    +0.315 C 
BRANCH  18  19
ATOM     19  O   UNL     1      36.894 -24.304 -15.646  0.00  0.00    -0.480 OA
ATOM     20  H   UNL     1      37.472 -24.174 -14.922  0.00  0.00    +0.295 HD
ENDBRANCH  18  19
ENDBRANCH  16  18
BRANCH  16  21
ATOM     21  C   UNL     1      33.798 -24.550 -14.102  0.00  0.00    +0.077 C 
BRANCH  21  23
ATOM     22  O   UNL     1      34.801 -24.774 -11.911  0.00  0.00    -0.288 OA
ATOM     23  C   UNL     1      34.711 -24.142 -12.959  0.00  0.00    +0.208 C 
ENDBRANCH  21  23
BRANCH  21  24
ATOM     24  C   UNL     1      32.486 -23.759 -13.963  0.00  0.00    +0.008 C 
ATOM     25  C   UNL     1      31.247 -24.584 -14.286  0.00  0.00    +0.000 C 
ENDBRANCH  21  24
ENDBRANCH  16  21
ENDBRANCH  15  16
ENDBRANCH   1  15
TORSDOF 10
ENDMDL
MODEL 4
REMARK VINA RESULT:      -8.8      5.152      8.005
REMARK  Name = 6323527
REMARK  10 active torsions:
REMARK  status: ('A' for Active; 'I' for Inactive)
REMARK    1  A    between atoms: N_1  and  S_3
REMARK    2  A    between atoms: N_1  and  C_15
REMARK    3  A    between atoms: S_3  and  C_6
REMARK    4  A    between atoms: C_11  and  N_14
REMARK    5  A    between atoms: C_15  and  C_16
REMARK    6  A    between atoms: C_16  and  C_18
REMARK    7  A    between atoms: C_16  and  C_21
REMARK    8  A    between atoms: C_18  and  O_19
REMARK    9  A    between atoms: C_21  and  C_23
REMARK   10  A    between atoms: C_21  and  C_24
REMARK                            x       y       z     vdW  Elec       q    Type
REMARK                         _______ _______ _______ _____ _____    ______ ____
ROOT
ATOM      1  N   UNL     1      34.302 -24.769 -13.315  0.00  0.00    -0.179 NA
ATOM      2  H   UNL     1      34.033 -25.745 -13.194  0.00  0.00    +0.149 HD
ENDROOT
BRANCH   1   3
ATOM      3  S   UNL     1      35.471 -24.431 -12.128  0.00  0.00    +0.060 S 
ATOM      4  O   UNL     1      35.243 -25.276 -10.972  0.00  0.00    -0.153 OA
ATOM      5  O   UNL     1      35.578 -22.993 -11.972  0.00  0.00    -0.153 OA
BRANCH   3   6
ATOM      6  C   UNL     1      36.956 -24.976 -12.917  0.00  0.00    +0.122 C 
ATOM      7  C   UNL     1      38.179 -24.608 -12.383  0.00  0.00    +0.022 C 
ATOM      8  C   UNL     1      36.869 -25.761 -14.054  0.00  0.00    +0.022 C 
ATOM      9  C   UNL     1      39.351 -25.037 -13.005  0.00  0.00    +0.025 C 
ATOM     10  C   UNL     1      38.041 -26.191 -14.676  0.00  0.00    +0.025 C 
ATOM     11  C   UNL     1      39.282 -25.828 -14.153  0.00  0.00    +0.143 C 
BRANCH  11  14
ATOM     12  O   UNL     1      41.350 -26.847 -14.098  0.00  0.00    -0.126 OA
ATOM     13  O   UNL     1      40.622 -26.063 -16.015  0.00  0.00    -0.126 OA
ATOM     14  N   UNL     1      40.476 -26.267 -14.785  0.00  0.00    +0.058 N 
ENDBRANCH  11  14
ENDBRANCH   3   6
ENDBRANCH   1   3
BRANCH   1  15
ATOM     15  C   UNL     1      33.049 -23.982 -13.362  0.00  0.00    +0.103 C 
BRANCH  15  16
ATOM     16  C   UNL     1      32.908 -23.278 -14.723  0.00  0.00    +0.124 C 
BRANCH  16  18
ATOM     17  O   UNL     1      34.538 -24.099 -16.337  0.00  0.00    -0.250 OA
ATOM     18  C   UNL     1      34.257 -23.326 -15.430  0.00  0.00    +0.315 C 
BRANCH  18  19
ATOM     19  O   UNL     1      35.140 -22.416 -14.944  0.00  0.00    -0.480 OA
ATOM     20  H   UNL     1      35.953 -22.701 -14.579  0.00  0.00    +0.295 HD
ENDBRANCH  18  19
ENDBRANCH  16  18
BRANCH  16  21
ATOM     21  C   UNL     1      31.768 -23.863 -15.591  0.00  0.00    +0.077 C 
BRANCH  21  23
ATOM     22  O   UNL     1      30.489 -25.731 -14.735  0.00  0.00    -0.288 OA
ATOM     23  C   UNL     1      30.697 -24.522 -14.738  0.00  0.00    +0.208 C 
ENDBRANCH  21  23
BRANCH  21  24
ATOM     24  C   UNL     1      31.075 -22.843 -16.511  0.00  0.00    +0.008 C 
ATOM     25  C   UNL     1      29.558 -22.851 -16.388  0.00  0.00    +0.000 C 
ENDBRANCH  21  24
ENDBRANCH  16  21
ENDBRANCH  15  16
ENDBRANCH   1  15
TORSDOF 10
ENDMDL
MODEL 5
REMARK VINA RESULT:      -8.7      4.799      5.902
REMARK  Name = 6323527
REMARK  10 active torsions:
REMARK  status: ('A' for Active; 'I' for Inactive)
REMARK    1  A    between atoms: N_1  and  S_3
REMARK    2  A    between atoms: N_1  and  C_15
REMARK    3  A    between atoms: S_3  and  C_6
REMARK    4  A    between atoms: C_11  and  N_14
REMARK    5  A    between atoms: C_15  and  C_16
REMARK    6  A    between atoms: C_16  and  C_18
REMARK    7  A    between atoms: C_16  and  C_21
REMARK    8  A    between atoms: C_18  and  O_19
REMARK    9  A    between atoms: C_21  and  C_23
REMARK   10  A    between atoms: C_21  and  C_24
REMARK                            x       y       z     vdW  Elec       q    Type
REMARK                         _______ _______ _______ _____ _____    ______ ____
ROOT
ATOM      1  N   UNL     1      34.799 -23.749 -13.333  0.00  0.00    -0.179 NA
ATOM      2  H   UNL     1      33.901 -24.158 -13.076  0.00  0.00    +0.149 HD
ENDROOT
BRANCH   1   3
ATOM      3  S   UNL     1      34.794 -23.577 -15.024  0.00  0.00    +0.060 S 
ATOM      4  O   UNL     1      35.208 -24.825 -15.636  0.00  0.00    -0.153 OA
ATOM      5  O   UNL     1      35.460 -22.337 -15.372  0.00  0.00    -0.153 OA
BRANCH   3   6
ATOM      6  C   UNL     1      33.073 -23.350 -15.360  0.00  0.00    +0.122 C 
ATOM      7  C   UNL     1      32.174 -23.344 -14.308  0.00  0.00    +0.022 C 
ATOM      8  C   UNL     1      32.657 -23.181 -16.670  0.00  0.00    +0.022 C 
ATOM      9  C   UNL     1      30.817 -23.165 -14.573  0.00  0.00    +0.025 C 
ATOM     10  C   UNL     1      31.299 -23.001 -16.934  0.00  0.00    +0.025 C 
ATOM     11  C   UNL     1      30.378 -22.994 -15.886  0.00  0.00    +0.143 C 
BRANCH  11  14
ATOM     12  O   UNL     1      28.653 -21.980 -17.032  0.00  0.00    -0.126 OA
ATOM     13  O   UNL     1      28.156 -23.483 -15.510  0.00  0.00    -0.126 OA
ATOM     14  N   UNL     1      28.996 -22.810 -16.156  0.00  0.00    +0.058 N 
ENDBRANCH  11  14
ENDBRANCH   3   6
ENDBRANCH   1   3
BRANCH   1  15
ATOM     15  C   UNL     1      35.845 -24.564 -12.677  0.00  0.00    +0.103 C 
BRANCH  15  16
ATOM     16  C   UNL     1      37.245 -24.051 -13.061  0.00  0.00    +0.124 C 
BRANCH  16  18
ATOM     17  O   UNL     1      37.098 -22.422 -11.255  0.00  0.00    -0.250 OA
ATOM     18  C   UNL     1      37.776 -23.201 -11.913  0.00  0.00    +0.315 C 
BRANCH  18  19
ATOM     19  O   UNL     1      39.101 -23.389 -11.686  0.00  0.00    -0.480 OA
ATOM     20  H   UNL     1      39.389 -24.099 -11.148  0.00  0.00    +0.295 HD
ENDBRANCH  18  19
ENDBRANCH  16  18
BRANCH  16  21
ATOM     21  C   UNL     1      38.220 -25.188 -13.452  0.00  0.00    +0.077 C 
BRANCH  21  23
ATOM     22  O   UNL     1      37.697 -27.268 -14.574  0.00  0.00    -0.288 OA
ATOM     23  C   UNL     1      37.494 -26.510 -13.630  0.00  0.00    +0.208 C 
ENDBRANCH  21  23
BRANCH  21  24
ATOM     24  C   UNL     1      39.036 -24.922 -14.728  0.00  0.00    +0.008 C 
ATOM     25  C   UNL     1      40.476 -25.410 -14.635  0.00  0.00    +0.000 C 
ENDBRANCH  21  24
ENDBRANCH  16  21
ENDBRANCH  15  16
ENDBRANCH   1  15
TORSDOF 10
ENDMDL
MODEL 6
REMARK VINA RESULT:      -8.7      4.016      9.636
REMARK  Name = 6323527
REMARK  10 active torsions:
REMARK  status: ('A' for Active; 'I' for Inactive)
REMARK    1  A    between atoms: N_1  and  S_3
REMARK    2  A    between atoms: N_1  and  C_15
REMARK    3  A    between atoms: S_3  and  C_6
REMARK    4  A    between atoms: C_11  and  N_14
REMARK    5  A    between atoms: C_15  and  C_16
REMARK    6  A    between atoms: C_16  and  C_18
REMARK    7  A    between atoms: C_16  and  C_21
REMARK    8  A    between atoms: C_18  and  O_19
REMARK    9  A    between atoms: C_21  and  C_23
REMARK   10  A    between atoms: C_21  and  C_24
REMARK                            x       y       z     vdW  Elec       q    Type
REMARK                         _______ _______ _______ _____ _____    ______ ____
ROOT
ATOM      1  N   UNL     1      35.042 -17.247 -21.545  0.00  0.00    -0.179 NA
ATOM      2  H   UNL     1      35.567 -16.913 -20.736  0.00  0.00    +0.149 HD
ENDROOT
BRANCH   1   3
ATOM      3  S   UNL     1      35.766 -18.705 -22.033  0.00  0.00    +0.060 S 
ATOM      4  O   UNL     1      37.182 -18.667 -21.721  0.00  0.00    -0.153 OA
ATOM      5  O   UNL     1      35.323 -19.021 -23.377  0.00  0.00    -0.153 OA
BRANCH   3   6
ATOM      6  C   UNL     1      35.000 -19.871 -20.949  0.00  0.00    +0.122 C 
ATOM      7  C   UNL     1      33.620 -19.888 -20.841  0.00  0.00    +0.022 C 
ATOM      8  C   UNL     1      35.794 -20.747 -20.228  0.00  0.00    +0.022 C 
ATOM      9  C   UNL     1      33.015 -20.808 -19.985  0.00  0.00    +0.025 C 
ATOM     10  C   UNL     1      35.188 -21.668 -19.373  0.00  0.00    +0.025 C 
ATOM     11  C   UNL     1      33.798 -21.698 -19.251  0.00  0.00    +0.143 C 
BRANCH  11  14
ATOM     12  O   UNL     1      33.804 -23.682 -18.075  0.00  0.00    -0.126 OA
ATOM     13  O   UNL     1      32.032 -22.393 -17.941  0.00  0.00    -0.126 OA
ATOM     14  N   UNL     1      33.182 -22.637 -18.381  0.00  0.00    +0.058 N 
ENDBRANCH  11  14
ENDBRANCH   3   6
ENDBRANCH   1   3
BRANCH   1  15
ATOM     15  C   UNL     1      34.951 -16.114 -22.493  0.00  0.00    +0.103 C 
BRANCH  15  16
ATOM     16  C   UNL     1      33.595 -15.400 -22.348  0.00  0.00    +0.124 C 
BRANCH  16  18
ATOM     17  O   UNL     1      32.662 -13.955 -20.622  0.00  0.00    -0.250 OA
ATOM     18  C   UNL     1      33.613 -14.593 -21.055  0.00  0.00    +0.315 C 
BRANCH  18  19
ATOM     19  O   UNL     1      34.811 -14.644 -20.418  0.00  0.00    -0.480 OA
ATOM     20  H   UNL     1      34.877 -15.044 -19.574  0.00  0.00    +0.295 HD
ENDBRANCH  18  19
ENDBRANCH  16  18
BRANCH  16  21
ATOM     21  C   UNL     1      33.233 -14.534 -23.578  0.00  0.00    +0.077 C 
BRANCH  21  23
ATOM     22  O   UNL     1      33.438 -12.123 -23.521  0.00  0.00    -0.288 OA
ATOM     23  C   UNL     1      33.990 -13.217 -23.577  0.00  0.00    +0.208 C 
ENDBRANCH  21  23
BRANCH  21  24
ATOM     24  C   UNL     1      33.474 -15.215 -24.936  0.00  0.00    +0.008 C 
ATOM     25  C   UNL     1      32.899 -14.438 -26.112  0.00  0.00    +0.000 C 
ENDBRANCH  21  24
ENDBRANCH  16  21
ENDBRANCH  15  16
ENDBRANCH   1  15
TORSDOF 10
ENDMDL
MODEL 7
REMARK VINA RESULT:      -8.7      4.221     10.105
REMARK  Name = 6323527
REMARK  10 active torsions:
REMARK  status: ('A' for Active; 'I' for Inactive)
REMARK    1  A    between atoms: N_1  and  S_3
REMARK    2  A    between atoms: N_1  and  C_15
REMARK    3  A    between atoms: S_3  and  C_6
REMARK    4  A    between atoms: C_11  and  N_14
REMARK    5  A    between atoms: C_15  and  C_16
REMARK    6  A    between atoms: C_16  and  C_18
REMARK    7  A    between atoms: C_16  and  C_21
REMARK    8  A    between atoms: C_18  and  O_19
REMARK    9  A    between atoms: C_21  and  C_23
REMARK   10  A    between atoms: C_21  and  C_24
REMARK                            x       y       z     vdW  Elec       q    Type
REMARK                         _______ _______ _______ _____ _____    ______ ____
ROOT
ATOM      1  N   UNL     1      34.458 -17.657 -22.758  0.00  0.00    -0.179 NA
ATOM      2  H   UNL     1      33.574 -17.467 -22.287  0.00  0.00    +0.149 HD
ENDROOT
BRANCH   1   3
ATOM      3  S   UNL     1      35.609 -17.953 -21.543  0.00  0.00    +0.060 S 
ATOM      4  O   UNL     1      35.565 -16.881 -20.568  0.00  0.00    -0.153 OA
ATOM      5  O   UNL     1      36.865 -18.321 -22.167  0.00  0.00    -0.153 OA
BRANCH   3   6
ATOM      6  C   UNL     1      34.964 -19.411 -20.780  0.00  0.00    +0.122 C 
ATOM      7  C   UNL     1      35.842 -20.351 -20.270  0.00  0.00    +0.022 C 
ATOM      8  C   UNL     1      33.593 -19.586 -20.707  0.00  0.00    +0.022 C 
ATOM      9  C   UNL     1      35.334 -21.502 -19.668  0.00  0.00    +0.025 C 
ATOM     10  C   UNL     1      33.085 -20.737 -20.104  0.00  0.00    +0.025 C 
ATOM     11  C   UNL     1      33.955 -21.696 -19.586  0.00  0.00    +0.143 C 
BRANCH  11  14
ATOM     12  O   UNL     1      33.895 -23.984 -19.311  0.00  0.00    -0.126 OA
ATOM     13  O   UNL     1      32.536 -22.751 -18.105  0.00  0.00    -0.126 OA
ATOM     14  N   UNL     1      33.437 -22.867 -18.971  0.00  0.00    +0.058 N 
ENDBRANCH  11  14
ENDBRANCH   3   6
ENDBRANCH   1   3
BRANCH   1  15
ATOM     15  C   UNL     1      34.673 -16.558 -23.726  0.00  0.00    +0.103 C 
BRANCH  15  16
ATOM     16  C   UNL     1      33.492 -15.572 -23.689  0.00  0.00    +0.124 C 
BRANCH  16  18
ATOM     17  O   UNL     1      32.270 -15.197 -21.614  0.00  0.00    -0.250 OA
ATOM     18  C   UNL     1      33.310 -15.095 -22.253  0.00  0.00    +0.315 C 
BRANCH  18  19
ATOM     19  O   UNL     1      34.432 -14.530 -21.739  0.00  0.00    -0.480 OA
ATOM     20  H   UNL     1      34.749 -13.720 -22.085  0.00  0.00    +0.295 HD
ENDBRANCH  18  19
ENDBRANCH  16  18
BRANCH  16  21
ATOM     21  C   UNL     1      33.654 -14.397 -24.683  0.00  0.00    +0.077 C 
BRANCH  21  23
ATOM     22  O   UNL     1      33.580 -14.840 -27.061  0.00  0.00    -0.288 OA
ATOM     23  C   UNL     1      32.970 -14.686 -26.008  0.00  0.00    +0.208 C 
ENDBRANCH  21  23
BRANCH  21  24
ATOM     24  C   UNL     1      33.131 -13.044 -24.168  0.00  0.00    +0.008 C 
ATOM     25  C   UNL     1      33.932 -11.854 -24.680  0.00  0.00    +0.000 C 
ENDBRANCH  21  24
ENDBRANCH  16  21
ENDBRANCH  15  16
ENDBRANCH   1  15
TORSDOF 10
ENDMDL
MODEL 8
REMARK VINA RESULT:      -8.5      0.847      2.512
REMARK  Name = 6323527
REMARK  10 active torsions:
REMARK  status: ('A' for Active; 'I' for Inactive)
REMARK    1  A    between atoms: N_1  and  S_3
REMARK    2  A    between atoms: N_1  and  C_15
REMARK    3  A    between atoms: S_3  and  C_6
REMARK    4  A    between atoms: C_11  and  N_14
REMARK    5  A    between atoms: C_15  and  C_16
REMARK    6  A    between atoms: C_16  and  C_18
REMARK    7  A    between atoms: C_16  and  C_21
REMARK    8  A    between atoms: C_18  and  O_19
REMARK    9  A    between atoms: C_21  and  C_23
REMARK   10  A    between atoms: C_21  and  C_24
REMARK                            x       y       z     vdW  Elec       q    Type
REMARK                         _______ _______ _______ _____ _____    ______ ____
ROOT
ATOM      1  N   UNL     1      34.683 -22.826 -17.270  0.00  0.00    -0.179 NA
ATOM      2  H   UNL     1      35.027 -21.870 -17.177  0.00  0.00    +0.149 HD
ENDROOT
BRANCH   1   3
ATOM      3  S   UNL     1      33.629 -22.841 -18.603  0.00  0.00    +0.060 S 
ATOM      4  O   UNL     1      32.281 -22.552 -18.155  0.00  0.00    -0.153 OA
ATOM      5  O   UNL     1      33.896 -24.024 -19.398  0.00  0.00    -0.153 OA
BRANCH   3   6
ATOM      6  C   UNL     1      34.203 -21.453 -19.535  0.00  0.00    +0.122 C 
ATOM      7  C   UNL     1      35.565 -21.250 -19.676  0.00  0.00    +0.022 C 
ATOM      8  C   UNL     1      33.280 -20.594 -20.106  0.00  0.00    +0.022 C 
ATOM      9  C   UNL     1      36.019 -20.155 -20.411  0.00  0.00    +0.025 C 
ATOM     10  C   UNL     1      33.734 -19.498 -20.841  0.00  0.00    +0.025 C 
ATOM     11  C   UNL     1      35.103 -19.278 -20.993  0.00  0.00    +0.143 C 
BRANCH  11  14
ATOM     12  O   UNL     1      35.182 -17.014 -21.420  0.00  0.00    -0.126 OA
ATOM     13  O   UNL     1      36.343 -18.361 -22.708  0.00  0.00    -0.126 OA
ATOM     14  N   UNL     1      35.564 -18.164 -21.743  0.00  0.00    +0.058 N 
ENDBRANCH  11  14
ENDBRANCH   3   6
ENDBRANCH   1   3
BRANCH   1  15
ATOM     15  C   UNL     1      34.191 -23.235 -15.935  0.00  0.00    +0.103 C 
BRANCH  15  16
ATOM     16  C   UNL     1      35.349 -23.265 -14.922  0.00  0.00    +0.124 C 
BRANCH  16  18
ATOM     17  O   UNL     1      35.217 -23.713 -12.531  0.00  0.00    -0.250 OA
ATOM     18  C   UNL     1      34.874 -23.996 -13.672  0.00  0.00    +0.315 C 
BRANCH  18  19
ATOM     19  O   UNL     1      34.022 -25.015 -13.949  0.00  0.00    -0.480 OA
ATOM     20  H   UNL     1      33.128 -24.966 -13.677  0.00  0.00    +0.295 HD
ENDBRANCH  18  19
ENDBRANCH  16  18
BRANCH  16  21
ATOM     21  C   UNL     1      36.646 -23.876 -15.504  0.00  0.00    +0.077 C 
BRANCH  21  23
ATOM     22  O   UNL     1      37.492 -21.813 -16.447  0.00  0.00    -0.288 OA
ATOM     23  C   UNL     1      37.698 -22.812 -15.764  0.00  0.00    +0.208 C 
ENDBRANCH  21  23
BRANCH  21  24
ATOM     24  C   UNL     1      37.287 -24.969 -14.632  0.00  0.00    +0.008 C 
ATOM     25  C   UNL     1      38.809 -24.977 -14.696  0.00  0.00    +0.000 C 
ENDBRANCH  21  24
ENDBRANCH  16  21
ENDBRANCH  15  16
ENDBRANCH   1  15
TORSDOF 10
ENDMDL
MODEL 9
REMARK VINA RESULT:      -8.5      2.628      3.399
REMARK  Name = 6323527
REMARK  10 active torsions:
REMARK  status: ('A' for Active; 'I' for Inactive)
REMARK    1  A    between atoms: N_1  and  S_3
REMARK    2  A    between atoms: N_1  and  C_15
REMARK    3  A    between atoms: S_3  and  C_6
REMARK    4  A    between atoms: C_11  and  N_14
REMARK    5  A    between atoms: C_15  and  C_16
REMARK    6  A    between atoms: C_16  and  C_18
REMARK    7  A    between atoms: C_16  and  C_21
REMARK    8  A    between atoms: C_18  and  O_19
REMARK    9  A    between atoms: C_21  and  C_23
REMARK   10  A    between atoms: C_21  and  C_24
REMARK                            x       y       z     vdW  Elec       q    Type
REMARK                         _______ _______ _______ _____ _____    ______ ____
ROOT
ATOM      1  N   UNL     1      35.121 -23.048 -14.320  0.00  0.00    -0.179 NA
ATOM      2  H   UNL     1      34.355 -22.470 -13.976  0.00  0.00    +0.149 HD
ENDROOT
BRANCH   1   3
ATOM      3  S   UNL     1      34.517 -23.934 -15.638  0.00  0.00    +0.060 S 
ATOM      4  O   UNL     1      33.069 -23.984 -15.561  0.00  0.00    -0.153 OA
ATOM      5  O   UNL     1      35.283 -25.158 -15.771  0.00  0.00    -0.153 OA
BRANCH   3   6
ATOM      6  C   UNL     1      34.955 -22.900 -17.003  0.00  0.00    +0.122 C 
ATOM      7  C   UNL     1      34.044 -22.710 -18.027  0.00  0.00    +0.022 C 
ATOM      8  C   UNL     1      36.203 -22.300 -17.022  0.00  0.00    +0.022 C 
ATOM      9  C   UNL     1      34.389 -21.895 -19.104  0.00  0.00    +0.025 C 
ATOM     10  C   UNL     1      36.548 -21.484 -18.100  0.00  0.00    +0.025 C 
ATOM     11  C   UNL     1      35.642 -21.281 -19.141  0.00  0.00    +0.143 C 
BRANCH  11  14
ATOM     12  O   UNL     1      35.226 -20.393 -21.228  0.00  0.00    -0.126 OA
ATOM     13  O   UNL     1      37.062 -19.793 -20.184  0.00  0.00    -0.126 OA
ATOM     14  N   UNL     1      35.994 -20.450 -20.238  0.00  0.00    +0.058 N 
ENDBRANCH  11  14
ENDBRANCH   3   6
ENDBRANCH   1   3
BRANCH   1  15
ATOM     15  C   UNL     1      35.682 -23.757 -13.149  0.00  0.00    +0.103 C 
BRANCH  15  16
ATOM     16  C   UNL     1      37.206 -23.551 -13.075  0.00  0.00    +0.124 C 
BRANCH  16  18
ATOM     17  O   UNL     1      37.149 -23.141 -10.673  0.00  0.00    -0.250 OA
ATOM     18  C   UNL     1      37.526 -22.800 -11.787  0.00  0.00    +0.315 C 
BRANCH  18  19
ATOM     19  O   UNL     1      38.281 -21.692 -11.997  0.00  0.00    -0.480 OA
ATOM     20  H   UNL     1      39.215 -21.754 -11.999  0.00  0.00    +0.295 HD
ENDBRANCH  18  19
ENDBRANCH  16  18
BRANCH  16  21
ATOM     21  C   UNL     1      38.001 -24.872 -13.200  0.00  0.00    +0.077 C 
BRANCH  21  23
ATOM     22  O   UNL     1      37.027 -26.538 -11.738  0.00  0.00    -0.288 OA
ATOM     23  C   UNL     1      37.139 -26.078 -12.871  0.00  0.00    +0.208 C 
ENDBRANCH  21  23
BRANCH  21  24
ATOM     24  C   UNL     1      38.637 -25.109 -14.580  0.00  0.00    +0.008 C 
ATOM     25  C   UNL     1      40.115 -25.470 -14.510  0.00  0.00    +0.000 C 
ENDBRANCH  21  24
ENDBRANCH  16  21
ENDBRANCH  15  16
ENDBRANCH   1  15
TORSDOF 10
ENDMDL
