MODEL 1
REMARK VINA RESULT:      -9.0      0.000      0.000
REMARK  Name = 11809364
REMARK  4 active torsions:
REMARK  status: ('A' for Active; 'I' for Inactive)
REMARK    1  A    between atoms: C_2  and  N_17
REMARK    2  A    between atoms: C_3  and  C_11
REMARK    3  A    between atoms: C_18  and  O_20
REMARK    4  A    between atoms: O_20  and  C_21
REMARK                            x       y       z     vdW  Elec       q    Type
REMARK                         _______ _______ _______ _____ _____    ______ ____
ROOT
ATOM      1  N   UNL     1      36.578 -21.808 -17.763  0.00  0.00    -0.238 NA
ATOM      2  C   UNL     1      34.363 -22.736 -17.710  0.00  0.00    +0.075 C 
ATOM      3  C   UNL     1      35.593 -22.494 -17.142  0.00  0.00    +0.148 C 
ATOM      4  C   UNL     1      34.102 -22.259 -18.980  0.00  0.00    +0.018 C 
ATOM      5  C   UNL     1      35.090 -21.549 -19.652  0.00  0.00    +0.022 C 
ATOM      6  C   UNL     1      36.300 -21.351 -19.006  0.00  0.00    +0.099 C 
ENDROOT
BRANCH   3  11
ATOM      7  S   UNL     1      39.058 -25.226 -14.815  0.00  0.00    -0.051 S 
ATOM      8  O   UNL     1      35.215 -22.630 -14.853  0.00  0.00    -0.268 OA
ATOM      9  N   UNL     1      37.086 -23.756 -15.722  0.00  0.00    -0.259 N 
ATOM     10  N   UNL     1      37.192 -24.192 -13.355  0.00  0.00    -0.222 NA
ATOM     11  C   UNL     1      35.933 -22.967 -15.806  0.00  0.00    +0.270 C 
ATOM     12  C   UNL     1      37.643 -24.309 -14.565  0.00  0.00    +0.166 C 
ATOM     13  C   UNL     1      39.106 -25.518 -13.125  0.00  0.00    +0.059 C 
ATOM     14  C   UNL     1      38.038 -24.893 -12.517  0.00  0.00    +0.108 C 
ATOM     15  H   UNL     1      37.556 -23.942 -16.568  0.00  0.00    +0.157 HD
ENDBRANCH   3  11
BRANCH   2  17
ATOM     16  O   UNL     1      31.410 -22.244 -17.454  0.00  0.00    -0.226 OA
ATOM     17  N   UNL     1      33.362 -23.460 -17.021  0.00  0.00    -0.248 N 
ATOM     18  C   UNL     1      32.012 -23.179 -16.942  0.00  0.00    +0.405 C 
ATOM     19  H   UNL     1      33.666 -24.263 -16.539  0.00  0.00    +0.158 HD
BRANCH  18  20
ATOM     20  O   UNL     1      31.406 -24.139 -16.172  0.00  0.00    -0.442 OA
BRANCH  20  21
ATOM     21  C   UNL     1      30.815 -23.687 -14.952  0.00  0.00    +0.138 C 
ATOM     22  C   UNL     1      29.485 -23.011 -15.277  0.00  0.00    +0.044 C 
ATOM     23  C   UNL     1      30.594 -24.913 -14.069  0.00  0.00    +0.044 C 
ATOM     24  C   UNL     1      31.776 -22.707 -14.280  0.00  0.00    +0.044 C 
ENDBRANCH  20  21
ENDBRANCH  18  20
ENDBRANCH   2  17
TORSDOF 4
ENDMDL
MODEL 2
REMARK VINA RESULT:      -8.9      2.667      5.782
REMARK  Name = 11809364
REMARK  4 active torsions:
REMARK  status: ('A' for Active; 'I' for Inactive)
REMARK    1  A    between atoms: C_2  and  N_17
REMARK    2  A    between atoms: C_3  and  C_11
REMARK    3  A    between atoms: C_18  and  O_20
REMARK    4  A    between atoms: O_20  and  C_21
REMARK                            x       y       z     vdW  Elec       q    Type
REMARK                         _______ _______ _______ _____ _____    ______ ____
ROOT
ATOM      1  N   UNL     1      34.255 -22.678 -18.600  0.00  0.00    -0.238 NA
ATOM      2  C   UNL     1      35.890 -22.304 -16.880  0.00  0.00    +0.075 C 
ATOM      3  C   UNL     1      34.680 -22.788 -17.321  0.00  0.00    +0.148 C 
ATOM      4  C   UNL     1      36.729 -21.670 -17.777  0.00  0.00    +0.018 C 
ATOM      5  C   UNL     1      36.328 -21.538 -19.101  0.00  0.00    +0.022 C 
ATOM      6  C   UNL     1      35.094 -22.055 -19.459  0.00  0.00    +0.099 C 
ENDROOT
BRANCH   3  11
ATOM      7  S   UNL     1      29.790 -23.039 -16.366  0.00  0.00    -0.051 S 
ATOM      8  O   UNL     1      34.194 -24.285 -15.612  0.00  0.00    -0.268 OA
ATOM      9  N   UNL     1      32.399 -23.137 -16.605  0.00  0.00    -0.259 N 
ATOM     10  N   UNL     1      31.348 -24.548 -14.959  0.00  0.00    -0.222 NA
ATOM     11  C   UNL     1      33.748 -23.466 -16.430  0.00  0.00    +0.270 C 
ATOM     12  C   UNL     1      31.308 -23.660 -15.903  0.00  0.00    +0.166 C 
ATOM     13  C   UNL     1      29.071 -24.056 -15.186  0.00  0.00    +0.059 C 
ATOM     14  C   UNL     1      30.052 -24.780 -14.540  0.00  0.00    +0.108 C 
ATOM     15  H   UNL     1      32.195 -22.466 -17.296  0.00  0.00    +0.157 HD
ENDBRANCH   3  11
BRANCH   2  17
ATOM     16  O   UNL     1      38.413 -23.416 -15.687  0.00  0.00    -0.226 OA
ATOM     17  N   UNL     1      36.292 -22.440 -15.531  0.00  0.00    -0.248 N 
ATOM     18  C   UNL     1      37.473 -22.964 -15.045  0.00  0.00    +0.405 C 
ATOM     19  H   UNL     1      35.649 -22.123 -14.856  0.00  0.00    +0.158 HD
BRANCH  18  20
ATOM     20  O   UNL     1      37.452 -22.907 -13.675  0.00  0.00    -0.442 OA
BRANCH  20  21
ATOM     21  C   UNL     1      37.070 -24.107 -13.000  0.00  0.00    +0.138 C 
ATOM     22  C   UNL     1      37.022 -25.243 -14.020  0.00  0.00    +0.044 C 
ATOM     23  C   UNL     1      38.123 -24.388 -11.931  0.00  0.00    +0.044 C 
ATOM     24  C   UNL     1      35.699 -23.890 -12.360  0.00  0.00    +0.044 C 
ENDBRANCH  20  21
ENDBRANCH  18  20
ENDBRANCH   2  17
TORSDOF 4
ENDMDL
MODEL 3
REMARK VINA RESULT:      -8.4      2.657      6.254
REMARK  Name = 11809364
REMARK  4 active torsions:
REMARK  status: ('A' for Active; 'I' for Inactive)
REMARK    1  A    between atoms: C_2  and  N_17
REMARK    2  A    between atoms: C_3  and  C_11
REMARK    3  A    between atoms: C_18  and  O_20
REMARK    4  A    between atoms: O_20  and  C_21
REMARK                            x       y       z     vdW  Elec       q    Type
REMARK                         _______ _______ _______ _____ _____    ______ ____
ROOT
ATOM      1  N   UNL     1      31.346 -23.415 -16.212  0.00  0.00    -0.238 NA
ATOM      2  C   UNL     1      32.788 -24.408 -14.566  0.00  0.00    +0.075 C 
ATOM      3  C   UNL     1      32.573 -23.766 -15.764  0.00  0.00    +0.148 C 
ATOM      4  C   UNL     1      31.705 -24.718 -13.764  0.00  0.00    +0.018 C 
ATOM      5  C   UNL     1      30.428 -24.373 -14.190  0.00  0.00    +0.022 C 
ATOM      6  C   UNL     1      30.303 -23.728 -15.410  0.00  0.00    +0.099 C 
ENDROOT
BRANCH   3  11
ATOM      7  S   UNL     1      33.468 -20.988 -19.810  0.00  0.00    -0.051 S 
ATOM      8  O   UNL     1      34.798 -23.868 -16.426  0.00  0.00    -0.268 OA
ATOM      9  N   UNL     1      33.336 -22.540 -17.701  0.00  0.00    -0.259 N 
ATOM     10  N   UNL     1      35.470 -22.262 -18.785  0.00  0.00    -0.222 NA
ATOM     11  C   UNL     1      33.668 -23.410 -16.656  0.00  0.00    +0.270 C 
ATOM     12  C   UNL     1      34.200 -22.026 -18.673  0.00  0.00    +0.166 C 
ATOM     13  C   UNL     1      35.000 -20.810 -20.559  0.00  0.00    +0.059 C 
ATOM     14  C   UNL     1      35.938 -21.559 -19.879  0.00  0.00    +0.108 C 
ATOM     15  H   UNL     1      32.394 -22.259 -17.758  0.00  0.00    +0.157 HD
ENDBRANCH   3  11
BRANCH   2  17
ATOM     16  O   UNL     1      34.302 -23.667 -12.079  0.00  0.00    -0.226 OA
ATOM     17  N   UNL     1      34.090 -24.757 -14.139  0.00  0.00    -0.248 N 
ATOM     18  C   UNL     1      34.733 -24.380 -12.976  0.00  0.00    +0.405 C 
ATOM     19  H   UNL     1      34.601 -25.340 -14.746  0.00  0.00    +0.158 HD
BRANCH  18  20
ATOM     20  O   UNL     1      35.984 -24.942 -12.960  0.00  0.00    -0.442 OA
BRANCH  20  21
ATOM     21  C   UNL     1      37.082 -24.031 -12.900  0.00  0.00    +0.138 C 
ATOM     22  C   UNL     1      36.994 -23.248 -11.592  0.00  0.00    +0.044 C 
ATOM     23  C   UNL     1      38.366 -24.857 -12.946  0.00  0.00    +0.044 C 
ATOM     24  C   UNL     1      37.004 -23.093 -14.104  0.00  0.00    +0.044 C 
ENDBRANCH  20  21
ENDBRANCH  18  20
ENDBRANCH   2  17
TORSDOF 4
ENDMDL
MODEL 4
REMARK VINA RESULT:      -8.1      1.929      4.644
REMARK  Name = 11809364
REMARK  4 active torsions:
REMARK  status: ('A' for Active; 'I' for Inactive)
REMARK    1  A    between atoms: C_2  and  N_17
REMARK    2  A    between atoms: C_3  and  C_11
REMARK    3  A    between atoms: C_18  and  O_20
REMARK    4  A    between atoms: O_20  and  C_21
REMARK                            x       y       z     vdW  Elec       q    Type
REMARK                         _______ _______ _______ _____ _____    ______ ____
ROOT
ATOM      1  N   UNL     1      32.470 -23.771 -14.160  0.00  0.00    -0.238 NA
ATOM      2  C   UNL     1      32.931 -23.254 -16.461  0.00  0.00    +0.075 C 
ATOM      3  C   UNL     1      33.312 -23.699 -15.215  0.00  0.00    +0.148 C 
ATOM      4  C   UNL     1      31.623 -22.858 -16.663  0.00  0.00    +0.018 C 
ATOM      5  C   UNL     1      30.726 -22.918 -15.603  0.00  0.00    +0.022 C 
ATOM      6  C   UNL     1      31.194 -23.378 -14.383  0.00  0.00    +0.099 C 
ENDROOT
BRANCH   3  11
ATOM      7  S   UNL     1      36.856 -23.173 -11.743  0.00  0.00    -0.051 S 
ATOM      8  O   UNL     1      35.234 -24.898 -15.732  0.00  0.00    -0.268 OA
ATOM      9  N   UNL     1      35.225 -23.649 -13.741  0.00  0.00    -0.259 N 
ATOM     10  N   UNL     1      37.396 -24.695 -13.762  0.00  0.00    -0.222 NA
ATOM     11  C   UNL     1      34.674 -24.132 -14.933  0.00  0.00    +0.270 C 
ATOM     12  C   UNL     1      36.495 -23.932 -13.226  0.00  0.00    +0.166 C 
ATOM     13  C   UNL     1      38.393 -23.933 -11.787  0.00  0.00    +0.059 C 
ATOM     14  C   UNL     1      38.498 -24.698 -12.930  0.00  0.00    +0.108 C 
ATOM     15  H   UNL     1      34.660 -23.045 -13.207  0.00  0.00    +0.157 HD
ENDBRANCH   3  11
BRANCH   2  17
ATOM     16  O   UNL     1      32.680 -22.024 -19.190  0.00  0.00    -0.226 OA
ATOM     17  N   UNL     1      33.848 -23.195 -17.535  0.00  0.00    -0.248 N 
ATOM     18  C   UNL     1      33.671 -22.610 -18.773  0.00  0.00    +0.405 C 
ATOM     19  H   UNL     1      34.721 -23.624 -17.381  0.00  0.00    +0.158 HD
BRANCH  18  20
ATOM     20  O   UNL     1      34.813 -22.783 -19.512  0.00  0.00    -0.442 OA
BRANCH  20  21
ATOM     21  C   UNL     1      35.684 -21.654 -19.599  0.00  0.00    +0.138 C 
ATOM     22  C   UNL     1      36.337 -21.439 -18.235  0.00  0.00    +0.044 C 
ATOM     23  C   UNL     1      36.741 -21.970 -20.656  0.00  0.00    +0.044 C 
ATOM     24  C   UNL     1      34.861 -20.434 -20.009  0.00  0.00    +0.044 C 
ENDBRANCH  20  21
ENDBRANCH  18  20
ENDBRANCH   2  17
TORSDOF 4
ENDMDL
MODEL 5
REMARK VINA RESULT:      -8.1      2.972      5.815
REMARK  Name = 11809364
REMARK  4 active torsions:
REMARK  status: ('A' for Active; 'I' for Inactive)
REMARK    1  A    between atoms: C_2  and  N_17
REMARK    2  A    between atoms: C_3  and  C_11
REMARK    3  A    between atoms: C_18  and  O_20
REMARK    4  A    between atoms: O_20  and  C_21
REMARK                            x       y       z     vdW  Elec       q    Type
REMARK                         _______ _______ _______ _____ _____    ______ ____
ROOT
ATOM      1  N   UNL     1      32.737 -21.426 -19.402  0.00  0.00    -0.238 NA
ATOM      2  C   UNL     1      34.904 -22.033 -18.558  0.00  0.00    +0.075 C 
ATOM      3  C   UNL     1      33.531 -22.121 -18.555  0.00  0.00    +0.148 C 
ATOM      4  C   UNL     1      35.523 -21.197 -19.468  0.00  0.00    +0.018 C 
ATOM      5  C   UNL     1      34.742 -20.466 -20.356  0.00  0.00    +0.022 C 
ATOM      6  C   UNL     1      33.366 -20.615 -20.283  0.00  0.00    +0.099 C 
ENDROOT
BRANCH   3  11
ATOM      7  S   UNL     1      29.058 -22.530 -16.383  0.00  0.00    -0.051 S 
ATOM      8  O   UNL     1      33.392 -23.981 -17.170  0.00  0.00    -0.268 OA
ATOM      9  N   UNL     1      31.496 -22.602 -17.343  0.00  0.00    -0.259 N 
ATOM     10  N   UNL     1      30.805 -24.357 -15.843  0.00  0.00    -0.222 NA
ATOM     11  C   UNL     1      32.814 -22.982 -17.623  0.00  0.00    +0.270 C 
ATOM     12  C   UNL     1      30.590 -23.265 -16.509  0.00  0.00    +0.166 C 
ATOM     13  C   UNL     1      28.596 -23.793 -15.319  0.00  0.00    +0.059 C 
ATOM     14  C   UNL     1      29.650 -24.665 -15.150  0.00  0.00    +0.108 C 
ATOM     15  H   UNL     1      31.173 -21.780 -17.778  0.00  0.00    +0.157 HD
ENDBRANCH   3  11
BRANCH   2  17
ATOM     16  O   UNL     1      36.998 -21.149 -16.594  0.00  0.00    -0.226 OA
ATOM     17  N   UNL     1      35.693 -22.778 -17.652  0.00  0.00    -0.248 N 
ATOM     18  C   UNL     1      36.646 -22.309 -16.769  0.00  0.00    +0.405 C 
ATOM     19  H   UNL     1      35.544 -23.751 -17.651  0.00  0.00    +0.158 HD
BRANCH  18  20
ATOM     20  O   UNL     1      37.171 -23.372 -16.079  0.00  0.00    -0.442 OA
BRANCH  20  21
ATOM     21  C   UNL     1      36.480 -23.752 -14.888  0.00  0.00    +0.138 C 
ATOM     22  C   UNL     1      36.031 -25.205 -15.029  0.00  0.00    +0.044 C 
ATOM     23  C   UNL     1      37.457 -23.602 -13.723  0.00  0.00    +0.044 C 
ATOM     24  C   UNL     1      35.280 -22.825 -14.704  0.00  0.00    +0.044 C 
ENDBRANCH  20  21
ENDBRANCH  18  20
ENDBRANCH   2  17
TORSDOF 4
ENDMDL
MODEL 6
REMARK VINA RESULT:      -8.1      9.274     11.961
REMARK  Name = 11809364
REMARK  4 active torsions:
REMARK  status: ('A' for Active; 'I' for Inactive)
REMARK    1  A    between atoms: C_2  and  N_17
REMARK    2  A    between atoms: C_3  and  C_11
REMARK    3  A    between atoms: C_18  and  O_20
REMARK    4  A    between atoms: O_20  and  C_21
REMARK                            x       y       z     vdW  Elec       q    Type
REMARK                         _______ _______ _______ _____ _____    ______ ____
ROOT
ATOM      1  N   UNL     1      32.696 -13.445 -24.739  0.00  0.00    -0.238 NA
ATOM      2  C   UNL     1      33.514 -15.525 -23.859  0.00  0.00    +0.075 C 
ATOM      3  C   UNL     1      32.951 -14.279 -23.706  0.00  0.00    +0.148 C 
ATOM      4  C   UNL     1      33.842 -15.965 -25.127  0.00  0.00    +0.018 C 
ATOM      5  C   UNL     1      33.595 -15.136 -26.215  0.00  0.00    +0.022 C 
ATOM      6  C   UNL     1      33.025 -13.897 -25.971  0.00  0.00    +0.099 C 
ENDROOT
BRANCH   3  11
ATOM      7  S   UNL     1      31.846  -9.947 -21.491  0.00  0.00    -0.051 S 
ATOM      8  O   UNL     1      32.447 -14.546 -21.454  0.00  0.00    -0.268 OA
ATOM      9  N   UNL     1      32.382 -12.369 -22.339  0.00  0.00    -0.259 N 
ATOM     10  N   UNL     1      31.757 -12.077 -20.030  0.00  0.00    -0.222 NA
ATOM     11  C   UNL     1      32.581 -13.753 -22.398  0.00  0.00    +0.270 C 
ATOM     12  C   UNL     1      31.999 -11.623 -21.220  0.00  0.00    +0.166 C 
ATOM     13  C   UNL     1      31.404  -9.772 -19.843  0.00  0.00    +0.059 C 
ATOM     14  C   UNL     1      31.413 -11.006 -19.229  0.00  0.00    +0.108 C 
ATOM     15  H   UNL     1      32.527 -11.867 -23.174  0.00  0.00    +0.157 HD
ENDBRANCH   3  11
BRANCH   2  17
ATOM     16  O   UNL     1      36.070 -16.745 -22.856  0.00  0.00    -0.226 OA
ATOM     17  N   UNL     1      33.763 -16.363 -22.748  0.00  0.00    -0.248 N 
ATOM     18  C   UNL     1      34.970 -16.895 -22.337  0.00  0.00    +0.405 C 
ATOM     19  H   UNL     1      32.980 -16.596 -22.199  0.00  0.00    +0.158 HD
BRANCH  18  20
ATOM     20  O   UNL     1      34.761 -17.651 -21.213  0.00  0.00    -0.442 OA
BRANCH  20  21
ATOM     21  C   UNL     1      34.715 -19.066 -21.405  0.00  0.00    +0.138 C 
ATOM     22  C   UNL     1      34.741 -19.354 -22.905  0.00  0.00    +0.044 C 
ATOM     23  C   UNL     1      35.945 -19.662 -20.722  0.00  0.00    +0.044 C 
ATOM     24  C   UNL     1      33.435 -19.603 -20.768  0.00  0.00    +0.044 C 
ENDBRANCH  20  21
ENDBRANCH  18  20
ENDBRANCH   2  17
TORSDOF 4
ENDMDL
MODEL 7
REMARK VINA RESULT:      -7.9      2.199      4.878
REMARK  Name = 11809364
REMARK  4 active torsions:
REMARK  status: ('A' for Active; 'I' for Inactive)
REMARK    1  A    between atoms: C_2  and  N_17
REMARK    2  A    between atoms: C_3  and  C_11
REMARK    3  A    between atoms: C_18  and  O_20
REMARK    4  A    between atoms: O_20  and  C_21
REMARK                            x       y       z     vdW  Elec       q    Type
REMARK                         _______ _______ _______ _____ _____    ______ ____
ROOT
ATOM      1  N   UNL     1      36.719 -24.589 -14.315  0.00  0.00    -0.238 NA
ATOM      2  C   UNL     1      34.562 -24.008 -13.431  0.00  0.00    +0.075 C 
ATOM      3  C   UNL     1      35.461 -24.117 -14.467  0.00  0.00    +0.148 C 
ATOM      4  C   UNL     1      34.946 -24.397 -12.162  0.00  0.00    +0.018 C 
ATOM      5  C   UNL     1      36.232 -24.887 -11.965  0.00  0.00    +0.022 C 
ATOM      6  C   UNL     1      37.072 -24.963 -13.064  0.00  0.00    +0.099 C 
ENDROOT
BRANCH   3  11
ATOM      7  S   UNL     1      37.024 -21.041 -18.071  0.00  0.00    -0.051 S 
ATOM      8  O   UNL     1      34.165 -24.283 -16.388  0.00  0.00    -0.268 OA
ATOM      9  N   UNL     1      35.947 -22.751 -16.400  0.00  0.00    -0.259 N 
ATOM     10  N   UNL     1      34.986 -22.542 -18.599  0.00  0.00    -0.222 NA
ATOM     11  C   UNL     1      35.121 -23.726 -15.829  0.00  0.00    +0.270 C 
ATOM     12  C   UNL     1      35.856 -22.223 -17.692  0.00  0.00    +0.166 C 
ATOM     13  C   UNL     1      36.318 -20.916 -19.629  0.00  0.00    +0.059 C 
ATOM     14  C   UNL     1      35.251 -21.785 -19.725  0.00  0.00    +0.108 C 
ATOM     15  H   UNL     1      36.670 -22.398 -15.831  0.00  0.00    +0.157 HD
ENDBRANCH   3  11
BRANCH   2  17
ATOM     16  O   UNL     1      31.952 -25.441 -13.834  0.00  0.00    -0.226 OA
ATOM     17  N   UNL     1      33.256 -23.507 -13.638  0.00  0.00    -0.248 N 
ATOM     18  C   UNL     1      32.089 -24.224 -13.818  0.00  0.00    +0.405 C 
ATOM     19  H   UNL     1      33.168 -22.526 -13.656  0.00  0.00    +0.158 HD
BRANCH  18  20
ATOM     20  O   UNL     1      31.051 -23.343 -13.985  0.00  0.00    -0.442 OA
BRANCH  20  21
ATOM     21  C   UNL     1      30.367 -23.405 -15.238  0.00  0.00    +0.138 C 
ATOM     22  C   UNL     1      31.345 -23.014 -16.344  0.00  0.00    +0.044 C 
ATOM     23  C   UNL     1      29.888 -24.843 -15.429  0.00  0.00    +0.044 C 
ATOM     24  C   UNL     1      29.180 -22.445 -15.193  0.00  0.00    +0.044 C 
ENDBRANCH  20  21
ENDBRANCH  18  20
ENDBRANCH   2  17
TORSDOF 4
ENDMDL
MODEL 8
REMARK VINA RESULT:      -7.8      2.811      6.671
REMARK  Name = 11809364
REMARK  4 active torsions:
REMARK  status: ('A' for Active; 'I' for Inactive)
REMARK    1  A    between atoms: C_2  and  N_17
REMARK    2  A    between atoms: C_3  and  C_11
REMARK    3  A    between atoms: C_18  and  O_20
REMARK    4  A    between atoms: O_20  and  C_21
REMARK                            x       y       z     vdW  Elec       q    Type
REMARK                         _______ _______ _______ _____ _____    ______ ____
ROOT
ATOM      1  N   UNL     1      32.486 -23.249 -16.190  0.00  0.00    -0.238 NA
ATOM      2  C   UNL     1      34.432 -24.085 -15.056  0.00  0.00    +0.075 C 
ATOM      3  C   UNL     1      33.826 -23.400 -16.083  0.00  0.00    +0.148 C 
ATOM      4  C   UNL     1      33.648 -24.656 -14.072  0.00  0.00    +0.018 C 
ATOM      5  C   UNL     1      32.267 -24.523 -14.146  0.00  0.00    +0.022 C 
ATOM      6  C   UNL     1      31.740 -23.816 -15.215  0.00  0.00    +0.099 C 
ENDROOT
BRANCH   3  11
ATOM      7  S   UNL     1      33.130 -20.695 -20.218  0.00  0.00    -0.051 S 
ATOM      8  O   UNL     1      35.830 -22.853 -17.124  0.00  0.00    -0.268 OA
ATOM      9  N   UNL     1      33.838 -22.101 -18.121  0.00  0.00    -0.259 N 
ATOM     10  N   UNL     1      35.569 -21.243 -19.561  0.00  0.00    -0.222 NA
ATOM     11  C   UNL     1      34.592 -22.774 -17.153  0.00  0.00    +0.270 C 
ATOM     12  C   UNL     1      34.325 -21.400 -19.229  0.00  0.00    +0.166 C 
ATOM     13  C   UNL     1      34.385 -20.098 -21.222  0.00  0.00    +0.059 C 
ATOM     14  C   UNL     1      35.607 -20.489 -20.718  0.00  0.00    +0.108 C 
ATOM     15  H   UNL     1      32.859 -22.125 -18.012  0.00  0.00    +0.157 HD
ENDBRANCH   3  11
BRANCH   2  17
ATOM     16  O   UNL     1      36.401 -23.074 -13.024  0.00  0.00    -0.226 OA
ATOM     17  N   UNL     1      35.838 -24.218 -14.987  0.00  0.00    -0.248 N 
ATOM     18  C   UNL     1      36.692 -23.726 -14.019  0.00  0.00    +0.405 C 
ATOM     19  H   UNL     1      36.260 -24.723 -15.719  0.00  0.00    +0.158 HD
BRANCH  18  20
ATOM     20  O   UNL     1      37.977 -24.083 -14.339  0.00  0.00    -0.442 OA
BRANCH  20  21
ATOM     21  C   UNL     1      38.393 -25.383 -13.916  0.00  0.00    +0.138 C 
ATOM     22  C   UNL     1      37.696 -26.425 -14.789  0.00  0.00    +0.044 C 
ATOM     23  C   UNL     1      39.908 -25.460 -14.093  0.00  0.00    +0.044 C 
ATOM     24  C   UNL     1      38.014 -25.560 -12.446  0.00  0.00    +0.044 C 
ENDBRANCH  20  21
ENDBRANCH  18  20
ENDBRANCH   2  17
TORSDOF 4
ENDMDL
MODEL 9
REMARK VINA RESULT:      -7.8      3.159      6.600
REMARK  Name = 11809364
REMARK  4 active torsions:
REMARK  status: ('A' for Active; 'I' for Inactive)
REMARK    1  A    between atoms: C_2  and  N_17
REMARK    2  A    between atoms: C_3  and  C_11
REMARK    3  A    between atoms: C_18  and  O_20
REMARK    4  A    between atoms: O_20  and  C_21
REMARK                            x       y       z     vdW  Elec       q    Type
REMARK                         _______ _______ _______ _____ _____    ______ ____
ROOT
ATOM      1  N   UNL     1      35.201 -23.098 -15.644  0.00  0.00    -0.238 NA
ATOM      2  C   UNL     1      35.753 -22.195 -17.800  0.00  0.00    +0.075 C 
ATOM      3  C   UNL     1      34.856 -22.704 -16.890  0.00  0.00    +0.148 C 
ATOM      4  C   UNL     1      37.081 -22.070 -17.439  0.00  0.00    +0.018 C 
ATOM      5  C   UNL     1      37.475 -22.464 -16.166  0.00  0.00    +0.022 C 
ATOM      6  C   UNL     1      36.506 -22.967 -15.313  0.00  0.00    +0.099 C 
ENDROOT
BRANCH   3  11
ATOM      7  S   UNL     1      30.443 -23.107 -14.597  0.00  0.00    -0.051 S 
ATOM      8  O   UNL     1      33.097 -22.902 -18.396  0.00  0.00    -0.268 OA
ATOM      9  N   UNL     1      32.582 -22.929 -16.102  0.00  0.00    -0.259 N 
ATOM     10  N   UNL     1      30.437 -23.126 -17.182  0.00  0.00    -0.222 NA
ATOM     11  C   UNL     1      33.442 -22.862 -17.205  0.00  0.00    +0.270 C 
ATOM     12  C   UNL     1      31.189 -23.052 -16.128  0.00  0.00    +0.166 C 
ATOM     13  C   UNL     1      28.931 -23.246 -15.396  0.00  0.00    +0.059 C 
ATOM     14  C   UNL     1      29.127 -23.240 -16.761  0.00  0.00    +0.108 C 
ATOM     15  H   UNL     1      33.003 -22.885 -15.213  0.00  0.00    +0.157 HD
ENDBRANCH   3  11
BRANCH   2  17
ATOM     16  O   UNL     1      36.804 -20.041 -19.613  0.00  0.00    -0.226 OA
ATOM     17  N   UNL     1      35.345 -21.797 -19.094  0.00  0.00    -0.248 N 
ATOM     18  C   UNL     1      35.873 -20.791 -19.880  0.00  0.00    +0.405 C 
ATOM     19  H   UNL     1      34.592 -22.298 -19.482  0.00  0.00    +0.158 HD
BRANCH  18  20
ATOM     20  O   UNL     1      35.179 -20.743 -21.062  0.00  0.00    -0.442 OA
BRANCH  20  21
ATOM     21  C   UNL     1      34.584 -19.487 -21.393  0.00  0.00    +0.138 C 
ATOM     22  C   UNL     1      34.501 -19.374 -22.914  0.00  0.00    +0.044 C 
ATOM     23  C   UNL     1      33.187 -19.465 -20.775  0.00  0.00    +0.044 C 
ATOM     24  C   UNL     1      35.448 -18.371 -20.809  0.00  0.00    +0.044 C 
ENDBRANCH  20  21
ENDBRANCH  18  20
ENDBRANCH   2  17
TORSDOF 4
ENDMDL
