MODEL 1
REMARK VINA RESULT:      -9.5      0.000      0.000
REMARK  Name = 13308
REMARK  1 active torsions:
REMARK  status: ('A' for Active; 'I' for Inactive)
REMARK    1  A    between atoms: C_7  and  O_21
REMARK                            x       y       z     vdW  Elec       q    Type
REMARK                         _______ _______ _______ _____ _____    ______ ____
ROOT
ATOM      1  O   UNL     1      33.806 -18.688 -21.368  0.00  0.00    -0.287 OA
ATOM      2  C   UNL     1      35.774 -22.735 -15.468  0.00  0.00    +0.002 C 
ATOM      3  C   UNL     1      34.747 -23.736 -14.904  0.00  0.00    +0.025 C 
ATOM      4  C   UNL     1      35.785 -22.700 -16.999  0.00  0.00    +0.001 C 
ATOM      5  C   UNL     1      34.364 -22.271 -17.504  0.00  0.00    +0.007 C 
ATOM      6  C   UNL     1      33.351 -23.281 -15.343  0.00  0.00    +0.002 C 
ATOM      7  C   UNL     1      35.037 -23.571 -13.400  0.00  0.00    +0.110 C 
ATOM      8  C   UNL     1      33.248 -23.156 -16.874  0.00  0.00    +0.001 C 
ATOM      9  C   UNL     1      37.059 -23.084 -14.722  0.00  0.00    +0.003 C 
ATOM     10  C   UNL     1      34.299 -22.160 -19.073  0.00  0.00    +0.034 C 
ATOM     11  C   UNL     1      36.867 -21.749 -17.532  0.00  0.00    +0.004 C 
ATOM     12  C   UNL     1      36.574 -23.502 -13.321  0.00  0.00    +0.029 C 
ATOM     13  C   UNL     1      34.971 -25.205 -15.345  0.00  0.00    +0.002 C 
ATOM     14  C   UNL     1      36.832 -21.652 -19.054  0.00  0.00    +0.022 C 
ATOM     15  C   UNL     1      35.454 -21.260 -19.526  0.00  0.00    -0.038 C 
ATOM     16  C   UNL     1      34.424 -23.534 -19.769  0.00  0.00    +0.008 C 
ATOM     17  C   UNL     1      32.955 -21.590 -19.508  0.00  0.00    -0.020 C 
ATOM     18  C   UNL     1      35.288 -20.147 -20.257  0.00  0.00    +0.034 C 
ATOM     19  C   UNL     1      32.785 -20.481 -20.234  0.00  0.00    +0.038 C 
ATOM     20  C   UNL     1      33.948 -19.692 -20.678  0.00  0.00    +0.195 C 
ENDROOT
BRANCH   7  21
ATOM     21  O   UNL     1      34.502 -24.600 -12.590  0.00  0.00    -0.384 OA
ATOM     22  H   UNL     1      34.411 -25.411 -13.115  0.00  0.00    +0.210 HD
ENDBRANCH   7  21
TORSDOF 1
ENDMDL
MODEL 2
REMARK VINA RESULT:      -9.3      3.492      6.255
REMARK  Name = 13308
REMARK  1 active torsions:
REMARK  status: ('A' for Active; 'I' for Inactive)
REMARK    1  A    between atoms: C_7  and  O_21
REMARK                            x       y       z     vdW  Elec       q    Type
REMARK                         _______ _______ _______ _____ _____    ______ ____
ROOT
ATOM      1  O   UNL     1      39.576 -26.526 -14.613  0.00  0.00    -0.287 OA
ATOM      2  C   UNL     1      32.875 -23.595 -15.866  0.00  0.00    +0.002 C 
ATOM      3  C   UNL     1      31.802 -23.751 -14.770  0.00  0.00    +0.025 C 
ATOM      4  C   UNL     1      34.264 -23.297 -15.293  0.00  0.00    +0.001 C 
ATOM      5  C   UNL     1      34.691 -24.485 -14.363  0.00  0.00    +0.007 C 
ATOM      6  C   UNL     1      32.186 -24.952 -13.898  0.00  0.00    +0.002 C 
ATOM      7  C   UNL     1      30.564 -23.967 -15.660  0.00  0.00    +0.110 C 
ATOM      8  C   UNL     1      33.596 -24.795 -13.302  0.00  0.00    +0.001 C 
ATOM      9  C   UNL     1      32.244 -22.607 -16.843  0.00  0.00    +0.003 C 
ATOM     10  C   UNL     1      36.136 -24.285 -13.770  0.00  0.00    +0.034 C 
ATOM     11  C   UNL     1      35.296 -23.076 -16.410  0.00  0.00    +0.004 C 
ATOM     12  C   UNL     1      30.744 -22.951 -16.804  0.00  0.00    +0.029 C 
ATOM     13  C   UNL     1      31.616 -22.502 -13.870  0.00  0.00    +0.002 C 
ATOM     14  C   UNL     1      36.696 -22.854 -15.848  0.00  0.00    +0.022 C 
ATOM     15  C   UNL     1      37.085 -23.993 -14.938  0.00  0.00    -0.038 C 
ATOM     16  C   UNL     1      36.204 -23.118 -12.759  0.00  0.00    +0.008 C 
ATOM     17  C   UNL     1      36.571 -25.529 -13.006  0.00  0.00    -0.020 C 
ATOM     18  C   UNL     1      38.182 -24.718 -15.205  0.00  0.00    +0.034 C 
ATOM     19  C   UNL     1      37.661 -26.255 -13.269  0.00  0.00    +0.038 C 
ATOM     20  C   UNL     1      38.558 -25.883 -14.379  0.00  0.00    +0.195 C 
ENDROOT
BRANCH   7  21
ATOM     21  O   UNL     1      29.331 -23.809 -14.987  0.00  0.00    -0.384 OA
ATOM     22  H   UNL     1      29.057 -22.879 -15.028  0.00  0.00    +0.210 HD
ENDBRANCH   7  21
TORSDOF 1
ENDMDL
MODEL 3
REMARK VINA RESULT:      -8.3      6.615     10.016
REMARK  Name = 13308
REMARK  1 active torsions:
REMARK  status: ('A' for Active; 'I' for Inactive)
REMARK    1  A    between atoms: C_7  and  O_21
REMARK                            x       y       z     vdW  Elec       q    Type
REMARK                         _______ _______ _______ _____ _____    ______ ____
ROOT
ATOM      1  O   UNL     1      34.792 -10.221 -26.190  0.00  0.00    -0.287 OA
ATOM      2  C   UNL     1      34.710 -17.103 -23.416  0.00  0.00    +0.002 C 
ATOM      3  C   UNL     1      34.600 -17.264 -21.888  0.00  0.00    +0.025 C 
ATOM      4  C   UNL     1      33.819 -15.980 -23.957  0.00  0.00    +0.001 C 
ATOM      5  C   UNL     1      34.256 -14.627 -23.295  0.00  0.00    +0.007 C 
ATOM      6  C   UNL     1      35.088 -15.964 -21.238  0.00  0.00    +0.002 C 
ATOM      7  C   UNL     1      35.535 -18.473 -21.696  0.00  0.00    +0.110 C 
ATOM      8  C   UNL     1      34.298 -14.743 -21.744  0.00  0.00    +0.001 C 
ATOM      9  C   UNL     1      34.516 -18.524 -23.939  0.00  0.00    +0.003 C 
ATOM     10  C   UNL     1      33.423 -13.405 -23.835  0.00  0.00    +0.034 C 
ATOM     11  C   UNL     1      33.894 -15.891 -25.488  0.00  0.00    +0.004 C 
ATOM     12  C   UNL     1      35.183 -19.408 -22.868  0.00  0.00    +0.029 C 
ATOM     13  C   UNL     1      33.174 -17.590 -21.375  0.00  0.00    +0.002 C 
ATOM     14  C   UNL     1      33.069 -14.727 -26.027  0.00  0.00    +0.022 C 
ATOM     15  C   UNL     1      33.485 -13.436 -25.366  0.00  0.00    -0.038 C 
ATOM     16  C   UNL     1      31.944 -13.455 -23.387  0.00  0.00    +0.008 C 
ATOM     17  C   UNL     1      33.984 -12.099 -23.288  0.00  0.00    -0.020 C 
ATOM     18  C   UNL     1      33.929 -12.414 -26.114  0.00  0.00    +0.034 C 
ATOM     19  C   UNL     1      34.429 -11.080 -24.028  0.00  0.00    +0.038 C 
ATOM     20  C   UNL     1      34.411 -11.161 -25.500  0.00  0.00    +0.195 C 
ENDROOT
BRANCH   7  21
ATOM     21  O   UNL     1      35.407 -19.111 -20.440  0.00  0.00    -0.384 OA
ATOM     22  H   UNL     1      34.776 -18.620 -19.891  0.00  0.00    +0.210 HD
ENDBRANCH   7  21
TORSDOF 1
ENDMDL
MODEL 4
REMARK VINA RESULT:      -8.0     14.155     18.555
REMARK  Name = 13308
REMARK  1 active torsions:
REMARK  status: ('A' for Active; 'I' for Inactive)
REMARK    1  A    between atoms: C_7  and  O_21
REMARK                            x       y       z     vdW  Elec       q    Type
REMARK                         _______ _______ _______ _____ _____    ______ ____
ROOT
ATOM      1  O   UNL     1      32.791 -11.835 -23.236  0.00  0.00    -0.287 OA
ATOM      2  C   UNL     1      32.850  -4.914 -25.910  0.00  0.00    +0.002 C 
ATOM      3  C   UNL     1      31.712  -3.965 -25.484  0.00  0.00    +0.025 C 
ATOM      4  C   UNL     1      33.344  -5.796 -24.759  0.00  0.00    +0.001 C 
ATOM      5  C   UNL     1      32.150  -6.673 -24.247  0.00  0.00    +0.007 C 
ATOM      6  C   UNL     1      30.520  -4.823 -25.044  0.00  0.00    +0.002 C 
ATOM      7  C   UNL     1      31.508  -3.208 -26.809  0.00  0.00    +0.110 C 
ATOM      8  C   UNL     1      30.906  -5.798 -23.916  0.00  0.00    +0.001 C 
ATOM      9  C   UNL     1      33.837  -3.990 -26.617  0.00  0.00    +0.003 C 
ATOM     10  C   UNL     1      32.584  -7.652 -23.093  0.00  0.00    +0.034 C 
ATOM     11  C   UNL     1      34.525  -6.677 -25.195  0.00  0.00    +0.004 C 
ATOM     12  C   UNL     1      32.940  -2.952 -27.318  0.00  0.00    +0.029 C 
ATOM     13  C   UNL     1      32.086  -2.982 -24.345  0.00  0.00    +0.002 C 
ATOM     14  C   UNL     1      34.973  -7.612 -24.076  0.00  0.00    +0.022 C 
ATOM     15  C   UNL     1      33.810  -8.434 -23.579  0.00  0.00    -0.038 C 
ATOM     16  C   UNL     1      32.943  -6.905 -21.789  0.00  0.00    +0.008 C 
ATOM     17  C   UNL     1      31.439  -8.591 -22.737  0.00  0.00    -0.020 C 
ATOM     18  C   UNL     1      33.867  -9.773 -23.627  0.00  0.00    +0.034 C 
ATOM     19  C   UNL     1      31.490  -9.925 -22.785  0.00  0.00    +0.038 C 
ATOM     20  C   UNL     1      32.723 -10.611 -23.214  0.00  0.00    +0.195 C 
ENDROOT
BRANCH   7  21
ATOM     21  O   UNL     1      30.759  -2.014 -26.686  0.00  0.00    -0.384 OA
ATOM     22  H   UNL     1      30.341  -1.806 -27.535  0.00  0.00    +0.210 HD
ENDBRANCH   7  21
TORSDOF 1
ENDMDL
MODEL 5
REMARK VINA RESULT:      -7.8     15.535     19.794
REMARK  Name = 13308
REMARK  1 active torsions:
REMARK  status: ('A' for Active; 'I' for Inactive)
REMARK    1  A    between atoms: C_7  and  O_21
REMARK                            x       y       z     vdW  Elec       q    Type
REMARK                         _______ _______ _______ _____ _____    ______ ____
ROOT
ATOM      1  O   UNL     1      32.658  -7.317 -19.482  0.00  0.00    -0.287 OA
ATOM      2  C   UNL     1      32.952  -3.474 -25.823  0.00  0.00    +0.002 C 
ATOM      3  C   UNL     1      33.614  -4.144 -27.043  0.00  0.00    +0.025 C 
ATOM      4  C   UNL     1      32.094  -4.447 -25.009  0.00  0.00    +0.001 C 
ATOM      5  C   UNL     1      33.007  -5.609 -24.487  0.00  0.00    +0.007 C 
ATOM      6  C   UNL     1      34.556  -5.238 -26.530  0.00  0.00    +0.002 C 
ATOM      7  C   UNL     1      34.319  -2.917 -27.651  0.00  0.00    +0.110 C 
ATOM      8  C   UNL     1      33.816  -6.259 -25.647  0.00  0.00    +0.001 C 
ATOM      9  C   UNL     1      32.306  -2.222 -26.411  0.00  0.00    +0.003 C 
ATOM     10  C   UNL     1      32.213  -6.633 -23.593  0.00  0.00    +0.034 C 
ATOM     11  C   UNL     1      31.391  -3.736 -23.843  0.00  0.00    +0.004 C 
ATOM     12  C   UNL     1      33.281  -1.786 -27.520  0.00  0.00    +0.029 C 
ATOM     13  C   UNL     1      32.617  -4.759 -28.059  0.00  0.00    +0.002 C 
ATOM     14  C   UNL     1      30.595  -4.713 -22.984  0.00  0.00    +0.022 C 
ATOM     15  C   UNL     1      31.480  -5.837 -22.507  0.00  0.00    -0.038 C 
ATOM     16  C   UNL     1      31.181  -7.450 -24.404  0.00  0.00    +0.008 C 
ATOM     17  C   UNL     1      33.165  -7.651 -22.980  0.00  0.00    -0.020 C 
ATOM     18  C   UNL     1      31.632  -6.058 -21.192  0.00  0.00    +0.034 C 
ATOM     19  C   UNL     1      33.321  -7.874 -21.672  0.00  0.00    +0.038 C 
ATOM     20  C   UNL     1      32.544  -7.103 -20.685  0.00  0.00    +0.195 C 
ENDROOT
BRANCH   7  21
ATOM     21  O   UNL     1      34.753  -3.098 -28.984  0.00  0.00    -0.384 OA
ATOM     22  H   UNL     1      34.013  -3.418 -29.524  0.00  0.00    +0.210 HD
ENDBRANCH   7  21
TORSDOF 1
ENDMDL
MODEL 6
REMARK VINA RESULT:      -7.5      9.518     13.974
REMARK  Name = 13308
REMARK  1 active torsions:
REMARK  status: ('A' for Active; 'I' for Inactive)
REMARK    1  A    between atoms: C_7  and  O_21
REMARK                            x       y       z     vdW  Elec       q    Type
REMARK                         _______ _______ _______ _____ _____    ______ ____
ROOT
ATOM      1  O   UNL     1      34.642 -15.860 -20.633  0.00  0.00    -0.287 OA
ATOM      2  C   UNL     1      32.558  -8.872 -22.005  0.00  0.00    +0.002 C 
ATOM      3  C   UNL     1      32.822  -8.303 -23.412  0.00  0.00    +0.025 C 
ATOM      4  C   UNL     1      32.086 -10.329 -22.036  0.00  0.00    +0.001 C 
ATOM      5  C   UNL     1      33.197 -11.204 -22.711  0.00  0.00    +0.007 C 
ATOM      6  C   UNL     1      33.953  -9.118 -24.049  0.00  0.00    +0.002 C 
ATOM      7  C   UNL     1      33.201  -6.859 -23.032  0.00  0.00    +0.110 C 
ATOM      8  C   UNL     1      33.618 -10.620 -24.091  0.00  0.00    +0.001 C 
ATOM      9  C   UNL     1      31.670  -7.815 -21.354  0.00  0.00    +0.003 C 
ATOM     10  C   UNL     1      32.815 -12.732 -22.739  0.00  0.00    +0.034 C 
ATOM     11  C   UNL     1      31.761 -10.845 -20.626  0.00  0.00    +0.004 C 
ATOM     12  C   UNL     1      32.190  -6.485 -21.931  0.00  0.00    +0.029 C 
ATOM     13  C   UNL     1      31.589  -8.314 -24.353  0.00  0.00    +0.002 C 
ATOM     14  C   UNL     1      31.364 -12.317 -20.642  0.00  0.00    +0.022 C 
ATOM     15  C   UNL     1      32.431 -13.144 -21.314  0.00  0.00    -0.038 C 
ATOM     16  C   UNL     1      31.631 -13.027 -23.688  0.00  0.00    +0.008 C 
ATOM     17  C   UNL     1      33.984 -13.560 -23.256  0.00  0.00    -0.020 C 
ATOM     18  C   UNL     1      33.024 -14.144 -20.643  0.00  0.00    +0.034 C 
ATOM     19  C   UNL     1      34.578 -14.555 -22.592  0.00  0.00    +0.038 C 
ATOM     20  C   UNL     1      34.121 -14.931 -21.242  0.00  0.00    +0.195 C 
ENDROOT
BRANCH   7  21
ATOM     21  O   UNL     1      33.180  -5.950 -24.114  0.00  0.00    -0.384 OA
ATOM     22  H   UNL     1      32.413  -6.136 -24.679  0.00  0.00    +0.210 HD
ENDBRANCH   7  21
TORSDOF 1
ENDMDL
MODEL 7
REMARK VINA RESULT:      -7.1     10.762     14.529
REMARK  Name = 13308
REMARK  1 active torsions:
REMARK  status: ('A' for Active; 'I' for Inactive)
REMARK    1  A    between atoms: C_7  and  O_21
REMARK                            x       y       z     vdW  Elec       q    Type
REMARK                         _______ _______ _______ _____ _____    ______ ____
ROOT
ATOM      1  O   UNL     1      30.428  -4.536 -23.107  0.00  0.00    -0.287 OA
ATOM      2  C   UNL     1      32.198 -11.706 -22.382  0.00  0.00    +0.002 C 
ATOM      3  C   UNL     1      33.085 -12.344 -23.469  0.00  0.00    +0.025 C 
ATOM      4  C   UNL     1      32.639 -10.284 -22.021  0.00  0.00    +0.001 C 
ATOM      5  C   UNL     1      32.551  -9.388 -23.305  0.00  0.00    +0.007 C 
ATOM      6  C   UNL     1      32.949 -11.505 -24.745  0.00  0.00    +0.002 C 
ATOM      7  C   UNL     1      32.430 -13.737 -23.540  0.00  0.00    +0.110 C 
ATOM      8  C   UNL     1      33.317 -10.030 -24.498  0.00  0.00    +0.001 C 
ATOM      9  C   UNL     1      32.151 -12.771 -21.290  0.00  0.00    +0.003 C 
ATOM     10  C   UNL     1      32.939  -7.890 -23.012  0.00  0.00    +0.034 C 
ATOM     11  C   UNL     1      31.783  -9.701 -20.886  0.00  0.00    +0.004 C 
ATOM     12  C   UNL     1      32.166 -14.101 -22.066  0.00  0.00    +0.029 C 
ATOM     13  C   UNL     1      34.583 -12.463 -23.090  0.00  0.00    +0.002 C 
ATOM     14  C   UNL     1      32.167  -8.259 -20.574  0.00  0.00    +0.022 C 
ATOM     15  C   UNL     1      32.099  -7.414 -21.821  0.00  0.00    -0.038 C 
ATOM     16  C   UNL     1      34.438  -7.723 -22.673  0.00  0.00    +0.008 C 
ATOM     17  C   UNL     1      32.688  -7.028 -24.242  0.00  0.00    -0.020 C 
ATOM     18  C   UNL     1      31.293  -6.341 -21.860  0.00  0.00    +0.034 C 
ATOM     19  C   UNL     1      31.886  -5.961 -24.287  0.00  0.00    +0.038 C 
ATOM     20  C   UNL     1      31.147  -5.530 -23.086  0.00  0.00    +0.195 C 
ENDROOT
BRANCH   7  21
ATOM     21  O   UNL     1      33.211 -14.711 -24.204  0.00  0.00    -0.384 OA
ATOM     22  H   UNL     1      34.151 -14.547 -24.028  0.00  0.00    +0.210 HD
ENDBRANCH   7  21
TORSDOF 1
ENDMDL
MODEL 8
REMARK VINA RESULT:      -7.1      3.166      4.844
REMARK  Name = 13308
REMARK  1 active torsions:
REMARK  status: ('A' for Active; 'I' for Inactive)
REMARK    1  A    between atoms: C_7  and  O_21
REMARK                            x       y       z     vdW  Elec       q    Type
REMARK                         _______ _______ _______ _____ _____    ______ ____
ROOT
ATOM      1  O   UNL     1      27.988 -21.696 -15.439  0.00  0.00    -0.287 OA
ATOM      2  C   UNL     1      35.282 -23.050 -15.280  0.00  0.00    +0.002 C 
ATOM      3  C   UNL     1      35.844 -23.841 -14.082  0.00  0.00    +0.025 C 
ATOM      4  C   UNL     1      33.937 -23.596 -15.768  0.00  0.00    +0.001 C 
ATOM      5  C   UNL     1      32.899 -23.501 -14.596  0.00  0.00    +0.007 C 
ATOM      6  C   UNL     1      34.861 -23.695 -12.915  0.00  0.00    +0.002 C 
ATOM      7  C   UNL     1      37.181 -23.098 -13.898  0.00  0.00    +0.110 C 
ATOM      8  C   UNL     1      33.447 -24.166 -13.300  0.00  0.00    +0.001 C 
ATOM      9  C   UNL     1      36.459 -22.991 -16.251  0.00  0.00    +0.003 C 
ATOM     10  C   UNL     1      31.468 -23.995 -15.028  0.00  0.00    +0.034 C 
ATOM     11  C   UNL     1      33.438 -22.835 -17.006  0.00  0.00    +0.004 C 
ATOM     12  C   UNL     1      37.692 -22.885 -15.335  0.00  0.00    +0.029 C 
ATOM     13  C   UNL     1      36.089 -25.346 -14.362  0.00  0.00    +0.002 C 
ATOM     14  C   UNL     1      32.063 -23.323 -17.451  0.00  0.00    +0.022 C 
ATOM     15  C   UNL     1      31.081 -23.247 -16.309  0.00  0.00    -0.038 C 
ATOM     16  C   UNL     1      31.425 -25.516 -15.299  0.00  0.00    +0.008 C 
ATOM     17  C   UNL     1      30.461 -23.738 -13.915  0.00  0.00    -0.020 C 
ATOM     18  C   UNL     1      29.968 -22.508 -16.432  0.00  0.00    +0.034 C 
ATOM     19  C   UNL     1      29.352 -23.002 -14.032  0.00  0.00    +0.038 C 
ATOM     20  C   UNL     1      29.017 -22.352 -15.312  0.00  0.00    +0.195 C 
ENDROOT
BRANCH   7  21
ATOM     21  O   UNL     1      38.117 -23.784 -13.089  0.00  0.00    -0.384 OA
ATOM     22  H   UNL     1      38.223 -23.313 -12.247  0.00  0.00    +0.210 HD
ENDBRANCH   7  21
TORSDOF 1
ENDMDL
MODEL 9
REMARK VINA RESULT:      -7.0      8.040     11.503
REMARK  Name = 13308
REMARK  1 active torsions:
REMARK  status: ('A' for Active; 'I' for Inactive)
REMARK    1  A    between atoms: C_7  and  O_21
REMARK                            x       y       z     vdW  Elec       q    Type
REMARK                         _______ _______ _______ _____ _____    ______ ____
ROOT
ATOM      1  O   UNL     1      32.685  -7.027 -20.855  0.00  0.00    -0.287 OA
ATOM      2  C   UNL     1      34.071 -14.148 -22.418  0.00  0.00    +0.002 C 
ATOM      3  C   UNL     1      33.614 -15.212 -21.401  0.00  0.00    +0.025 C 
ATOM      4  C   UNL     1      33.047 -13.023 -22.595  0.00  0.00    +0.001 C 
ATOM      5  C   UNL     1      32.834 -12.313 -21.213  0.00  0.00    +0.007 C 
ATOM      6  C   UNL     1      33.468 -14.532 -20.036  0.00  0.00    +0.002 C 
ATOM      7  C   UNL     1      34.799 -16.190 -21.513  0.00  0.00    +0.110 C 
ATOM      8  C   UNL     1      32.494 -13.341 -20.095  0.00  0.00    +0.001 C 
ATOM      9  C   UNL     1      34.490 -14.972 -23.632  0.00  0.00    +0.003 C 
ATOM     10  C   UNL     1      31.830 -11.104 -21.315  0.00  0.00    +0.034 C 
ATOM     11  C   UNL     1      33.496 -12.017 -23.665  0.00  0.00    +0.004 C 
ATOM     12  C   UNL     1      35.092 -16.252 -23.024  0.00  0.00    +0.029 C 
ATOM     13  C   UNL     1      32.285 -15.922 -21.767  0.00  0.00    +0.002 C 
ATOM     14  C   UNL     1      32.518 -10.854 -23.793  0.00  0.00    +0.022 C 
ATOM     15  C   UNL     1      32.306 -10.195 -22.453  0.00  0.00    -0.038 C 
ATOM     16  C   UNL     1      30.382 -11.562 -21.604  0.00  0.00    +0.008 C 
ATOM     17  C   UNL     1      31.775 -10.349 -19.994  0.00  0.00    -0.020 C 
ATOM     18  C   UNL     1      32.583  -8.891 -22.297  0.00  0.00    +0.034 C 
ATOM     19  C   UNL     1      32.051  -9.052 -19.833  0.00  0.00    +0.038 C 
ATOM     20  C   UNL     1      32.455  -8.225 -20.985  0.00  0.00    +0.195 C 
ENDROOT
BRANCH   7  21
ATOM     21  O   UNL     1      34.551 -17.467 -20.959  0.00  0.00    -0.384 OA
ATOM     22  H   UNL     1      33.972 -17.970 -21.552  0.00  0.00    +0.210 HD
ENDBRANCH   7  21
TORSDOF 1
ENDMDL
