MODEL 1
REMARK VINA RESULT:      -9.5      0.000      0.000
REMARK  Name = 1122713
REMARK  5 active torsions:
REMARK  status: ('A' for Active; 'I' for Inactive)
REMARK    1  A    between atoms: C_3  and  C_8
REMARK    2  A    between atoms: C_4  and  C_16
REMARK    3  A    between atoms: C_5  and  C_25
REMARK    4  A    between atoms: C_13  and  O_14
REMARK    5  A    between atoms: C_21  and  O_22
REMARK                            x       y       z     vdW  Elec       q    Type
REMARK                         _______ _______ _______ _____ _____    ______ ____
ROOT
ATOM      1  N   UNL     1      32.602 -23.222 -16.703  0.00  0.00    -0.314 N 
ATOM      2  N   UNL     1      33.077 -24.355 -14.852  0.00  0.00    -0.314 N 
ATOM      3  C   UNL     1      33.963 -23.184 -16.579  0.00  0.00    +0.059 C 
ATOM      4  C   UNL     1      34.228 -23.889 -15.431  0.00  0.00    +0.059 C 
ATOM      5  C   UNL     1      32.115 -23.935 -15.644  0.00  0.00    +0.174 C 
ATOM      6  H   UNL     1      32.072 -22.810 -17.423  0.00  0.00    +0.149 HD
ATOM      7  H   UNL     1      32.990 -24.886 -14.028  0.00  0.00    +0.149 HD
ENDROOT
BRANCH   3   8
ATOM      8  C   UNL     1      34.812 -22.509 -17.528  0.00  0.00    +0.015 C 
ATOM      9  C   UNL     1      36.090 -22.096 -17.151  0.00  0.00    +0.004 C 
ATOM     10  C   UNL     1      34.357 -22.268 -18.825  0.00  0.00    +0.004 C 
ATOM     11  C   UNL     1      36.912 -21.442 -18.070  0.00  0.00    +0.037 C 
ATOM     12  C   UNL     1      35.178 -21.615 -19.743  0.00  0.00    +0.037 C 
ATOM     13  C   UNL     1      36.456 -21.201 -19.366  0.00  0.00    +0.139 C 
BRANCH  13  14
ATOM     14  O   UNL     1      37.257 -20.564 -20.263  0.00  0.00    -0.471 OA
ATOM     15  C   UNL     1      36.777 -19.334 -20.803  0.00  0.00    +0.252 C 
ENDBRANCH  13  14
ENDBRANCH   3   8
BRANCH   4  16
ATOM     16  C   UNL     1      35.534 -24.125 -14.882  0.00  0.00    +0.015 C 
ATOM     17  C   UNL     1      36.279 -25.226 -15.303  0.00  0.00    +0.004 C 
ATOM     18  C   UNL     1      36.057 -23.253 -13.928  0.00  0.00    +0.004 C 
ATOM     19  C   UNL     1      37.548 -25.455 -14.770  0.00  0.00    +0.037 C 
ATOM     20  C   UNL     1      37.325 -23.482 -13.394  0.00  0.00    +0.037 C 
ATOM     21  C   UNL     1      38.070 -24.582 -13.815  0.00  0.00    +0.139 C 
BRANCH  21  22
ATOM     22  O   UNL     1      39.309 -24.805 -13.296  0.00  0.00    -0.471 OA
ATOM     23  C   UNL     1      40.231 -25.533 -14.105  0.00  0.00    +0.252 C 
ENDBRANCH  21  22
ENDBRANCH   4  16
BRANCH   5  25
ATOM     24  S   UNL     1      29.551 -23.187 -16.187  0.00  0.00    -0.087 S 
ATOM     25  C   UNL     1      30.736 -24.180 -15.445  0.00  0.00    +0.044 C 
ATOM     26  C   UNL     1      30.163 -25.177 -14.681  0.00  0.00    +0.006 C 
ATOM     27  C   UNL     1      28.740 -25.125 -14.707  0.00  0.00    +0.007 C 
ATOM     28  C   UNL     1      28.274 -24.090 -15.489  0.00  0.00    +0.035 C 
ENDBRANCH   5  25
TORSDOF 5
ENDMDL
MODEL 2
REMARK VINA RESULT:      -9.3      0.097      5.110
REMARK  Name = 1122713
REMARK  5 active torsions:
REMARK  status: ('A' for Active; 'I' for Inactive)
REMARK    1  A    between atoms: C_3  and  C_8
REMARK    2  A    between atoms: C_4  and  C_16
REMARK    3  A    between atoms: C_5  and  C_25
REMARK    4  A    between atoms: C_13  and  O_14
REMARK    5  A    between atoms: C_21  and  O_22
REMARK                            x       y       z     vdW  Elec       q    Type
REMARK                         _______ _______ _______ _____ _____    ______ ____
ROOT
ATOM      1  N   UNL     1      33.088 -24.281 -14.998  0.00  0.00    -0.314 N 
ATOM      2  N   UNL     1      32.505 -23.173 -16.833  0.00  0.00    -0.314 N 
ATOM      3  C   UNL     1      34.255 -23.834 -15.553  0.00  0.00    +0.059 C 
ATOM      4  C   UNL     1      33.866 -23.155 -16.682  0.00  0.00    +0.059 C 
ATOM      5  C   UNL     1      32.066 -23.860 -15.802  0.00  0.00    +0.174 C 
ATOM      6  H   UNL     1      33.002 -24.810 -14.173  0.00  0.00    +0.149 HD
ATOM      7  H   UNL     1      31.973 -22.763 -17.553  0.00  0.00    +0.149 HD
ENDROOT
BRANCH   3   8
ATOM      8  C   UNL     1      35.546 -24.095 -14.967  0.00  0.00    +0.015 C 
ATOM      9  C   UNL     1      36.263 -25.233 -15.337  0.00  0.00    +0.004 C 
ATOM     10  C   UNL     1      36.079 -23.210 -14.030  0.00  0.00    +0.004 C 
ATOM     11  C   UNL     1      37.513 -25.486 -14.770  0.00  0.00    +0.037 C 
ATOM     12  C   UNL     1      37.327 -23.462 -13.462  0.00  0.00    +0.037 C 
ATOM     13  C   UNL     1      38.045 -24.600 -13.832  0.00  0.00    +0.139 C 
BRANCH  13  14
ATOM     14  O   UNL     1      39.263 -24.847 -13.278  0.00  0.00    -0.471 OA
ATOM     15  C   UNL     1      40.230 -25.498 -14.101  0.00  0.00    +0.252 C 
ENDBRANCH  13  14
ENDBRANCH   3   8
BRANCH   4  16
ATOM     16  C   UNL     1      34.750 -22.499 -17.605  0.00  0.00    +0.015 C 
ATOM     17  C   UNL     1      34.332 -22.247 -18.911  0.00  0.00    +0.004 C 
ATOM     18  C   UNL     1      36.026 -22.116 -17.195  0.00  0.00    +0.004 C 
ATOM     19  C   UNL     1      35.190 -21.611 -19.808  0.00  0.00    +0.037 C 
ATOM     20  C   UNL     1      36.885 -21.479 -18.091  0.00  0.00    +0.037 C 
ATOM     21  C   UNL     1      36.467 -21.227 -19.397  0.00  0.00    +0.139 C 
BRANCH  21  22
ATOM     22  O   UNL     1      37.304 -20.604 -20.272  0.00  0.00    -0.471 OA
ATOM     23  C   UNL     1      36.889 -19.337 -20.778  0.00  0.00    +0.252 C 
ENDBRANCH  21  22
ENDBRANCH   4  16
BRANCH   5  25
ATOM     24  S   UNL     1      29.457 -23.188 -16.220  0.00  0.00    -0.087 S 
ATOM     25  C   UNL     1      30.706 -24.143 -15.534  0.00  0.00    +0.044 C 
ATOM     26  C   UNL     1      30.201 -25.153 -14.740  0.00  0.00    +0.006 C 
ATOM     27  C   UNL     1      28.777 -25.141 -14.695  0.00  0.00    +0.007 C 
ATOM     28  C   UNL     1      28.243 -24.124 -15.456  0.00  0.00    +0.035 C 
ENDBRANCH   5  25
TORSDOF 5
ENDMDL
MODEL 3
REMARK VINA RESULT:      -7.4      2.651      5.952
REMARK  Name = 1122713
REMARK  5 active torsions:
REMARK  status: ('A' for Active; 'I' for Inactive)
REMARK    1  A    between atoms: C_3  and  C_8
REMARK    2  A    between atoms: C_4  and  C_16
REMARK    3  A    between atoms: C_5  and  C_25
REMARK    4  A    between atoms: C_13  and  O_14
REMARK    5  A    between atoms: C_21  and  O_22
REMARK                            x       y       z     vdW  Elec       q    Type
REMARK                         _______ _______ _______ _____ _____    ______ ____
ROOT
ATOM      1  N   UNL     1      33.378 -22.043 -18.187  0.00  0.00    -0.314 N 
ATOM      2  N   UNL     1      35.596 -22.087 -18.082  0.00  0.00    -0.314 N 
ATOM      3  C   UNL     1      33.686 -22.778 -17.076  0.00  0.00    +0.059 C 
ATOM      4  C   UNL     1      35.059 -22.788 -17.036  0.00  0.00    +0.059 C 
ATOM      5  C   UNL     1      34.556 -21.650 -18.758  0.00  0.00    +0.174 C 
ATOM      6  H   UNL     1      32.473 -21.836 -18.515  0.00  0.00    +0.149 HD
ATOM      7  H   UNL     1      36.549 -21.941 -18.284  0.00  0.00    +0.149 HD
ENDROOT
BRANCH   3   8
ATOM      8  C   UNL     1      32.680 -23.357 -16.221  0.00  0.00    +0.015 C 
ATOM      9  C   UNL     1      32.989 -23.681 -14.900  0.00  0.00    +0.004 C 
ATOM     10  C   UNL     1      31.397 -23.595 -16.716  0.00  0.00    +0.004 C 
ATOM     11  C   UNL     1      32.014 -24.242 -14.073  0.00  0.00    +0.037 C 
ATOM     12  C   UNL     1      30.424 -24.155 -15.890  0.00  0.00    +0.037 C 
ATOM     13  C   UNL     1      30.732 -24.480 -14.568  0.00  0.00    +0.139 C 
BRANCH  13  14
ATOM     14  O   UNL     1      29.782 -25.027 -13.762  0.00  0.00    -0.471 OA
ATOM     15  C   UNL     1      28.646 -25.609 -14.400  0.00  0.00    +0.252 C 
ENDBRANCH  13  14
ENDBRANCH   3   8
BRANCH   4  16
ATOM     16  C   UNL     1      35.857 -23.443 -16.037  0.00  0.00    +0.015 C 
ATOM     17  C   UNL     1      35.756 -24.822 -15.857  0.00  0.00    +0.004 C 
ATOM     18  C   UNL     1      36.733 -22.699 -15.248  0.00  0.00    +0.004 C 
ATOM     19  C   UNL     1      36.531 -25.458 -14.888  0.00  0.00    +0.037 C 
ATOM     20  C   UNL     1      37.509 -23.335 -14.278  0.00  0.00    +0.037 C 
ATOM     21  C   UNL     1      37.408 -24.714 -14.098  0.00  0.00    +0.139 C 
BRANCH  21  22
ATOM     22  O   UNL     1      38.166 -25.335 -13.153  0.00  0.00    -0.471 OA
ATOM     23  C   UNL     1      39.504 -25.674 -13.513  0.00  0.00    +0.252 C 
ENDBRANCH  21  22
ENDBRANCH   4  16
BRANCH   5  25
ATOM     24  S   UNL     1      33.197 -20.246 -20.658  0.00  0.00    -0.087 S 
ATOM     25  C   UNL     1      34.622 -20.868 -19.934  0.00  0.00    +0.044 C 
ATOM     26  C   UNL     1      35.753 -20.506 -20.637  0.00  0.00    +0.006 C 
ATOM     27  C   UNL     1      35.446 -19.711 -21.779  0.00  0.00    +0.007 C 
ATOM     28  C   UNL     1      34.092 -19.494 -21.909  0.00  0.00    +0.035 C 
ENDBRANCH   5  25
TORSDOF 5
ENDMDL
MODEL 4
REMARK VINA RESULT:      -7.4      2.653      6.752
REMARK  Name = 1122713
REMARK  5 active torsions:
REMARK  status: ('A' for Active; 'I' for Inactive)
REMARK    1  A    between atoms: C_3  and  C_8
REMARK    2  A    between atoms: C_4  and  C_16
REMARK    3  A    between atoms: C_5  and  C_25
REMARK    4  A    between atoms: C_13  and  O_14
REMARK    5  A    between atoms: C_21  and  O_22
REMARK                            x       y       z     vdW  Elec       q    Type
REMARK                         _______ _______ _______ _____ _____    ______ ____
ROOT
ATOM      1  N   UNL     1      35.438 -22.119 -18.073  0.00  0.00    -0.314 N 
ATOM      2  N   UNL     1      33.229 -21.985 -18.260  0.00  0.00    -0.314 N 
ATOM      3  C   UNL     1      34.930 -22.816 -17.013  0.00  0.00    +0.059 C 
ATOM      4  C   UNL     1      33.567 -22.718 -17.152  0.00  0.00    +0.059 C 
ATOM      5  C   UNL     1      34.380 -21.639 -18.793  0.00  0.00    +0.174 C 
ATOM      6  H   UNL     1      36.392 -21.988 -18.279  0.00  0.00    +0.149 HD
ATOM      7  H   UNL     1      32.326 -21.767 -18.584  0.00  0.00    +0.149 HD
ENDROOT
BRANCH   3   8
ATOM      8  C   UNL     1      35.766 -23.466 -16.035  0.00  0.00    +0.015 C 
ATOM      9  C   UNL     1      35.651 -24.840 -15.821  0.00  0.00    +0.004 C 
ATOM     10  C   UNL     1      36.691 -22.721 -15.303  0.00  0.00    +0.004 C 
ATOM     11  C   UNL     1      36.461 -25.469 -14.874  0.00  0.00    +0.037 C 
ATOM     12  C   UNL     1      37.500 -23.350 -14.357  0.00  0.00    +0.037 C 
ATOM     13  C   UNL     1      37.386 -24.723 -14.141  0.00  0.00    +0.139 C 
BRANCH  13  14
ATOM     14  O   UNL     1      38.175 -25.336 -13.218  0.00  0.00    -0.471 OA
ATOM     15  C   UNL     1      39.499 -25.683 -13.623  0.00  0.00    +0.252 C 
ENDBRANCH  13  14
ENDBRANCH   3   8
BRANCH   4  16
ATOM     16  C   UNL     1      32.596 -23.297 -16.267  0.00  0.00    +0.015 C 
ATOM     17  C   UNL     1      32.889 -23.447 -14.913  0.00  0.00    +0.004 C 
ATOM     18  C   UNL     1      31.359 -23.708 -16.763  0.00  0.00    +0.004 C 
ATOM     19  C   UNL     1      31.946 -24.009 -14.052  0.00  0.00    +0.037 C 
ATOM     20  C   UNL     1      30.415 -24.270 -15.903  0.00  0.00    +0.037 C 
ATOM     21  C   UNL     1      30.708 -24.421 -14.549  0.00  0.00    +0.139 C 
BRANCH  21  22
ATOM     22  O   UNL     1      29.787 -24.968 -13.709  0.00  0.00    -0.471 OA
ATOM     23  C   UNL     1      28.701 -25.673 -14.306  0.00  0.00    +0.252 C 
ENDBRANCH  21  22
ENDBRANCH   4  16
BRANCH   5  25
ATOM     24  S   UNL     1      33.171 -20.153 -20.732  0.00  0.00    -0.087 S 
ATOM     25  C   UNL     1      34.531 -20.865 -19.966  0.00  0.00    +0.044 C 
ATOM     26  C   UNL     1      35.703 -20.578 -20.636  0.00  0.00    +0.006 C 
ATOM     27  C   UNL     1      35.482 -19.768 -21.787  0.00  0.00    +0.007 C 
ATOM     28  C   UNL     1      34.149 -19.463 -21.957  0.00  0.00    +0.035 C 
ENDBRANCH   5  25
TORSDOF 5
ENDMDL
MODEL 5
REMARK VINA RESULT:      -6.6      7.983     12.539
REMARK  Name = 1122713
REMARK  5 active torsions:
REMARK  status: ('A' for Active; 'I' for Inactive)
REMARK    1  A    between atoms: C_3  and  C_8
REMARK    2  A    between atoms: C_4  and  C_16
REMARK    3  A    between atoms: C_5  and  C_25
REMARK    4  A    between atoms: C_13  and  O_14
REMARK    5  A    between atoms: C_21  and  O_22
REMARK                            x       y       z     vdW  Elec       q    Type
REMARK                         _______ _______ _______ _____ _____    ______ ____
ROOT
ATOM      1  N   UNL     1      33.112 -16.114 -20.888  0.00  0.00    -0.314 N 
ATOM      2  N   UNL     1      33.976 -16.675 -22.856  0.00  0.00    -0.314 N 
ATOM      3  C   UNL     1      33.014 -14.999 -21.672  0.00  0.00    +0.059 C 
ATOM      4  C   UNL     1      33.553 -15.372 -22.878  0.00  0.00    +0.059 C 
ATOM      5  C   UNL     1      33.696 -17.094 -21.642  0.00  0.00    +0.174 C 
ATOM      6  H   UNL     1      32.817 -16.195 -19.952  0.00  0.00    +0.149 HD
ATOM      7  H   UNL     1      34.395 -17.184 -23.587  0.00  0.00    +0.149 HD
ENDROOT
BRANCH   3   8
ATOM      8  C   UNL     1      32.443 -13.762 -21.199  0.00  0.00    +0.015 C 
ATOM      9  C   UNL     1      32.536 -13.421 -19.849  0.00  0.00    +0.004 C 
ATOM     10  C   UNL     1      31.796 -12.906 -22.091  0.00  0.00    +0.004 C 
ATOM     11  C   UNL     1      31.983 -12.225 -19.392  0.00  0.00    +0.037 C 
ATOM     12  C   UNL     1      31.243 -11.710 -21.634  0.00  0.00    +0.037 C 
ATOM     13  C   UNL     1      31.335 -11.369 -20.284  0.00  0.00    +0.139 C 
BRANCH  13  14
ATOM     14  O   UNL     1      30.796 -10.203 -19.838  0.00  0.00    -0.471 OA
ATOM     15  C   UNL     1      31.697  -9.128 -19.577  0.00  0.00    +0.252 C 
ENDBRANCH  13  14
ENDBRANCH   3   8
BRANCH   4  16
ATOM     16  C   UNL     1      33.673 -14.527 -24.034  0.00  0.00    +0.015 C 
ATOM     17  C   UNL     1      34.071 -13.199 -23.888  0.00  0.00    +0.004 C 
ATOM     18  C   UNL     1      33.390 -15.036 -25.301  0.00  0.00    +0.004 C 
ATOM     19  C   UNL     1      34.188 -12.378 -25.010  0.00  0.00    +0.037 C 
ATOM     20  C   UNL     1      33.507 -14.216 -26.424  0.00  0.00    +0.037 C 
ATOM     21  C   UNL     1      33.905 -12.888 -26.278  0.00  0.00    +0.139 C 
BRANCH  21  22
ATOM     22  O   UNL     1      34.021 -12.087 -27.373  0.00  0.00    -0.471 OA
ATOM     23  C   UNL     1      35.209 -11.306 -27.485  0.00  0.00    +0.252 C 
ENDBRANCH  21  22
ENDBRANCH   4  16
BRANCH   5  25
ATOM     24  S   UNL     1      35.560 -18.996 -21.061  0.00  0.00    -0.087 S 
ATOM     25  C   UNL     1      33.956 -18.394 -21.151  0.00  0.00    +0.044 C 
ATOM     26  C   UNL     1      33.036 -19.320 -20.701  0.00  0.00    +0.006 C 
ATOM     27  C   UNL     1      33.654 -20.532 -20.279  0.00  0.00    +0.007 C 
ATOM     28  C   UNL     1      35.024 -20.491 -20.421  0.00  0.00    +0.035 C 
ENDBRANCH   5  25
TORSDOF 5
ENDMDL
