MODEL 1
REMARK VINA RESULT:      -7.5      0.000      0.000
REMARK  Name = 40599451
REMARK  6 active torsions:
REMARK  status: ('A' for Active; 'I' for Inactive)
REMARK    1  A    between atoms: S_1  and  C_2
REMARK    2  A    between atoms: S_1  and  C_11
REMARK    3  A    between atoms: C_2  and  C_3
REMARK    4  A    between atoms: C_3  and  N_4
REMARK    5  A    between atoms: C_3  and  C_10
REMARK    6  A    between atoms: C_11  and  C_13
REMARK                            x       y       z     vdW  Elec       q    Type
REMARK                         _______ _______ _______ _____ _____    ______ ____
ROOT
ATOM      1  S   UNK     1      35.610 -22.883 -16.037  0.00  0.00    -0.137 S 
ENDROOT
BRANCH   1   2
ATOM      2  C   UNK     1      35.520 -24.517 -15.233  0.00  0.00    +0.047 C 
BRANCH   2   3
ATOM      3  C   UNK     1      36.887 -25.089 -14.852  0.00  0.00    +0.051 C 
BRANCH   3   4
ATOM      4  N   UNK     1      37.922 -24.149 -15.391  0.00  0.00    +0.389 N 
ATOM      5  H   UNK     1      37.869 -24.132 -16.410  0.00  0.00    -0.088 HD
ATOM      6  H   UNK     1      38.849 -24.463 -15.103  0.00  0.00    -0.088 HD
ATOM      7  H   UNK     1      37.752 -23.211 -15.026  0.00  0.00    -0.088 HD
ENDBRANCH   3   4
BRANCH   3  10
ATOM      8  O   UNK     1      36.294 -27.074 -16.006  0.00  0.00    -0.248 OA
ATOM      9  O   UNK     1      38.108 -27.118 -14.623  0.00  0.00    -0.248 OA
ATOM     10  C   UNK     1      37.126 -26.570 -15.199  0.00  0.00    +0.346 C 
ENDBRANCH   3  10
ENDBRANCH   2   3
ENDBRANCH   1   2
BRANCH   1  11
ATOM     11  C   UNK     1      34.333 -23.141 -17.288  0.00  0.00    +0.084 C 
BRANCH  11  13
ATOM     12 BR   UNK     1      34.873 -19.202 -22.023  0.00  0.00    -0.049 Br
ATOM     13  C   UNK     1      34.464 -22.183 -18.439  0.00  0.00    -0.011 C 
ATOM     14  C   UNK     1      33.322 -21.697 -19.076  0.00  0.00    -0.003 C 
ATOM     15  C   UNK     1      35.728 -21.780 -18.870  0.00  0.00    -0.003 C 
ATOM     16  C   UNK     1      33.444 -20.809 -20.144  0.00  0.00    +0.006 C 
ATOM     17  C   UNK     1      35.850 -20.891 -19.938  0.00  0.00    +0.006 C 
ATOM     18  C   UNK     1      34.708 -20.406 -20.576  0.00  0.00    +0.035 C 
ENDBRANCH  11  13
ENDBRANCH   1  11
TORSDOF 6
ENDMDL
MODEL 2
REMARK VINA RESULT:      -7.3      7.047      8.860
REMARK  Name = 40599451
REMARK  6 active torsions:
REMARK  status: ('A' for Active; 'I' for Inactive)
REMARK    1  A    between atoms: S_1  and  C_2
REMARK    2  A    between atoms: S_1  and  C_11
REMARK    3  A    between atoms: C_2  and  C_3
REMARK    4  A    between atoms: C_3  and  N_4
REMARK    5  A    between atoms: C_3  and  C_10
REMARK    6  A    between atoms: C_11  and  C_13
REMARK                            x       y       z     vdW  Elec       q    Type
REMARK                         _______ _______ _______ _____ _____    ______ ____
ROOT
ATOM      1  S   UNK     1      34.709 -17.876 -23.244  0.00  0.00    -0.137 S 
ENDROOT
BRANCH   1   2
ATOM      2  C   UNK     1      35.113 -16.098 -23.223  0.00  0.00    +0.047 C 
BRANCH   2   3
ATOM      3  C   UNK     1      34.051 -15.236 -22.536  0.00  0.00    +0.051 C 
BRANCH   3   4
ATOM      4  N   UNK     1      34.361 -13.809 -22.872  0.00  0.00    +0.389 N 
ATOM      5  H   UNK     1      34.720 -13.335 -22.043  0.00  0.00    -0.088 HD
ATOM      6  H   UNK     1      33.511 -13.342 -23.189  0.00  0.00    -0.088 HD
ATOM      7  H   UNK     1      35.062 -13.779 -23.612  0.00  0.00    -0.088 HD
ENDBRANCH   3   4
BRANCH   3  10
ATOM      8  O   UNK     1      34.858 -15.451 -20.316  0.00  0.00    -0.248 OA
ATOM      9  O   UNK     1      32.632 -15.772 -20.704  0.00  0.00    -0.248 OA
ATOM     10  C   UNK     1      33.821 -15.505 -21.038  0.00  0.00    +0.346 C 
ENDBRANCH   3  10
ENDBRANCH   2   3
ENDBRANCH   1   2
BRANCH   1  11
ATOM     11  C   UNK     1      35.876 -18.419 -21.977  0.00  0.00    +0.084 C 
BRANCH  11  13
ATOM     12 BR   UNK     1      33.481 -22.780 -18.306  0.00  0.00    -0.049 Br
ATOM     13  C   UNK     1      35.293 -19.480 -21.084  0.00  0.00    -0.011 C 
ATOM     14  C   UNK     1      33.910 -19.609 -20.966  0.00  0.00    -0.003 C 
ATOM     15  C   UNK     1      36.138 -20.335 -20.375  0.00  0.00    -0.003 C 
ATOM     16  C   UNK     1      33.370 -20.592 -20.138  0.00  0.00    +0.006 C 
ATOM     17  C   UNK     1      35.597 -21.319 -19.547  0.00  0.00    +0.006 C 
ATOM     18  C   UNK     1      34.213 -21.448 -19.428  0.00  0.00    +0.035 C 
ENDBRANCH  11  13
ENDBRANCH   1  11
TORSDOF 6
ENDMDL
MODEL 3
REMARK VINA RESULT:      -7.3      7.741      9.866
REMARK  Name = 40599451
REMARK  6 active torsions:
REMARK  status: ('A' for Active; 'I' for Inactive)
REMARK    1  A    between atoms: S_1  and  C_2
REMARK    2  A    between atoms: S_1  and  C_11
REMARK    3  A    between atoms: C_2  and  C_3
REMARK    4  A    between atoms: C_3  and  N_4
REMARK    5  A    between atoms: C_3  and  C_10
REMARK    6  A    between atoms: C_11  and  C_13
REMARK                            x       y       z     vdW  Elec       q    Type
REMARK                         _______ _______ _______ _____ _____    ______ ____
ROOT
ATOM      1  S   UNK     1      34.950 -16.846 -21.839  0.00  0.00    -0.137 S 
ENDROOT
BRANCH   1   2
ATOM      2  C   UNK     1      34.622 -16.646 -23.621  0.00  0.00    +0.047 C 
BRANCH   2   3
ATOM      3  C   UNK     1      34.046 -15.277 -23.988  0.00  0.00    +0.051 C 
BRANCH   3   4
ATOM      4  N   UNK     1      33.132 -14.871 -22.873  0.00  0.00    +0.389 N 
ATOM      5  H   UNK     1      33.114 -13.854 -22.800  0.00  0.00    -0.088 HD
ATOM      6  H   UNK     1      33.468 -15.270 -21.996  0.00  0.00    -0.088 HD
ATOM      7  H   UNK     1      32.190 -15.215 -23.064  0.00  0.00    -0.088 HD
ENDBRANCH   3   4
BRANCH   3  10
ATOM      8  O   UNK     1      33.773 -16.054 -26.213  0.00  0.00    -0.248 OA
ATOM      9  O   UNK     1      32.683 -14.152 -25.580  0.00  0.00    -0.248 OA
ATOM     10  C   UNK     1      33.433 -15.151 -25.395  0.00  0.00    +0.346 C 
ENDBRANCH   3  10
ENDBRANCH   2   3
ENDBRANCH   1   2
BRANCH   1  11
ATOM     11  C   UNK     1      35.902 -18.378 -21.923  0.00  0.00    +0.084 C 
BRANCH  11  13
ATOM     12 BR   UNK     1      33.543 -22.800 -18.302  0.00  0.00    -0.049 Br
ATOM     13  C   UNK     1      35.328 -19.453 -21.043  0.00  0.00    -0.011 C 
ATOM     14  C   UNK     1      33.945 -19.591 -20.920  0.00  0.00    -0.003 C 
ATOM     15  C   UNK     1      36.179 -20.314 -20.349  0.00  0.00    -0.003 C 
ATOM     16  C   UNK     1      33.414 -20.588 -20.103  0.00  0.00    +0.006 C 
ATOM     17  C   UNK     1      35.647 -21.312 -19.533  0.00  0.00    +0.006 C 
ATOM     18  C   UNK     1      34.264 -21.449 -19.409  0.00  0.00    +0.035 C 
ENDBRANCH  11  13
ENDBRANCH   1  11
TORSDOF 6
ENDMDL
MODEL 4
REMARK VINA RESULT:      -7.1      8.079     10.103
REMARK  Name = 40599451
REMARK  6 active torsions:
REMARK  status: ('A' for Active; 'I' for Inactive)
REMARK    1  A    between atoms: S_1  and  C_2
REMARK    2  A    between atoms: S_1  and  C_11
REMARK    3  A    between atoms: C_2  and  C_3
REMARK    4  A    between atoms: C_3  and  N_4
REMARK    5  A    between atoms: C_3  and  C_10
REMARK    6  A    between atoms: C_11  and  C_13
REMARK                            x       y       z     vdW  Elec       q    Type
REMARK                         _______ _______ _______ _____ _____    ______ ____
ROOT
ATOM      1  S   UNK     1      34.554 -16.541 -21.749  0.00  0.00    -0.137 S 
ENDROOT
BRANCH   1   2
ATOM      2  C   UNK     1      34.811 -15.708 -23.350  0.00  0.00    +0.047 C 
BRANCH   2   3
ATOM      3  C   UNK     1      33.528 -15.136 -23.958  0.00  0.00    +0.051 C 
BRANCH   3   4
ATOM      4  N   UNK     1      33.564 -15.441 -25.425  0.00  0.00    +0.389 N 
ATOM      5  H   UNK     1      34.119 -16.282 -25.584  0.00  0.00    -0.088 HD
ATOM      6  H   UNK     1      33.984 -14.656 -25.924  0.00  0.00    -0.088 HD
ATOM      7  H   UNK     1      32.613 -15.590 -25.763  0.00  0.00    -0.088 HD
ENDBRANCH   3   4
BRANCH   3  10
ATOM      8  O   UNK     1      32.153 -13.491 -22.944  0.00  0.00    -0.248 OA
ATOM      9  O   UNK     1      34.019 -12.811 -24.067  0.00  0.00    -0.248 OA
ATOM     10  C   UNK     1      33.208 -13.669 -23.617  0.00  0.00    +0.346 C 
ENDBRANCH   3  10
ENDBRANCH   2   3
ENDBRANCH   1   2
BRANCH   1  11
ATOM     11  C   UNK     1      35.418 -18.083 -22.119  0.00  0.00    +0.084 C 
BRANCH  11  13
ATOM     12 BR   UNK     1      33.580 -22.727 -18.474  0.00  0.00    -0.049 Br
ATOM     13  C   UNK     1      34.971 -19.212 -21.233  0.00  0.00    -0.011 C 
ATOM     14  C   UNK     1      33.610 -19.442 -21.030  0.00  0.00    -0.003 C 
ATOM     15  C   UNK     1      35.918 -20.030 -20.616  0.00  0.00    -0.003 C 
ATOM     16  C   UNK     1      33.196 -20.489 -20.207  0.00  0.00    +0.006 C 
ATOM     17  C   UNK     1      35.503 -21.078 -19.794  0.00  0.00    +0.006 C 
ATOM     18  C   UNK     1      34.142 -21.307 -19.589  0.00  0.00    +0.035 C 
ENDBRANCH  11  13
ENDBRANCH   1  11
TORSDOF 6
ENDMDL
MODEL 5
REMARK VINA RESULT:      -7.1      3.438      3.846
REMARK  Name = 40599451
REMARK  6 active torsions:
REMARK  status: ('A' for Active; 'I' for Inactive)
REMARK    1  A    between atoms: S_1  and  C_2
REMARK    2  A    between atoms: S_1  and  C_11
REMARK    3  A    between atoms: C_2  and  C_3
REMARK    4  A    between atoms: C_3  and  N_4
REMARK    5  A    between atoms: C_3  and  C_10
REMARK    6  A    between atoms: C_11  and  C_13
REMARK                            x       y       z     vdW  Elec       q    Type
REMARK                         _______ _______ _______ _____ _____    ______ ____
ROOT
ATOM      1  S   UNK     1      34.023 -23.203 -16.536  0.00  0.00    -0.137 S 
ENDROOT
BRANCH   1   2
ATOM      2  C   UNK     1      32.405 -23.428 -15.726  0.00  0.00    +0.047 C 
BRANCH   2   3
ATOM      3  C   UNK     1      32.504 -23.959 -14.294  0.00  0.00    +0.051 C 
BRANCH   3   4
ATOM      4  N   UNK     1      33.774 -24.749 -14.206  0.00  0.00    +0.389 N 
ATOM      5  H   UNK     1      34.499 -24.180 -13.771  0.00  0.00    -0.088 HD
ATOM      6  H   UNK     1      34.071 -25.021 -15.144  0.00  0.00    -0.088 HD
ATOM      7  H   UNK     1      33.615 -25.586 -13.644  0.00  0.00    -0.088 HD
ENDBRANCH   3   4
BRANCH   3  10
ATOM      8  O   UNK     1      30.829 -25.629 -14.472  0.00  0.00    -0.248 OA
ATOM      9  O   UNK     1      30.798 -24.242 -12.660  0.00  0.00    -0.248 OA
ATOM     10  C   UNK     1      31.260 -24.685 -13.749  0.00  0.00    +0.346 C 
ENDBRANCH   3  10
ENDBRANCH   2   3
ENDBRANCH   1   2
BRANCH   1  11
ATOM     11  C   UNK     1      33.452 -23.187 -18.249  0.00  0.00    +0.084 C 
BRANCH  11  13
ATOM     12 BR   UNK     1      36.052 -18.639 -21.533  0.00  0.00    -0.049 Br
ATOM     13  C   UNK     1      34.085 -22.081 -19.048  0.00  0.00    -0.011 C 
ATOM     14  C   UNK     1      35.474 -21.966 -19.102  0.00  0.00    -0.003 C 
ATOM     15  C   UNK     1      33.282 -21.171 -19.736  0.00  0.00    -0.003 C 
ATOM     16  C   UNK     1      36.060 -20.940 -19.842  0.00  0.00    +0.006 C 
ATOM     17  C   UNK     1      33.868 -20.145 -20.477  0.00  0.00    +0.006 C 
ATOM     18  C   UNK     1      35.258 -20.029 -20.530  0.00  0.00    +0.035 C 
ENDBRANCH  11  13
ENDBRANCH   1  11
TORSDOF 6
ENDMDL
MODEL 6
REMARK VINA RESULT:      -7.0      3.912      4.686
REMARK  Name = 40599451
REMARK  6 active torsions:
REMARK  status: ('A' for Active; 'I' for Inactive)
REMARK    1  A    between atoms: S_1  and  C_2
REMARK    2  A    between atoms: S_1  and  C_11
REMARK    3  A    between atoms: C_2  and  C_3
REMARK    4  A    between atoms: C_3  and  N_4
REMARK    5  A    between atoms: C_3  and  C_10
REMARK    6  A    between atoms: C_11  and  C_13
REMARK                            x       y       z     vdW  Elec       q    Type
REMARK                         _______ _______ _______ _____ _____    ______ ____
ROOT
ATOM      1  S   UNK     1      36.060 -24.865 -14.717  0.00  0.00    -0.137 S 
ENDROOT
BRANCH   1   2
ATOM      2  C   UNK     1      37.833 -24.480 -14.890  0.00  0.00    +0.047 C 
BRANCH   2   3
ATOM      3  C   UNK     1      38.752 -25.661 -14.568  0.00  0.00    +0.051 C 
BRANCH   3   4
ATOM      4  N   UNK     1      38.480 -26.052 -13.147  0.00  0.00    +0.389 N 
ATOM      5  H   UNK     1      39.248 -26.628 -12.800  0.00  0.00    -0.088 HD
ATOM      6  H   UNK     1      37.610 -26.583 -13.101  0.00  0.00    -0.088 HD
ATOM      7  H   UNK     1      38.398 -25.213 -12.573  0.00  0.00    -0.088 HD
ENDBRANCH   3   4
BRANCH   3  10
ATOM      8  O   UNK     1      40.650 -26.125 -15.911  0.00  0.00    -0.248 OA
ATOM      9  O   UNK     1      40.893 -24.721 -14.129  0.00  0.00    -0.248 OA
ATOM     10  C   UNK     1      40.243 -25.476 -14.906  0.00  0.00    +0.346 C 
ENDBRANCH   3  10
ENDBRANCH   2   3
ENDBRANCH   1   2
BRANCH   1  11
ATOM     11  C   UNK     1      35.397 -23.283 -15.281  0.00  0.00    +0.084 C 
BRANCH  11  13
ATOM     12 BR   UNK     1      29.243 -23.402 -15.868  0.00  0.00    -0.049 Br
ATOM     13  C   UNK     1      33.901 -23.312 -15.423  0.00  0.00    -0.011 C 
ATOM     14  C   UNK     1      33.096 -23.475 -14.296  0.00  0.00    -0.003 C 
ATOM     15  C   UNK     1      33.318 -23.174 -16.683  0.00  0.00    -0.003 C 
ATOM     16  C   UNK     1      31.708 -23.502 -14.429  0.00  0.00    +0.006 C 
ATOM     17  C   UNK     1      31.929 -23.201 -16.816  0.00  0.00    +0.006 C 
ATOM     18  C   UNK     1      31.124 -23.366 -15.688  0.00  0.00    +0.035 C 
ENDBRANCH  11  13
ENDBRANCH   1  11
TORSDOF 6
ENDMDL
MODEL 7
REMARK VINA RESULT:      -6.9      5.022      6.557
REMARK  Name = 40599451
REMARK  6 active torsions:
REMARK  status: ('A' for Active; 'I' for Inactive)
REMARK    1  A    between atoms: S_1  and  C_2
REMARK    2  A    between atoms: S_1  and  C_11
REMARK    3  A    between atoms: C_2  and  C_3
REMARK    4  A    between atoms: C_3  and  N_4
REMARK    5  A    between atoms: C_3  and  C_10
REMARK    6  A    between atoms: C_11  and  C_13
REMARK                            x       y       z     vdW  Elec       q    Type
REMARK                         _______ _______ _______ _____ _____    ______ ____
ROOT
ATOM      1  S   UNK     1      34.504 -19.433 -21.577  0.00  0.00    -0.137 S 
ENDROOT
BRANCH   1   2
ATOM      2  C   UNK     1      34.984 -20.569 -20.234  0.00  0.00    +0.047 C 
BRANCH   2   3
ATOM      3  C   UNK     1      33.904 -21.597 -19.885  0.00  0.00    +0.051 C 
BRANCH   3   4
ATOM      4  N   UNK     1      32.686 -20.829 -19.469  0.00  0.00    +0.389 N 
ATOM      5  H   UNK     1      32.781 -20.544 -18.494  0.00  0.00    -0.088 HD
ATOM      6  H   UNK     1      31.861 -21.420 -19.572  0.00  0.00    -0.088 HD
ATOM      7  H   UNK     1      32.589 -20.002 -20.057  0.00  0.00    -0.088 HD
ENDBRANCH   3   4
BRANCH   3  10
ATOM      8  O   UNK     1      35.198 -22.392 -18.063  0.00  0.00    -0.248 OA
ATOM      9  O   UNK     1      33.753 -23.832 -19.085  0.00  0.00    -0.248 OA
ATOM     10  C   UNK     1      34.318 -22.716 -18.911  0.00  0.00    +0.346 C 
ENDBRANCH   3  10
ENDBRANCH   2   3
ENDBRANCH   1   2
BRANCH   1  11
ATOM     11  C   UNK     1      35.488 -18.006 -21.069  0.00  0.00    +0.084 C 
BRANCH  11  13
ATOM     12 BR   UNK     1      33.561 -12.773 -23.740  0.00  0.00    -0.049 Br
ATOM     13  C   UNK     1      35.019 -16.734 -21.718  0.00  0.00    -0.011 C 
ATOM     14  C   UNK     1      34.572 -15.672 -20.931  0.00  0.00    -0.003 C 
ATOM     15  C   UNK     1      35.033 -16.615 -23.108  0.00  0.00    -0.003 C 
ATOM     16  C   UNK     1      34.137 -14.492 -21.534  0.00  0.00    +0.006 C 
ATOM     17  C   UNK     1      34.599 -15.434 -23.711  0.00  0.00    +0.006 C 
ATOM     18  C   UNK     1      34.150 -14.373 -22.924  0.00  0.00    +0.035 C 
ENDBRANCH  11  13
ENDBRANCH   1  11
TORSDOF 6
ENDMDL
MODEL 8
REMARK VINA RESULT:      -6.9      1.571      2.145
REMARK  Name = 40599451
REMARK  6 active torsions:
REMARK  status: ('A' for Active; 'I' for Inactive)
REMARK    1  A    between atoms: S_1  and  C_2
REMARK    2  A    between atoms: S_1  and  C_11
REMARK    3  A    between atoms: C_2  and  C_3
REMARK    4  A    between atoms: C_3  and  N_4
REMARK    5  A    between atoms: C_3  and  C_10
REMARK    6  A    between atoms: C_11  and  C_13
REMARK                            x       y       z     vdW  Elec       q    Type
REMARK                         _______ _______ _______ _____ _____    ______ ____
ROOT
ATOM      1  S   UNK     1      35.374 -22.904 -16.186  0.00  0.00    -0.137 S 
ENDROOT
BRANCH   1   2
ATOM      2  C   UNK     1      34.953 -24.401 -15.234  0.00  0.00    +0.047 C 
BRANCH   2   3
ATOM      3  C   UNK     1      36.177 -25.180 -14.745  0.00  0.00    +0.051 C 
BRANCH   3   4
ATOM      4  N   UNK     1      35.984 -26.606 -15.164  0.00  0.00    +0.389 N 
ATOM      5  H   UNK     1      35.303 -27.052 -14.550  0.00  0.00    -0.088 HD
ATOM      6  H   UNK     1      36.874 -27.101 -15.102  0.00  0.00    -0.088 HD
ATOM      7  H   UNK     1      35.645 -26.634 -16.126  0.00  0.00    -0.088 HD
ENDBRANCH   3   4
BRANCH   3  10
ATOM      8  O   UNK     1      36.760 -23.799 -12.907  0.00  0.00    -0.248 OA
ATOM      9  O   UNK     1      36.643 -26.055 -12.583  0.00  0.00    -0.248 OA
ATOM     10  C   UNK     1      36.555 -24.995 -13.264  0.00  0.00    +0.346 C 
ENDBRANCH   3  10
ENDBRANCH   2   3
ENDBRANCH   1   2
BRANCH   1  11
ATOM     11  C   UNK     1      34.179 -23.107 -17.525  0.00  0.00    +0.084 C 
BRANCH  11  13
ATOM     12 BR   UNK     1      35.003 -18.967 -22.043  0.00  0.00    -0.049 Br
ATOM     13  C   UNK     1      34.380 -22.101 -18.623  0.00  0.00    -0.011 C 
ATOM     14  C   UNK     1      35.670 -21.735 -19.007  0.00  0.00    -0.003 C 
ATOM     15  C   UNK     1      33.275 -21.534 -19.260  0.00  0.00    -0.003 C 
ATOM     16  C   UNK     1      35.856 -20.800 -20.026  0.00  0.00    +0.006 C 
ATOM     17  C   UNK     1      33.461 -20.601 -20.279  0.00  0.00    +0.006 C 
ATOM     18  C   UNK     1      34.752 -20.233 -20.662  0.00  0.00    +0.035 C 
ENDBRANCH  11  13
ENDBRANCH   1  11
TORSDOF 6
ENDMDL
MODEL 9
REMARK VINA RESULT:      -6.8      4.797      5.562
REMARK  Name = 40599451
REMARK  6 active torsions:
REMARK  status: ('A' for Active; 'I' for Inactive)
REMARK    1  A    between atoms: S_1  and  C_2
REMARK    2  A    between atoms: S_1  and  C_11
REMARK    3  A    between atoms: C_2  and  C_3
REMARK    4  A    between atoms: C_3  and  N_4
REMARK    5  A    between atoms: C_3  and  C_10
REMARK    6  A    between atoms: C_11  and  C_13
REMARK                            x       y       z     vdW  Elec       q    Type
REMARK                         _______ _______ _______ _____ _____    ______ ____
ROOT
ATOM      1  S   UNK     1      35.514 -23.763 -14.337  0.00  0.00    -0.137 S 
ENDROOT
BRANCH   1   2
ATOM      2  C   UNK     1      36.635 -25.123 -13.870  0.00  0.00    +0.047 C 
BRANCH   2   3
ATOM      3  C   UNK     1      37.942 -24.648 -13.231  0.00  0.00    +0.051 C 
BRANCH   3   4
ATOM      4  N   UNK     1      38.847 -25.840 -13.146  0.00  0.00    +0.389 N 
ATOM      5  H   UNK     1      38.650 -26.472 -13.923  0.00  0.00    -0.088 HD
ATOM      6  H   UNK     1      38.688 -26.326 -12.263  0.00  0.00    -0.088 HD
ATOM      7  H   UNK     1      39.818 -25.532 -13.196  0.00  0.00    -0.088 HD
ENDBRANCH   3   4
BRANCH   3  10
ATOM      8  O   UNK     1      37.146 -24.426 -11.007  0.00  0.00    -0.248 OA
ATOM      9  O   UNK     1      38.353 -22.713 -11.910  0.00  0.00    -0.248 OA
ATOM     10  C   UNK     1      37.809 -23.853 -11.919  0.00  0.00    +0.346 C 
ENDBRANCH   3  10
ENDBRANCH   2   3
ENDBRANCH   1   2
BRANCH   1  11
ATOM     11  C   UNK     1      34.117 -24.207 -13.282  0.00  0.00    +0.084 C 
BRANCH  11  13
ATOM     12 BR   UNK     1      28.736 -23.992 -16.320  0.00  0.00    -0.049 Br
ATOM     13  C   UNK     1      32.809 -24.155 -14.020  0.00  0.00    -0.011 C 
ATOM     14  C   UNK     1      31.765 -25.003 -13.651  0.00  0.00    -0.003 C 
ATOM     15  C   UNK     1      32.639 -23.257 -15.075  0.00  0.00    -0.003 C 
ATOM     16  C   UNK     1      30.551 -24.955 -14.336  0.00  0.00    +0.006 C 
ATOM     17  C   UNK     1      31.425 -23.208 -15.760  0.00  0.00    +0.006 C 
ATOM     18  C   UNK     1      30.381 -24.058 -15.391  0.00  0.00    +0.035 C 
ENDBRANCH  11  13
ENDBRANCH   1  11
TORSDOF 6
ENDMDL
