MODEL 1
REMARK VINA RESULT:      -5.4      0.000      0.000
REMARK  Name = 115244
REMARK  1 active torsions:
REMARK  status: ('A' for Active; 'I' for Inactive)
REMARK    1  A    between atoms: C_2  and  C_10
REMARK                            x       y       z     vdW  Elec       q    Type
REMARK                         _______ _______ _______ _____ _____    ______ ____
ROOT
ATOM      1  N   UNL     1      37.626 -24.232 -14.210  0.00  0.00    +0.396 N 
ATOM      2  C   UNL     1      38.866 -24.802 -13.503  0.00  0.00    +0.051 C 
ATOM      3  C   UNL     1      36.732 -25.451 -14.408  0.00  0.00    -0.072 C 
ATOM      4  C   UNL     1      38.306 -25.883 -12.585  0.00  0.00    -0.011 C 
ATOM      5  C   UNL     1      36.966 -26.310 -13.178  0.00  0.00    -0.024 C 
ATOM      6  C   UNL     1      36.935 -23.195 -13.323  0.00  0.00    -0.095 C 
ATOM      7  C   UNL     1      37.962 -23.572 -15.537  0.00  0.00    -0.095 C 
ENDROOT
BRANCH   2  10
ATOM      8  O   UNL     1      39.572 -26.633 -14.803  0.00  0.00    -0.248 OA
ATOM      9  O   UNL     1      40.941 -24.811 -14.604  0.00  0.00    -0.248 OA
ATOM     10  C   UNL     1      39.894 -25.484 -14.391  0.00  0.00    +0.346 C 
ENDBRANCH   2  10
TORSDOF 1
ENDMDL
MODEL 2
REMARK VINA RESULT:      -5.3      1.980      2.575
REMARK  Name = 115244
REMARK  1 active torsions:
REMARK  status: ('A' for Active; 'I' for Inactive)
REMARK    1  A    between atoms: C_2  and  C_10
REMARK                            x       y       z     vdW  Elec       q    Type
REMARK                         _______ _______ _______ _____ _____    ______ ____
ROOT
ATOM      1  N   UNL     1      36.703 -24.190 -14.619  0.00  0.00    +0.396 N 
ATOM      2  C   UNL     1      37.704 -25.300 -14.979  0.00  0.00    +0.051 C 
ATOM      3  C   UNL     1      36.710 -24.180 -13.094  0.00  0.00    -0.072 C 
ATOM      4  C   UNL     1      38.786 -25.185 -13.909  0.00  0.00    -0.011 C 
ATOM      5  C   UNL     1      38.143 -24.498 -12.707  0.00  0.00    -0.024 C 
ATOM      6  C   UNL     1      37.178 -22.844 -15.169  0.00  0.00    -0.095 C 
ATOM      7  C   UNL     1      35.310 -24.460 -15.164  0.00  0.00    -0.095 C 
ENDROOT
BRANCH   2  10
ATOM      8  O   UNL     1      36.778 -27.205 -16.004  0.00  0.00    -0.248 OA
ATOM      9  O   UNL     1      37.219 -27.247 -13.760  0.00  0.00    -0.248 OA
ATOM     10  C   UNL     1      37.182 -26.725 -14.909  0.00  0.00    +0.346 C 
ENDBRANCH   2  10
TORSDOF 1
ENDMDL
MODEL 3
REMARK VINA RESULT:      -5.3      2.310      3.109
REMARK  Name = 115244
REMARK  1 active torsions:
REMARK  status: ('A' for Active; 'I' for Inactive)
REMARK    1  A    between atoms: C_2  and  C_10
REMARK                            x       y       z     vdW  Elec       q    Type
REMARK                         _______ _______ _______ _____ _____    ______ ____
ROOT
ATOM      1  N   UNL     1      36.790 -24.623 -14.137  0.00  0.00    +0.396 N 
ATOM      2  C   UNL     1      37.420 -25.202 -12.860  0.00  0.00    +0.051 C 
ATOM      3  C   UNL     1      37.982 -24.061 -14.903  0.00  0.00    -0.072 C 
ATOM      4  C   UNL     1      38.758 -25.765 -13.329  0.00  0.00    -0.011 C 
ATOM      5  C   UNL     1      39.123 -25.019 -14.609  0.00  0.00    -0.024 C 
ATOM      6  C   UNL     1      36.103 -25.728 -14.942  0.00  0.00    -0.095 C 
ATOM      7  C   UNL     1      35.762 -23.543 -13.842  0.00  0.00    -0.095 C 
ENDROOT
BRANCH   2  10
ATOM      8  O   UNL     1      38.820 -23.577 -11.892  0.00  0.00    -0.248 OA
ATOM      9  O   UNL     1      36.870 -24.143 -10.838  0.00  0.00    -0.248 OA
ATOM     10  C   UNL     1      37.736 -24.209 -11.754  0.00  0.00    +0.346 C 
ENDBRANCH   2  10
TORSDOF 1
ENDMDL
MODEL 4
REMARK VINA RESULT:      -5.2      1.557      2.941
REMARK  Name = 115244
REMARK  1 active torsions:
REMARK  status: ('A' for Active; 'I' for Inactive)
REMARK    1  A    between atoms: C_2  and  C_10
REMARK                            x       y       z     vdW  Elec       q    Type
REMARK                         _______ _______ _______ _____ _____    ______ ____
ROOT
ATOM      1  N   UNL     1      37.643 -24.460 -13.895  0.00  0.00    +0.396 N 
ATOM      2  C   UNL     1      36.611 -25.575 -14.130  0.00  0.00    +0.051 C 
ATOM      3  C   UNL     1      37.537 -23.601 -15.150  0.00  0.00    -0.072 C 
ATOM      4  C   UNL     1      35.469 -24.875 -14.859  0.00  0.00    -0.011 C 
ATOM      5  C   UNL     1      36.066 -23.639 -15.526  0.00  0.00    -0.024 C 
ATOM      6  C   UNL     1      37.278 -23.647 -12.652  0.00  0.00    -0.095 C 
ATOM      7  C   UNL     1      39.053 -24.999 -13.712  0.00  0.00    -0.095 C 
ENDROOT
BRANCH   2  10
ATOM      8  O   UNL     1      38.090 -27.331 -14.647  0.00  0.00    -0.248 OA
ATOM      9  O   UNL     1      36.317 -26.920 -16.032  0.00  0.00    -0.248 OA
ATOM     10  C   UNL     1      37.051 -26.723 -15.024  0.00  0.00    +0.346 C 
ENDBRANCH   2  10
TORSDOF 1
ENDMDL
MODEL 5
REMARK VINA RESULT:      -5.1      1.903      2.572
REMARK  Name = 115244
REMARK  1 active torsions:
REMARK  status: ('A' for Active; 'I' for Inactive)
REMARK    1  A    between atoms: C_2  and  C_10
REMARK                            x       y       z     vdW  Elec       q    Type
REMARK                         _______ _______ _______ _____ _____    ______ ____
ROOT
ATOM      1  N   UNL     1      36.202 -24.350 -14.051  0.00  0.00    +0.396 N 
ATOM      2  C   UNL     1      37.488 -24.389 -13.209  0.00  0.00    +0.051 C 
ATOM      3  C   UNL     1      35.089 -24.431 -13.012  0.00  0.00    -0.072 C 
ATOM      4  C   UNL     1      37.132 -23.600 -11.953  0.00  0.00    -0.011 C 
ATOM      5  C   UNL     1      35.613 -23.653 -11.817  0.00  0.00    -0.024 C 
ATOM      6  C   UNL     1      36.115 -23.040 -14.834  0.00  0.00    -0.095 C 
ATOM      7  C   UNL     1      36.118 -25.501 -15.041  0.00  0.00    -0.095 C 
ENDROOT
BRANCH   2  10
ATOM      8  O   UNL     1      37.194 -26.317 -11.892  0.00  0.00    -0.248 OA
ATOM      9  O   UNL     1      39.021 -26.167 -13.260  0.00  0.00    -0.248 OA
ATOM     10  C   UNL     1      37.945 -25.760 -12.740  0.00  0.00    +0.346 C 
ENDBRANCH   2  10
TORSDOF 1
ENDMDL
MODEL 6
REMARK VINA RESULT:      -5.0      2.151      2.960
REMARK  Name = 115244
REMARK  1 active torsions:
REMARK  status: ('A' for Active; 'I' for Inactive)
REMARK    1  A    between atoms: C_2  and  C_10
REMARK                            x       y       z     vdW  Elec       q    Type
REMARK                         _______ _______ _______ _____ _____    ______ ____
ROOT
ATOM      1  N   UNL     1      37.375 -24.200 -14.387  0.00  0.00    +0.396 N 
ATOM      2  C   UNL     1      37.282 -23.346 -13.112  0.00  0.00    +0.051 C 
ATOM      3  C   UNL     1      36.376 -25.325 -14.141  0.00  0.00    -0.072 C 
ATOM      4  C   UNL     1      35.806 -23.409 -12.731  0.00  0.00    -0.011 C 
ATOM      5  C   UNL     1      35.243 -24.679 -13.363  0.00  0.00    -0.024 C 
ATOM      6  C   UNL     1      36.969 -23.377 -15.612  0.00  0.00    -0.095 C 
ATOM      7  C   UNL     1      38.774 -24.743 -14.624  0.00  0.00    -0.095 C 
ENDROOT
BRANCH   2  10
ATOM      8  O   UNL     1      39.154 -23.263 -11.689  0.00  0.00    -0.248 OA
ATOM      9  O   UNL     1      37.504 -24.792 -11.276  0.00  0.00    -0.248 OA
ATOM     10  C   UNL     1      38.058 -23.849 -11.907  0.00  0.00    +0.346 C 
ENDBRANCH   2  10
TORSDOF 1
ENDMDL
MODEL 7
REMARK VINA RESULT:      -5.0      2.299      3.163
REMARK  Name = 115244
REMARK  1 active torsions:
REMARK  status: ('A' for Active; 'I' for Inactive)
REMARK    1  A    between atoms: C_2  and  C_10
REMARK                            x       y       z     vdW  Elec       q    Type
REMARK                         _______ _______ _______ _____ _____    ______ ____
ROOT
ATOM      1  N   UNL     1      36.566 -24.301 -12.816  0.00  0.00    +0.396 N 
ATOM      2  C   UNL     1      36.944 -24.155 -14.299  0.00  0.00    +0.051 C 
ATOM      3  C   UNL     1      37.189 -25.633 -12.415  0.00  0.00    -0.072 C 
ATOM      4  C   UNL     1      38.344 -24.755 -14.385  0.00  0.00    -0.011 C 
ATOM      5  C   UNL     1      38.484 -25.712 -13.204  0.00  0.00    -0.024 C 
ATOM      6  C   UNL     1      37.164 -23.156 -11.997  0.00  0.00    -0.095 C 
ATOM      7  C   UNL     1      35.062 -24.305 -12.596  0.00  0.00    -0.095 C 
ENDROOT
BRANCH   2  10
ATOM      8  O   UNL     1      36.389 -26.139 -15.436  0.00  0.00    -0.248 OA
ATOM      9  O   UNL     1      35.181 -24.240 -15.846  0.00  0.00    -0.248 OA
ATOM     10  C   UNL     1      36.087 -24.922 -15.292  0.00  0.00    +0.346 C 
ENDBRANCH   2  10
TORSDOF 1
ENDMDL
MODEL 8
REMARK VINA RESULT:      -4.9     10.434     11.837
REMARK  Name = 115244
REMARK  1 active torsions:
REMARK  status: ('A' for Active; 'I' for Inactive)
REMARK    1  A    between atoms: C_2  and  C_10
REMARK                            x       y       z     vdW  Elec       q    Type
REMARK                         _______ _______ _______ _____ _____    ______ ____
ROOT
ATOM      1  N   UNL     1      35.069 -17.837 -23.049  0.00  0.00    +0.396 N 
ATOM      2  C   UNL     1      34.078 -17.779 -21.875  0.00  0.00    +0.051 C 
ATOM      3  C   UNL     1      36.392 -18.202 -22.386  0.00  0.00    -0.072 C 
ATOM      4  C   UNL     1      34.541 -18.895 -20.944  0.00  0.00    -0.011 C 
ATOM      5  C   UNL     1      36.015 -19.141 -21.253  0.00  0.00    -0.024 C 
ATOM      6  C   UNL     1      34.650 -18.916 -24.049  0.00  0.00    -0.095 C 
ATOM      7  C   UNL     1      35.169 -16.515 -23.793  0.00  0.00    -0.095 C 
ENDROOT
BRANCH   2  10
ATOM      8  O   UNL     1      35.075 -16.364 -20.281  0.00  0.00    -0.248 OA
ATOM      9  O   UNL     1      33.093 -15.744 -21.241  0.00  0.00    -0.248 OA
ATOM     10  C   UNL     1      34.084 -16.503 -21.050  0.00  0.00    +0.346 C 
ENDBRANCH   2  10
TORSDOF 1
ENDMDL
MODEL 9
REMARK VINA RESULT:      -4.8     18.365     19.839
REMARK  Name = 115244
REMARK  1 active torsions:
REMARK  status: ('A' for Active; 'I' for Inactive)
REMARK    1  A    between atoms: C_2  and  C_10
REMARK                            x       y       z     vdW  Elec       q    Type
REMARK                         _______ _______ _______ _____ _____    ______ ____
ROOT
ATOM      1  N   UNL     1      32.254  -9.202 -22.686  0.00  0.00    +0.396 N 
ATOM      2  C   UNL     1      33.048  -8.178 -21.859  0.00  0.00    +0.051 C 
ATOM      3  C   UNL     1      31.274  -8.344 -23.477  0.00  0.00    -0.072 C 
ATOM      4  C   UNL     1      33.180  -6.975 -22.788  0.00  0.00    -0.011 C 
ATOM      5  C   UNL     1      32.038  -7.071 -23.794  0.00  0.00    -0.024 C 
ATOM      6  C   UNL     1      33.186  -9.966 -23.628  0.00  0.00    -0.095 C 
ATOM      7  C   UNL     1      31.526 -10.215 -21.816  0.00  0.00    -0.095 C 
ENDROOT
BRANCH   2  10
ATOM      8  O   UNL     1      31.805  -6.551 -20.698  0.00  0.00    -0.248 OA
ATOM      9  O   UNL     1      32.485  -8.436 -19.594  0.00  0.00    -0.248 OA
ATOM     10  C   UNL     1      32.379  -7.671 -20.592  0.00  0.00    +0.346 C 
ENDBRANCH   2  10
TORSDOF 1
ENDMDL
