MODEL 1
REMARK VINA RESULT:     -10.4      0.000      0.000
REMARK  Name = 11582002
REMARK  12 active torsions:
REMARK  status: ('A' for Active; 'I' for Inactive)
REMARK    1  A    between atoms: N_2  and  C_7
REMARK    2  A    between atoms: N_2  and  O_20
REMARK    3  A    between atoms: C_3  and  O_16
REMARK    4  A    between atoms: C_4  and  O_18
REMARK    5  A    between atoms: C_5  and  N_9
REMARK    6  A    between atoms: C_6  and  C_31
REMARK    7  A    between atoms: C_10  and  C_12
REMARK    8  A    between atoms: C_12  and  C_13
REMARK    9  A    between atoms: C_13  and  C_14
REMARK   10  A    between atoms: O_20  and  C_23
REMARK   11  A    between atoms: N_22  and  C_25
REMARK   12  A    between atoms: C_31  and  O_32
REMARK                            x       y       z     vdW  Elec       q    Type
REMARK                         _______ _______ _______ _____ _____    ______ ____
ROOT
ATOM      1  O   UNL     1      37.500 -23.255 -13.817  0.00  0.00    -0.333 OA
ATOM      2  C   UNL     1      36.269 -25.679 -14.857  0.00  0.00    +0.161 C 
ATOM      3  C   UNL     1      37.248 -25.657 -13.681  0.00  0.00    +0.169 C 
ATOM      4  C   UNL     1      36.055 -24.308 -15.502  0.00  0.00    +0.149 C 
ATOM      5  C   UNL     1      37.134 -24.334 -12.931  0.00  0.00    +0.175 C 
ATOM      6  C   UNL     1      37.050 -23.261 -15.085  0.00  0.00    +0.251 C 
ENDROOT
BRANCH   4   8
ATOM      7  O   UNL     1      33.865 -23.730 -17.292  0.00  0.00    -0.275 OA
ATOM      8  N   UNL     1      34.774 -23.743 -15.154  0.00  0.00    -0.300 N 
ATOM      9  C   UNL     1      33.777 -23.500 -16.089  0.00  0.00    +0.223 C 
ATOM     10  H   UNL     1      34.598 -23.521 -14.211  0.00  0.00    +0.150 HD
BRANCH   9  11
ATOM     11  C   UNL     1      32.537 -22.906 -15.444  0.00  0.00    +0.085 C 
BRANCH  11  12
ATOM     12  C   UNL     1      31.278 -23.138 -16.275  0.00  0.00    +0.010 C 
BRANCH  12  13
ATOM     13  C   UNL     1      30.099 -23.553 -15.396  0.00  0.00    +0.001 C 
ATOM     14  C   UNL     1      30.104 -25.050 -15.128  0.00  0.00    +0.000 C 
ENDBRANCH  12  13
ENDBRANCH  11  12
ENDBRANCH   9  11
ENDBRANCH   4   8
BRANCH   2  15
ATOM     15  O   UNL     1      36.790 -26.587 -15.833  0.00  0.00    -0.380 OA
ATOM     16  H   UNL     1      36.668 -26.214 -16.719  0.00  0.00    +0.211 HD
ENDBRANCH   2  15
BRANCH   3  17
ATOM     17  O   UNL     1      36.947 -26.761 -12.834  0.00  0.00    -0.379 OA
ATOM     18  H   UNL     1      37.563 -27.488 -13.018  0.00  0.00    +0.211 HD
ENDBRANCH   3  17
BRANCH   6  19
ATOM     19  N   UNL     1      37.453 -22.351 -15.909  0.00  0.00    +0.008 NA
BRANCH  19  20
ATOM     20  O   UNL     1      37.050 -22.716 -17.199  0.00  0.00    -0.330 OA
BRANCH  20  23
ATOM     21  O   UNL     1      37.149 -20.478 -17.699  0.00  0.00    -0.224 OA
ATOM     22  N   UNL     1      35.665 -21.936 -18.771  0.00  0.00    -0.249 N 
ATOM     23  C   UNL     1      36.664 -21.590 -17.880  0.00  0.00    +0.425 C 
ATOM     24  H   UNL     1      35.403 -22.885 -18.776  0.00  0.00    +0.158 HD
BRANCH  22  25
ATOM     25  C   UNL     1      34.975 -21.098 -19.675  0.00  0.00    +0.053 C 
ATOM     26  C   UNL     1      33.580 -21.049 -19.656  0.00  0.00    +0.015 C 
ATOM     27  C   UNL     1      35.687 -20.318 -20.587  0.00  0.00    +0.015 C 
ATOM     28  C   UNL     1      32.900 -20.221 -20.549  0.00  0.00    +0.001 C 
ATOM     29  C   UNL     1      35.006 -19.490 -21.480  0.00  0.00    +0.001 C 
ATOM     30  C   UNL     1      33.613 -19.442 -21.460  0.00  0.00    +0.000 C 
ENDBRANCH  22  25
ENDBRANCH  20  23
ENDBRANCH  19  20
ENDBRANCH   6  19
BRANCH   5  31
ATOM     31  C   UNL     1      38.070 -24.255 -11.729  0.00  0.00    +0.169 C 
BRANCH  31  32
ATOM     32  O   UNL     1      38.608 -22.947 -11.660  0.00  0.00    -0.379 OA
ATOM     33  H   UNL     1      39.003 -22.714 -12.515  0.00  0.00    +0.211 HD
ENDBRANCH  31  32
ENDBRANCH   5  31
TORSDOF 12
ENDMDL
MODEL 2
REMARK VINA RESULT:      -9.2      7.787     12.767
REMARK  Name = 11582002
REMARK  12 active torsions:
REMARK  status: ('A' for Active; 'I' for Inactive)
REMARK    1  A    between atoms: N_2  and  C_7
REMARK    2  A    between atoms: N_2  and  O_20
REMARK    3  A    between atoms: C_3  and  O_16
REMARK    4  A    between atoms: C_4  and  O_18
REMARK    5  A    between atoms: C_5  and  N_9
REMARK    6  A    between atoms: C_6  and  C_31
REMARK    7  A    between atoms: C_10  and  C_12
REMARK    8  A    between atoms: C_12  and  C_13
REMARK    9  A    between atoms: C_13  and  C_14
REMARK   10  A    between atoms: O_20  and  C_23
REMARK   11  A    between atoms: N_22  and  C_25
REMARK   12  A    between atoms: C_31  and  O_32
REMARK                            x       y       z     vdW  Elec       q    Type
REMARK                         _______ _______ _______ _____ _____    ______ ____
ROOT
ATOM      1  O   UNL     1      33.550 -14.818 -24.347  0.00  0.00    -0.333 OA
ATOM      2  C   UNL     1      33.772 -12.000 -25.040  0.00  0.00    +0.161 C 
ATOM      3  C   UNL     1      33.654 -13.124 -26.071  0.00  0.00    +0.169 C 
ATOM      4  C   UNL     1      33.848 -12.498 -23.596  0.00  0.00    +0.149 C 
ATOM      5  C   UNL     1      32.850 -14.283 -25.491  0.00  0.00    +0.175 C 
ATOM      6  C   UNL     1      34.103 -13.973 -23.457  0.00  0.00    +0.251 C 
ENDROOT
BRANCH   4   8
ATOM      7  O   UNL     1      32.717  -9.959 -22.811  0.00  0.00    -0.275 OA
ATOM      8  N   UNL     1      32.611 -12.280 -22.885  0.00  0.00    -0.300 N 
ATOM      9  C   UNL     1      32.147 -11.015 -22.549  0.00  0.00    +0.223 C 
ATOM     10  H   UNL     1      32.073 -13.062 -22.626  0.00  0.00    +0.150 HD
BRANCH   9  11
ATOM     11  C   UNL     1      30.823 -11.084 -21.808  0.00  0.00    +0.085 C 
BRANCH  11  12
ATOM     12  C   UNL     1      30.978 -11.616 -20.385  0.00  0.00    +0.010 C 
BRANCH  12  13
ATOM     13  C   UNL     1      30.848 -10.496 -19.354  0.00  0.00    +0.001 C 
ATOM     14  C   UNL     1      32.056  -9.573 -19.380  0.00  0.00    +0.000 C 
ENDBRANCH  12  13
ENDBRANCH  11  12
ENDBRANCH   9  11
ENDBRANCH   4   8
BRANCH   2  15
ATOM     15  O   UNL     1      34.954 -11.256 -25.349  0.00  0.00    -0.380 OA
ATOM     16  H   UNL     1      35.309 -10.860 -24.538  0.00  0.00    +0.211 HD
ENDBRANCH   2  15
BRANCH   3  17
ATOM     17  O   UNL     1      33.031 -12.593 -27.236  0.00  0.00    -0.379 OA
ATOM     18  H   UNL     1      32.662 -13.319 -27.765  0.00  0.00    +0.211 HD
ENDBRANCH   3  17
BRANCH   6  19
ATOM     19  N   UNL     1      34.812 -14.445 -22.486  0.00  0.00    +0.008 NA
BRANCH  19  20
ATOM     20  O   UNL     1      35.168 -15.762 -22.801  0.00  0.00    -0.330 OA
BRANCH  20  23
ATOM     21  O   UNL     1      34.981 -16.113 -20.541  0.00  0.00    -0.224 OA
ATOM     22  N   UNL     1      34.864 -17.860 -22.092  0.00  0.00    -0.249 N 
ATOM     23  C   UNL     1      35.001 -16.546 -21.688  0.00  0.00    +0.425 C 
ATOM     24  H   UNL     1      34.905 -18.018 -23.063  0.00  0.00    +0.158 HD
BRANCH  22  25
ATOM     25  C   UNL     1      34.671 -19.005 -21.287  0.00  0.00    +0.053 C 
ATOM     26  C   UNL     1      35.771 -19.728 -20.826  0.00  0.00    +0.015 C 
ATOM     27  C   UNL     1      33.379 -19.412 -20.951  0.00  0.00    +0.015 C 
ATOM     28  C   UNL     1      35.580 -20.858 -20.030  0.00  0.00    +0.001 C 
ATOM     29  C   UNL     1      33.188 -20.542 -20.155  0.00  0.00    +0.001 C 
ATOM     30  C   UNL     1      34.288 -21.264 -19.695  0.00  0.00    +0.000 C 
ENDBRANCH  22  25
ENDBRANCH  20  23
ENDBRANCH  19  20
ENDBRANCH   6  19
BRANCH   5  31
ATOM     31  C   UNL     1      32.675 -15.433 -26.478  0.00  0.00    +0.169 C 
BRANCH  31  32
ATOM     32  O   UNL     1      33.599 -16.455 -26.150  0.00  0.00    -0.379 OA
ATOM     33  H   UNL     1      34.415 -16.329 -26.659  0.00  0.00    +0.211 HD
ENDBRANCH  31  32
ENDBRANCH   5  31
TORSDOF 12
ENDMDL
MODEL 3
REMARK VINA RESULT:      -9.1      1.103      1.682
REMARK  Name = 11582002
REMARK  12 active torsions:
REMARK  status: ('A' for Active; 'I' for Inactive)
REMARK    1  A    between atoms: N_2  and  C_7
REMARK    2  A    between atoms: N_2  and  O_20
REMARK    3  A    between atoms: C_3  and  O_16
REMARK    4  A    between atoms: C_4  and  O_18
REMARK    5  A    between atoms: C_5  and  N_9
REMARK    6  A    between atoms: C_6  and  C_31
REMARK    7  A    between atoms: C_10  and  C_12
REMARK    8  A    between atoms: C_12  and  C_13
REMARK    9  A    between atoms: C_13  and  C_14
REMARK   10  A    between atoms: O_20  and  C_23
REMARK   11  A    between atoms: N_22  and  C_25
REMARK   12  A    between atoms: C_31  and  O_32
REMARK                            x       y       z     vdW  Elec       q    Type
REMARK                         _______ _______ _______ _____ _____    ______ ____
ROOT
ATOM      1  O   UNL     1      36.688 -22.910 -14.009  0.00  0.00    -0.333 OA
ATOM      2  C   UNL     1      35.556 -25.478 -14.780  0.00  0.00    +0.161 C 
ATOM      3  C   UNL     1      36.762 -25.322 -13.852  0.00  0.00    +0.169 C 
ATOM      4  C   UNL     1      35.041 -24.152 -15.343  0.00  0.00    +0.149 C 
ATOM      5  C   UNL     1      36.660 -24.012 -13.078  0.00  0.00    +0.175 C 
ATOM      6  C   UNL     1      35.971 -22.987 -15.145  0.00  0.00    +0.251 C 
ENDROOT
BRANCH   4   8
ATOM      7  O   UNL     1      32.540 -23.531 -16.646  0.00  0.00    -0.275 OA
ATOM      8  N   UNL     1      33.811 -23.740 -14.712  0.00  0.00    -0.300 N 
ATOM      9  C   UNL     1      32.653 -23.461 -15.424  0.00  0.00    +0.223 C 
ATOM     10  H   UNL     1      33.792 -23.652 -13.731  0.00  0.00    +0.150 HD
BRANCH   9  11
ATOM     11  C   UNL     1      31.514 -23.053 -14.506  0.00  0.00    +0.085 C 
BRANCH  11  12
ATOM     12  C   UNL     1      30.916 -24.241 -13.756  0.00  0.00    +0.010 C 
BRANCH  12  13
ATOM     13  C   UNL     1      29.914 -25.001 -14.624  0.00  0.00    +0.001 C 
ATOM     14  C   UNL     1      29.045 -24.050 -15.433  0.00  0.00    +0.000 C 
ENDBRANCH  12  13
ENDBRANCH  11  12
ENDBRANCH   9  11
ENDBRANCH   4   8
BRANCH   2  15
ATOM     15  O   UNL     1      35.952 -26.331 -15.859  0.00  0.00    -0.380 OA
ATOM     16  H   UNL     1      36.018 -25.811 -16.675  0.00  0.00    +0.211 HD
ENDBRANCH   2  15
BRANCH   3  17
ATOM     17  O   UNL     1      36.791 -26.442 -12.973  0.00  0.00    -0.379 OA
ATOM     18  H   UNL     1      37.134 -27.217 -13.446  0.00  0.00    +0.211 HD
ENDBRANCH   3  17
BRANCH   6  19
ATOM     19  N   UNL     1      36.069 -22.048 -16.026  0.00  0.00    +0.008 NA
BRANCH  19  20
ATOM     20  O   UNL     1      36.587 -22.601 -17.203  0.00  0.00    -0.330 OA
BRANCH  20  23
ATOM     21  O   UNL     1      34.788 -22.764 -18.619  0.00  0.00    -0.224 OA
ATOM     22  N   UNL     1      36.394 -21.075 -18.825  0.00  0.00    -0.249 N 
ATOM     23  C   UNL     1      35.815 -22.197 -18.263  0.00  0.00    +0.425 C 
ATOM     24  H   UNL     1      37.223 -20.759 -18.400  0.00  0.00    +0.158 HD
BRANCH  22  25
ATOM     25  C   UNL     1      35.942 -20.323 -19.934  0.00  0.00    +0.053 C 
ATOM     26  C   UNL     1      36.825 -19.487 -20.617  0.00  0.00    +0.015 C 
ATOM     27  C   UNL     1      34.612 -20.418 -20.346  0.00  0.00    +0.015 C 
ATOM     28  C   UNL     1      36.379 -18.746 -21.711  0.00  0.00    +0.001 C 
ATOM     29  C   UNL     1      34.166 -19.677 -21.440  0.00  0.00    +0.001 C 
ATOM     30  C   UNL     1      35.049 -18.841 -22.122  0.00  0.00    +0.000 C 
ENDBRANCH  22  25
ENDBRANCH  20  23
ENDBRANCH  19  20
ENDBRANCH   6  19
BRANCH   5  31
ATOM     31  C   UNL     1      37.824 -23.805 -12.113  0.00  0.00    +0.169 C 
BRANCH  31  32
ATOM     32  O   UNL     1      37.493 -22.751 -11.227  0.00  0.00    -0.379 OA
ATOM     33  H   UNL     1      38.245 -22.573 -10.640  0.00  0.00    +0.211 HD
ENDBRANCH  31  32
ENDBRANCH   5  31
TORSDOF 12
ENDMDL
MODEL 4
REMARK VINA RESULT:      -8.9      2.409      5.446
REMARK  Name = 11582002
REMARK  12 active torsions:
REMARK  status: ('A' for Active; 'I' for Inactive)
REMARK    1  A    between atoms: N_2  and  C_7
REMARK    2  A    between atoms: N_2  and  O_20
REMARK    3  A    between atoms: C_3  and  O_16
REMARK    4  A    between atoms: C_4  and  O_18
REMARK    5  A    between atoms: C_5  and  N_9
REMARK    6  A    between atoms: C_6  and  C_31
REMARK    7  A    between atoms: C_10  and  C_12
REMARK    8  A    between atoms: C_12  and  C_13
REMARK    9  A    between atoms: C_13  and  C_14
REMARK   10  A    between atoms: O_20  and  C_23
REMARK   11  A    between atoms: N_22  and  C_25
REMARK   12  A    between atoms: C_31  and  O_32
REMARK                            x       y       z     vdW  Elec       q    Type
REMARK                         _______ _______ _______ _____ _____    ______ ____
ROOT
ATOM      1  O   UNL     1      30.963 -24.432 -16.084  0.00  0.00    -0.333 OA
ATOM      2  C   UNL     1      32.149 -23.653 -13.543  0.00  0.00    +0.161 C 
ATOM      3  C   UNL     1      30.753 -24.264 -13.680  0.00  0.00    +0.169 C 
ATOM      4  C   UNL     1      32.844 -23.405 -14.884  0.00  0.00    +0.149 C 
ATOM      5  C   UNL     1      30.707 -25.196 -14.886  0.00  0.00    +0.175 C 
ATOM      6  C   UNL     1      31.942 -23.510 -16.082  0.00  0.00    +0.251 C 
ENDROOT
BRANCH   4   8
ATOM      7  O   UNL     1      35.603 -23.239 -14.048  0.00  0.00    -0.275 OA
ATOM      8  N   UNL     1      33.888 -24.369 -15.135  0.00  0.00    -0.300 N 
ATOM      9  C   UNL     1      35.192 -24.202 -14.692  0.00  0.00    +0.223 C 
ATOM     10  H   UNL     1      33.665 -25.181 -15.644  0.00  0.00    +0.150 HD
BRANCH   9  11
ATOM     11  C   UNL     1      36.075 -25.369 -15.097  0.00  0.00    +0.085 C 
BRANCH  11  12
ATOM     12  C   UNL     1      37.542 -25.145 -14.735  0.00  0.00    +0.010 C 
BRANCH  12  13
ATOM     13  C   UNL     1      37.891 -25.797 -13.398  0.00  0.00    +0.001 C 
ATOM     14  C   UNL     1      38.317 -24.763 -12.368  0.00  0.00    +0.000 C 
ENDBRANCH  12  13
ENDBRANCH  11  12
ENDBRANCH   9  11
ENDBRANCH   4   8
BRANCH   2  15
ATOM     15  O   UNL     1      32.008 -22.411 -12.845  0.00  0.00    -0.380 OA
ATOM     16  H   UNL     1      32.421 -21.701 -13.360  0.00  0.00    +0.211 HD
ENDBRANCH   2  15
BRANCH   3  17
ATOM     17  O   UNL     1      30.456 -24.961 -12.474  0.00  0.00    -0.379 OA
ATOM     18  H   UNL     1      31.162 -25.600 -12.287  0.00  0.00    +0.211 HD
ENDBRANCH   3  17
BRANCH   6  19
ATOM     19  N   UNL     1      32.110 -22.757 -17.118  0.00  0.00    +0.008 NA
BRANCH  19  20
ATOM     20  O   UNL     1      32.948 -23.427 -18.018  0.00  0.00    -0.330 OA
BRANCH  20  23
ATOM     21  O   UNL     1      35.091 -22.670 -17.704  0.00  0.00    -0.224 OA
ATOM     22  N   UNL     1      33.686 -21.798 -19.359  0.00  0.00    -0.249 N 
ATOM     23  C   UNL     1      34.024 -22.626 -18.306  0.00  0.00    +0.425 C 
ATOM     24  H   UNL     1      32.776 -21.907 -19.718  0.00  0.00    +0.158 HD
BRANCH  22  25
ATOM     25  C   UNL     1      34.485 -20.815 -19.986  0.00  0.00    +0.053 C 
ATOM     26  C   UNL     1      35.873 -20.855 -19.855  0.00  0.00    +0.015 C 
ATOM     27  C   UNL     1      33.885 -19.804 -20.737  0.00  0.00    +0.015 C 
ATOM     28  C   UNL     1      36.661 -19.885 -20.474  0.00  0.00    +0.001 C 
ATOM     29  C   UNL     1      34.673 -18.833 -21.357  0.00  0.00    +0.001 C 
ATOM     30  C   UNL     1      36.060 -18.874 -21.225  0.00  0.00    +0.000 C 
ENDBRANCH  22  25
ENDBRANCH  20  23
ENDBRANCH  19  20
ENDBRANCH   6  19
BRANCH   5  31
ATOM     31  C   UNL     1      29.345 -25.860 -15.067  0.00  0.00    +0.169 C 
BRANCH  31  32
ATOM     32  O   UNL     1      28.391 -25.152 -14.297  0.00  0.00    -0.379 OA
ATOM     33  H   UNL     1      28.293 -24.253 -14.649  0.00  0.00    +0.211 HD
ENDBRANCH  31  32
ENDBRANCH   5  31
TORSDOF 12
ENDMDL
MODEL 5
REMARK VINA RESULT:      -8.3      9.632     14.009
REMARK  Name = 11582002
REMARK  12 active torsions:
REMARK  status: ('A' for Active; 'I' for Inactive)
REMARK    1  A    between atoms: N_2  and  C_7
REMARK    2  A    between atoms: N_2  and  O_20
REMARK    3  A    between atoms: C_3  and  O_16
REMARK    4  A    between atoms: C_4  and  O_18
REMARK    5  A    between atoms: C_5  and  N_9
REMARK    6  A    between atoms: C_6  and  C_31
REMARK    7  A    between atoms: C_10  and  C_12
REMARK    8  A    between atoms: C_12  and  C_13
REMARK    9  A    between atoms: C_13  and  C_14
REMARK   10  A    between atoms: O_20  and  C_23
REMARK   11  A    between atoms: N_22  and  C_25
REMARK   12  A    between atoms: C_31  and  O_32
REMARK                            x       y       z     vdW  Elec       q    Type
REMARK                         _______ _______ _______ _____ _____    ______ ____
ROOT
ATOM      1  O   UNL     1      33.462 -12.186 -23.832  0.00  0.00    -0.333 OA
ATOM      2  C   UNL     1      33.103 -14.125 -25.973  0.00  0.00    +0.161 C 
ATOM      3  C   UNL     1      33.468 -12.657 -26.205  0.00  0.00    +0.169 C 
ATOM      4  C   UNL     1      32.857 -14.471 -24.503  0.00  0.00    +0.149 C 
ATOM      5  C   UNL     1      34.275 -12.127 -25.024  0.00  0.00    +0.175 C 
ATOM      6  C   UNL     1      32.713 -13.279 -23.598  0.00  0.00    +0.251 C 
ENDROOT
BRANCH   4   8
ATOM      7  O   UNL     1      33.858 -17.027 -25.396  0.00  0.00    -0.275 OA
ATOM      8  N   UNL     1      33.951 -15.221 -23.936  0.00  0.00    -0.300 N 
ATOM      9  C   UNL     1      34.362 -16.449 -24.436  0.00  0.00    +0.223 C 
ATOM     10  H   UNL     1      34.426 -14.846 -23.161  0.00  0.00    +0.150 HD
BRANCH   9  11
ATOM     11  C   UNL     1      35.533 -17.010 -23.649  0.00  0.00    +0.085 C 
BRANCH  11  12
ATOM     12  C   UNL     1      35.107 -17.594 -22.304  0.00  0.00    +0.010 C 
BRANCH  12  13
ATOM     13  C   UNL     1      34.634 -19.040 -22.451  0.00  0.00    +0.001 C 
ATOM     14  C   UNL     1      33.943 -19.530 -21.188  0.00  0.00    +0.000 C 
ENDBRANCH  12  13
ENDBRANCH  11  12
ENDBRANCH   9  11
ENDBRANCH   4   8
BRANCH   2  15
ATOM     15  O   UNL     1      31.919 -14.397 -26.730  0.00  0.00    -0.380 OA
ATOM     16  H   UNL     1      31.691 -15.336 -26.649  0.00  0.00    +0.211 HD
ENDBRANCH   2  15
BRANCH   3  17
ATOM     17  O   UNL     1      34.209 -12.572 -27.418  0.00  0.00    -0.379 OA
ATOM     18  H   UNL     1      33.795 -13.137 -28.090  0.00  0.00    +0.211 HD
ENDBRANCH   3  17
BRANCH   6  19
ATOM     19  N   UNL     1      31.911 -13.297 -22.586  0.00  0.00    +0.008 NA
BRANCH  19  20
ATOM     20  O   UNL     1      32.402 -12.410 -21.620  0.00  0.00    -0.330 OA
BRANCH  20  23
ATOM     21  O   UNL     1      30.436 -11.283 -21.261  0.00  0.00    -0.224 OA
ATOM     22  N   UNL     1      32.370 -10.212 -22.025  0.00  0.00    -0.249 N 
ATOM     23  C   UNL     1      31.613 -11.288 -21.602  0.00  0.00    +0.425 C 
ATOM     24  H   UNL     1      33.306 -10.409 -22.259  0.00  0.00    +0.158 HD
BRANCH  22  25
ATOM     25  C   UNL     1      31.969  -8.864 -22.162  0.00  0.00    +0.053 C 
ATOM     26  C   UNL     1      32.217  -7.954 -21.134  0.00  0.00    +0.015 C 
ATOM     27  C   UNL     1      31.326  -8.442 -23.326  0.00  0.00    +0.015 C 
ATOM     28  C   UNL     1      31.822  -6.623 -21.270  0.00  0.00    +0.001 C 
ATOM     29  C   UNL     1      30.930  -7.112 -23.462  0.00  0.00    +0.001 C 
ATOM     30  C   UNL     1      31.179  -6.203 -22.434  0.00  0.00    +0.000 C 
ENDBRANCH  22  25
ENDBRANCH  20  23
ENDBRANCH  19  20
ENDBRANCH   6  19
BRANCH   5  31
ATOM     31  C   UNL     1      34.693 -10.671 -25.201  0.00  0.00    +0.169 C 
BRANCH  31  32
ATOM     32  O   UNL     1      34.975 -10.123 -23.926  0.00  0.00    -0.379 OA
ATOM     33  H   UNL     1      35.934 -10.015 -23.825  0.00  0.00    +0.211 HD
ENDBRANCH  31  32
ENDBRANCH   5  31
TORSDOF 12
ENDMDL
MODEL 6
REMARK VINA RESULT:      -8.2     12.394     16.459
REMARK  Name = 11582002
REMARK  12 active torsions:
REMARK  status: ('A' for Active; 'I' for Inactive)
REMARK    1  A    between atoms: N_2  and  C_7
REMARK    2  A    between atoms: N_2  and  O_20
REMARK    3  A    between atoms: C_3  and  O_16
REMARK    4  A    between atoms: C_4  and  O_18
REMARK    5  A    between atoms: C_5  and  N_9
REMARK    6  A    between atoms: C_6  and  C_31
REMARK    7  A    between atoms: C_10  and  C_12
REMARK    8  A    between atoms: C_12  and  C_13
REMARK    9  A    between atoms: C_13  and  C_14
REMARK   10  A    between atoms: O_20  and  C_23
REMARK   11  A    between atoms: N_22  and  C_25
REMARK   12  A    between atoms: C_31  and  O_32
REMARK                            x       y       z     vdW  Elec       q    Type
REMARK                         _______ _______ _______ _____ _____    ______ ____
ROOT
ATOM      1  O   UNL     1      32.512  -6.676 -24.091  0.00  0.00    -0.333 OA
ATOM      2  C   UNL     1      31.991  -6.375 -21.243  0.00  0.00    +0.161 C 
ATOM      3  C   UNL     1      31.502  -5.391 -22.308  0.00  0.00    +0.169 C 
ATOM      4  C   UNL     1      32.861  -7.502 -21.803  0.00  0.00    +0.149 C 
ATOM      5  C   UNL     1      31.263  -6.122 -23.625  0.00  0.00    +0.175 C 
ATOM      6  C   UNL     1      33.333  -7.282 -23.214  0.00  0.00    +0.251 C 
ENDROOT
BRANCH   4   8
ATOM      7  O   UNL     1      32.389  -9.323 -19.613  0.00  0.00    -0.275 OA
ATOM      8  N   UNL     1      32.151  -8.756 -21.854  0.00  0.00    -0.300 N 
ATOM      9  C   UNL     1      31.974  -9.569 -20.743  0.00  0.00    +0.223 C 
ATOM     10  H   UNL     1      31.775  -9.049 -22.715  0.00  0.00    +0.150 HD
BRANCH   9  11
ATOM     11  C   UNL     1      31.189 -10.823 -21.085  0.00  0.00    +0.085 C 
BRANCH  11  12
ATOM     12  C   UNL     1      31.673 -12.045 -20.309  0.00  0.00    +0.010 C 
BRANCH  12  13
ATOM     13  C   UNL     1      32.232 -13.115 -21.245  0.00  0.00    +0.001 C 
ATOM     14  C   UNL     1      32.683 -14.347 -20.477  0.00  0.00    +0.000 C 
ENDBRANCH  12  13
ENDBRANCH  11  12
ENDBRANCH   9  11
ENDBRANCH   4   8
BRANCH   2  15
ATOM     15  O   UNL     1      32.742  -5.628 -20.281  0.00  0.00    -0.380 OA
ATOM     16  H   UNL     1      33.689  -5.787 -20.415  0.00  0.00    +0.211 HD
ENDBRANCH   2  15
BRANCH   3  17
ATOM     17  O   UNL     1      30.308  -4.780 -21.831  0.00  0.00    -0.379 OA
ATOM     18  H   UNL     1      30.273  -4.849 -20.863  0.00  0.00    +0.211 HD
ENDBRANCH   3  17
BRANCH   6  19
ATOM     19  N   UNL     1      34.494  -7.693 -23.606  0.00  0.00    +0.008 NA
BRANCH  19  20
ATOM     20  O   UNL     1      34.665  -9.012 -23.168  0.00  0.00    -0.330 OA
BRANCH  20  23
ATOM     21  O   UNL     1      35.198  -9.574 -25.328  0.00  0.00    -0.224 OA
ATOM     22  N   UNL     1      33.981 -11.000 -23.928  0.00  0.00    -0.249 N 
ATOM     23  C   UNL     1      34.666  -9.846 -24.257  0.00  0.00    +0.425 C 
ATOM     24  H   UNL     1      33.621 -11.040 -23.013  0.00  0.00    +0.158 HD
BRANCH  22  25
ATOM     25  C   UNL     1      33.736 -12.130 -24.740  0.00  0.00    +0.053 C 
ATOM     26  C   UNL     1      33.620 -11.984 -26.123  0.00  0.00    +0.015 C 
ATOM     27  C   UNL     1      33.610 -13.392 -24.159  0.00  0.00    +0.015 C 
ATOM     28  C   UNL     1      33.378 -13.100 -26.924  0.00  0.00    +0.001 C 
ATOM     29  C   UNL     1      33.368 -14.508 -24.960  0.00  0.00    +0.001 C 
ATOM     30  C   UNL     1      33.252 -14.362 -26.342  0.00  0.00    +0.000 C 
ENDBRANCH  22  25
ENDBRANCH  20  23
ENDBRANCH  19  20
ENDBRANCH   6  19
BRANCH   5  31
ATOM     31  C   UNL     1      30.751  -5.201 -24.727  0.00  0.00    +0.169 C 
BRANCH  31  32
ATOM     32  O   UNL     1      30.873  -3.860 -24.289  0.00  0.00    -0.379 OA
ATOM     33  H   UNL     1      30.083  -3.611 -23.783  0.00  0.00    +0.211 HD
ENDBRANCH  31  32
ENDBRANCH   5  31
TORSDOF 12
ENDMDL
MODEL 7
REMARK VINA RESULT:      -8.1      2.891      7.524
REMARK  Name = 11582002
REMARK  12 active torsions:
REMARK  status: ('A' for Active; 'I' for Inactive)
REMARK    1  A    between atoms: N_2  and  C_7
REMARK    2  A    between atoms: N_2  and  O_20
REMARK    3  A    between atoms: C_3  and  O_16
REMARK    4  A    between atoms: C_4  and  O_18
REMARK    5  A    between atoms: C_5  and  N_9
REMARK    6  A    between atoms: C_6  and  C_31
REMARK    7  A    between atoms: C_10  and  C_12
REMARK    8  A    between atoms: C_12  and  C_13
REMARK    9  A    between atoms: C_13  and  C_14
REMARK   10  A    between atoms: O_20  and  C_23
REMARK   11  A    between atoms: N_22  and  C_25
REMARK   12  A    between atoms: C_31  and  O_32
REMARK                            x       y       z     vdW  Elec       q    Type
REMARK                         _______ _______ _______ _____ _____    ______ ____
ROOT
ATOM      1  O   UNL     1      30.132 -22.430 -14.692  0.00  0.00    -0.333 OA
ATOM      2  C   UNL     1      30.164 -24.791 -16.394  0.00  0.00    +0.161 C 
ATOM      3  C   UNL     1      28.891 -24.186 -15.800  0.00  0.00    +0.169 C 
ATOM      4  C   UNL     1      31.446 -24.088 -15.941  0.00  0.00    +0.149 C 
ATOM      5  C   UNL     1      29.059 -22.680 -15.626  0.00  0.00    +0.175 C 
ATOM      6  C   UNL     1      31.265 -23.150 -14.781  0.00  0.00    +0.251 C 
ENDROOT
BRANCH   4   8
ATOM      7  O   UNL     1      34.209 -23.967 -16.769  0.00  0.00    -0.275 OA
ATOM      8  N   UNL     1      32.005 -23.264 -16.985  0.00  0.00    -0.300 N 
ATOM      9  C   UNL     1      33.354 -23.273 -17.313  0.00  0.00    +0.223 C 
ATOM     10  H   UNL     1      31.403 -22.668 -17.487  0.00  0.00    +0.150 HD
BRANCH   9  11
ATOM     11  C   UNL     1      33.661 -22.311 -18.447  0.00  0.00    +0.085 C 
BRANCH  11  12
ATOM     12  C   UNL     1      35.161 -22.131 -18.670  0.00  0.00    +0.010 C 
BRANCH  12  13
ATOM     13  C   UNL     1      35.441 -21.101 -19.763  0.00  0.00    +0.001 C 
ATOM     14  C   UNL     1      34.156 -20.476 -20.283  0.00  0.00    +0.000 C 
ENDBRANCH  12  13
ENDBRANCH  11  12
ENDBRANCH   9  11
ENDBRANCH   4   8
BRANCH   2  15
ATOM     15  O   UNL     1      30.211 -26.166 -15.998  0.00  0.00    -0.380 OA
ATOM     16  H   UNL     1      30.472 -26.226 -15.067  0.00  0.00    +0.211 HD
ENDBRANCH   2  15
BRANCH   3  17
ATOM     17  O   UNL     1      27.808 -24.488 -16.675  0.00  0.00    -0.379 OA
ATOM     18  H   UNL     1      27.646 -25.445 -16.671  0.00  0.00    +0.211 HD
ENDBRANCH   3  17
BRANCH   6  19
ATOM     19  N   UNL     1      32.188 -22.999 -13.889  0.00  0.00    +0.008 NA
BRANCH  19  20
ATOM     20  O   UNL     1      32.656 -24.266 -13.521  0.00  0.00    -0.330 OA
BRANCH  20  23
ATOM     21  O   UNL     1      34.265 -23.538 -12.057  0.00  0.00    -0.224 OA
ATOM     22  N   UNL     1      34.778 -24.830 -13.938  0.00  0.00    -0.249 N 
ATOM     23  C   UNL     1      33.946 -24.151 -13.069  0.00  0.00    +0.425 C 
ATOM     24  H   UNL     1      34.338 -25.266 -14.703  0.00  0.00    +0.158 HD
BRANCH  22  25
ATOM     25  C   UNL     1      36.182 -24.977 -13.865  0.00  0.00    +0.053 C 
ATOM     26  C   UNL     1      36.760 -25.623 -12.772  0.00  0.00    +0.015 C 
ATOM     27  C   UNL     1      36.990 -24.477 -14.887  0.00  0.00    +0.015 C 
ATOM     28  C   UNL     1      38.146 -25.768 -12.701  0.00  0.00    +0.001 C 
ATOM     29  C   UNL     1      38.376 -24.622 -14.816  0.00  0.00    +0.001 C 
ATOM     30  C   UNL     1      38.953 -25.268 -13.723  0.00  0.00    +0.000 C 
ENDBRANCH  22  25
ENDBRANCH  20  23
ENDBRANCH  19  20
ENDBRANCH   6  19
BRANCH   5  31
ATOM     31  C   UNL     1      27.814 -22.008 -15.057  0.00  0.00    +0.169 C 
BRANCH  31  32
ATOM     32  O   UNL     1      26.799 -22.028 -16.045  0.00  0.00    -0.379 OA
ATOM     33  H   UNL     1      26.085 -22.622 -15.763  0.00  0.00    +0.211 HD
ENDBRANCH  31  32
ENDBRANCH   5  31
TORSDOF 12
ENDMDL
MODEL 8
REMARK VINA RESULT:      -7.8      6.573     10.664
REMARK  Name = 11582002
REMARK  12 active torsions:
REMARK  status: ('A' for Active; 'I' for Inactive)
REMARK    1  A    between atoms: N_2  and  C_7
REMARK    2  A    between atoms: N_2  and  O_20
REMARK    3  A    between atoms: C_3  and  O_16
REMARK    4  A    between atoms: C_4  and  O_18
REMARK    5  A    between atoms: C_5  and  N_9
REMARK    6  A    between atoms: C_6  and  C_31
REMARK    7  A    between atoms: C_10  and  C_12
REMARK    8  A    between atoms: C_12  and  C_13
REMARK    9  A    between atoms: C_13  and  C_14
REMARK   10  A    between atoms: O_20  and  C_23
REMARK   11  A    between atoms: N_22  and  C_25
REMARK   12  A    between atoms: C_31  and  O_32
REMARK                            x       y       z     vdW  Elec       q    Type
REMARK                         _______ _______ _______ _____ _____    ______ ____
ROOT
ATOM      1  O   UNL     1      33.267 -18.161 -20.771  0.00  0.00    -0.333 OA
ATOM      2  C   UNL     1      35.885 -18.766 -21.890  0.00  0.00    +0.161 C 
ATOM      3  C   UNL     1      35.092 -19.731 -21.007  0.00  0.00    +0.169 C 
ATOM      4  C   UNL     1      35.211 -17.403 -22.068  0.00  0.00    +0.149 C 
ATOM      5  C   UNL     1      33.596 -19.502 -21.194  0.00  0.00    +0.175 C 
ATOM      6  C   UNL     1      34.073 -17.143 -21.120  0.00  0.00    +0.251 C 
ENDROOT
BRANCH   4   8
ATOM      7  O   UNL     1      35.010 -14.980 -23.624  0.00  0.00    -0.275 OA
ATOM      8  N   UNL     1      34.626 -17.259 -23.378  0.00  0.00    -0.300 N 
ATOM      9  C   UNL     1      34.574 -16.046 -24.052  0.00  0.00    +0.223 C 
ATOM     10  H   UNL     1      34.246 -18.055 -23.814  0.00  0.00    +0.150 HD
BRANCH   9  11
ATOM     11  C   UNL     1      33.906 -16.188 -25.409  0.00  0.00    +0.085 C 
BRANCH  11  12
ATOM     12  C   UNL     1      33.022 -14.991 -25.752  0.00  0.00    +0.010 C 
BRANCH  12  13
ATOM     13  C   UNL     1      33.417 -14.374 -27.093  0.00  0.00    +0.001 C 
ATOM     14  C   UNL     1      33.327 -12.856 -27.055  0.00  0.00    +0.000 C 
ENDBRANCH  12  13
ENDBRANCH  11  12
ENDBRANCH   9  11
ENDBRANCH   4   8
BRANCH   2  15
ATOM     15  O   UNL     1      37.169 -18.585 -21.284  0.00  0.00    -0.380 OA
ATOM     16  H   UNL     1      37.504 -19.441 -20.976  0.00  0.00    +0.211 HD
ENDBRANCH   2  15
BRANCH   3  17
ATOM     17  O   UNL     1      35.461 -21.060 -21.363  0.00  0.00    -0.379 OA
ATOM     18  H   UNL     1      36.413 -21.094 -21.544  0.00  0.00    +0.211 HD
ENDBRANCH   3  17
BRANCH   6  19
ATOM     19  N   UNL     1      33.838 -15.958 -20.662  0.00  0.00    +0.008 NA
BRANCH  19  20
ATOM     20  O   UNL     1      32.654 -15.488 -21.246  0.00  0.00    -0.330 OA
BRANCH  20  23
ATOM     21  O   UNL     1      32.605 -13.527 -20.056  0.00  0.00    -0.224 OA
ATOM     22  N   UNL     1      32.578 -13.572 -22.396  0.00  0.00    -0.249 N 
ATOM     23  C   UNL     1      32.611 -14.122 -21.128  0.00  0.00    +0.425 C 
ATOM     24  H   UNL     1      32.591 -14.213 -23.143  0.00  0.00    +0.158 HD
BRANCH  22  25
ATOM     25  C   UNL     1      32.530 -12.206 -22.752  0.00  0.00    +0.053 C 
ATOM     26  C   UNL     1      33.454 -11.689 -23.662  0.00  0.00    +0.015 C 
ATOM     27  C   UNL     1      31.559 -11.373 -22.196  0.00  0.00    +0.015 C 
ATOM     28  C   UNL     1      33.406 -10.340 -24.014  0.00  0.00    +0.001 C 
ATOM     29  C   UNL     1      31.511 -10.024 -22.548  0.00  0.00    +0.001 C 
ATOM     30  C   UNL     1      32.434  -9.508 -23.457  0.00  0.00    +0.000 C 
ENDBRANCH  22  25
ENDBRANCH  20  23
ENDBRANCH  19  20
ENDBRANCH   6  19
BRANCH   5  31
ATOM     31  C   UNL     1      32.744 -20.451 -20.357  0.00  0.00    +0.169 C 
BRANCH  31  32
ATOM     32  O   UNL     1      33.579 -21.091 -19.409  0.00  0.00    -0.379 OA
ATOM     33  H   UNL     1      34.487 -20.766 -19.507  0.00  0.00    +0.211 HD
ENDBRANCH  31  32
ENDBRANCH   5  31
TORSDOF 12
ENDMDL
MODEL 9
REMARK VINA RESULT:      -7.6      9.771     14.792
REMARK  Name = 11582002
REMARK  12 active torsions:
REMARK  status: ('A' for Active; 'I' for Inactive)
REMARK    1  A    between atoms: N_2  and  C_7
REMARK    2  A    between atoms: N_2  and  O_20
REMARK    3  A    between atoms: C_3  and  O_16
REMARK    4  A    between atoms: C_4  and  O_18
REMARK    5  A    between atoms: C_5  and  N_9
REMARK    6  A    between atoms: C_6  and  C_31
REMARK    7  A    between atoms: C_10  and  C_12
REMARK    8  A    between atoms: C_12  and  C_13
REMARK    9  A    between atoms: C_13  and  C_14
REMARK   10  A    between atoms: O_20  and  C_23
REMARK   11  A    between atoms: N_22  and  C_25
REMARK   12  A    between atoms: C_31  and  O_32
REMARK                            x       y       z     vdW  Elec       q    Type
REMARK                         _______ _______ _______ _____ _____    ______ ____
ROOT
ATOM      1  O   UNL     1      33.060 -12.566 -24.880  0.00  0.00    -0.333 OA
ATOM      2  C   UNL     1      34.751 -10.199 -24.789  0.00  0.00    +0.161 C 
ATOM      3  C   UNL     1      34.891 -11.306 -25.835  0.00  0.00    +0.169 C 
ATOM      4  C   UNL     1      33.685 -10.487 -23.729  0.00  0.00    +0.149 C 
ATOM      5  C   UNL     1      33.535 -11.952 -26.097  0.00  0.00    +0.175 C 
ATOM      6  C   UNL     1      33.190 -11.906 -23.714  0.00  0.00    +0.251 C 
ENDROOT
BRANCH   4   8
ATOM      7  O   UNL     1      32.354  -8.821 -21.783  0.00  0.00    -0.275 OA
ATOM      8  N   UNL     1      32.497  -9.695 -23.932  0.00  0.00    -0.300 N 
ATOM      9  C   UNL     1      31.926  -8.922 -22.930  0.00  0.00    +0.223 C 
ATOM     10  H   UNL     1      32.071  -9.703 -24.819  0.00  0.00    +0.150 HD
BRANCH   9  11
ATOM     11  C   UNL     1      30.687  -8.194 -23.422  0.00  0.00    +0.085 C 
BRANCH  11  12
ATOM     12  C   UNL     1      31.025  -7.007 -24.322  0.00  0.00    +0.010 C 
BRANCH  12  13
ATOM     13  C   UNL     1      31.738  -5.903 -23.542  0.00  0.00    +0.001 C 
ATOM     14  C   UNL     1      30.862  -5.354 -22.427  0.00  0.00    +0.000 C 
ENDBRANCH  12  13
ENDBRANCH  11  12
ENDBRANCH   9  11
ENDBRANCH   4   8
BRANCH   2  15
ATOM     15  O   UNL     1      36.024 -10.045 -24.152  0.00  0.00    -0.380 OA
ATOM     16  H   UNL     1      36.195  -9.104 -23.994  0.00  0.00    +0.211 HD
ENDBRANCH   2  15
BRANCH   3  17
ATOM     17  O   UNL     1      35.429 -10.729 -27.020  0.00  0.00    -0.379 OA
ATOM     18  H   UNL     1      34.750 -10.724 -27.714  0.00  0.00    +0.211 HD
ENDBRANCH   3  17
BRANCH   6  19
ATOM     19  N   UNL     1      32.857 -12.490 -22.611  0.00  0.00    +0.008 NA
BRANCH  19  20
ATOM     20  O   UNL     1      33.918 -13.312 -22.211  0.00  0.00    -0.330 OA
BRANCH  20  23
ATOM     21  O   UNL     1      32.473 -15.088 -22.052  0.00  0.00    -0.224 OA
ATOM     22  N   UNL     1      34.605 -15.290 -22.995  0.00  0.00    -0.249 N 
ATOM     23  C   UNL     1      33.557 -14.624 -22.389  0.00  0.00    +0.425 C 
ATOM     24  H   UNL     1      35.402 -14.748 -23.193  0.00  0.00    +0.158 HD
BRANCH  22  25
ATOM     25  C   UNL     1      34.674 -16.651 -23.367  0.00  0.00    +0.053 C 
ATOM     26  C   UNL     1      34.976 -17.622 -22.411  0.00  0.00    +0.015 C 
ATOM     27  C   UNL     1      34.439 -17.026 -24.690  0.00  0.00    +0.015 C 
ATOM     28  C   UNL     1      35.043 -18.965 -22.779  0.00  0.00    +0.001 C 
ATOM     29  C   UNL     1      34.507 -18.370 -25.058  0.00  0.00    +0.001 C 
ATOM     30  C   UNL     1      34.809 -19.339 -24.102  0.00  0.00    +0.000 C 
ENDBRANCH  22  25
ENDBRANCH  20  23
ENDBRANCH  19  20
ENDBRANCH   6  19
BRANCH   5  31
ATOM     31  C   UNL     1      33.599 -13.053 -27.151  0.00  0.00    +0.169 C 
BRANCH  31  32
ATOM     32  O   UNL     1      33.173 -14.268 -26.561  0.00  0.00    -0.379 OA
ATOM     33  H   UNL     1      32.371 -14.111 -26.039  0.00  0.00    +0.211 HD
ENDBRANCH  31  32
ENDBRANCH   5  31
TORSDOF 12
ENDMDL
