MODEL 1
REMARK VINA RESULT:     -11.2      0.000      0.000
REMARK  Name = 11394238
REMARK  5 active torsions:
REMARK  status: ('A' for Active; 'I' for Inactive)
REMARK    1  A    between atoms: C_4  and  C_19
REMARK    2  A    between atoms: C_9  and  O_10
REMARK    3  A    between atoms: O_10  and  C_11
REMARK    4  A    between atoms: C_11  and  C_12
REMARK    5  A    between atoms: C_19  and  N_20
REMARK                            x       y       z     vdW  Elec       q    Type
REMARK                         _______ _______ _______ _____ _____    ______ ____
ROOT
ATOM      1  F   UNL     1      31.940 -13.819 -23.437  0.00  0.00    -0.235 F 
ATOM      2  O   UNL     1      34.581 -16.715 -23.915  0.00  0.00    -0.226 OA
ATOM      3  N   UNL     1      34.153 -15.204 -22.202  0.00  0.00    -0.243 N 
ATOM      4  C   UNL     1      32.712 -12.805 -21.449  0.00  0.00    +0.056 C 
ATOM      5  C   UNL     1      33.004 -13.142 -22.916  0.00  0.00    +0.182 C 
ATOM      6  C   UNL     1      32.635 -14.091 -20.611  0.00  0.00    +0.026 C 
ATOM      7  C   UNL     1      34.239 -14.024 -23.065  0.00  0.00    +0.132 C 
ATOM      8  C   UNL     1      33.896 -14.934 -20.784  0.00  0.00    +0.097 C 
ATOM      9  C   UNL     1      34.366 -16.482 -22.728  0.00  0.00    +0.405 C 
ENDROOT
BRANCH   9  10
ATOM     10  O   UNL     1      34.310 -17.463 -21.773  0.00  0.00    -0.430 OA
BRANCH  10  11
ATOM     11  C   UNL     1      35.155 -18.599 -21.984  0.00  0.00    +0.237 C 
BRANCH  11  12
ATOM     12  C   UNL     1      34.757 -19.689 -21.034  0.00  0.00    +0.021 C 
ATOM     13  C   UNL     1      33.412 -19.897 -20.750  0.00  0.00    -0.001 C 
ATOM     14  C   UNL     1      35.736 -20.481 -20.445  0.00  0.00    -0.001 C 
ATOM     15  C   UNL     1      34.018 -21.709 -19.271  0.00  0.00    -0.022 C 
ATOM     16  C   UNL     1      33.042 -20.911 -19.865  0.00  0.00    -0.004 C 
ATOM     17  C   UNL     1      35.365 -21.495 -19.561  0.00  0.00    -0.004 C 
ATOM     18  C   UNL     1      33.622 -22.793 -18.327  0.00  0.00    +0.031 C 
ENDBRANCH  11  12
ENDBRANCH  10  11
ENDBRANCH   9  10
BRANCH   4  19
ATOM     19  C   UNL     1      31.422 -11.998 -21.316  0.00  0.00    +0.100 C 
BRANCH  19  20
ATOM     20  N   UNL     1      31.609 -10.933 -20.367  0.00  0.00    -0.278 N 
ATOM     21  N   UNL     1      32.030  -8.718 -19.717  0.00  0.00    -0.181 NA
ATOM     22  N   UNL     1      31.966  -9.333 -22.046  0.00  0.00    -0.203 NA
ATOM     23  C   UNL     1      31.877  -9.618 -20.722  0.00  0.00    +0.087 C 
ATOM     24  C   UNL     1      32.289  -7.450 -20.098  0.00  0.00    +0.108 C 
ATOM     25  C   UNL     1      32.228  -8.047 -22.356  0.00  0.00    +0.165 C 
ATOM     26  C   UNL     1      32.401  -7.052 -21.414  0.00  0.00    +0.022 C 
ATOM     27  H   UNL     1      31.543 -11.150 -19.408  0.00  0.00    +0.158 HD
ENDBRANCH  19  20
ENDBRANCH   4  19
TORSDOF 5
ENDMDL
MODEL 2
REMARK VINA RESULT:     -10.9      2.685      9.793
REMARK  Name = 11394238
REMARK  5 active torsions:
REMARK  status: ('A' for Active; 'I' for Inactive)
REMARK    1  A    between atoms: C_4  and  C_19
REMARK    2  A    between atoms: C_9  and  O_10
REMARK    3  A    between atoms: O_10  and  C_11
REMARK    4  A    between atoms: C_11  and  C_12
REMARK    5  A    between atoms: C_19  and  N_20
REMARK                            x       y       z     vdW  Elec       q    Type
REMARK                         _______ _______ _______ _____ _____    ______ ____
ROOT
ATOM      1  F   UNL     1      33.276 -16.944 -20.955  0.00  0.00    -0.235 F 
ATOM      2  O   UNL     1      32.185 -13.226 -20.195  0.00  0.00    -0.226 OA
ATOM      3  N   UNL     1      33.657 -14.185 -21.716  0.00  0.00    -0.243 N 
ATOM      4  C   UNL     1      35.050 -16.609 -22.478  0.00  0.00    +0.056 C 
ATOM      5  C   UNL     1      34.522 -16.397 -21.054  0.00  0.00    +0.182 C 
ATOM      6  C   UNL     1      34.205 -15.812 -23.484  0.00  0.00    +0.026 C 
ATOM      7  C   UNL     1      34.414 -14.918 -20.700  0.00  0.00    +0.132 C 
ATOM      8  C   UNL     1      34.136 -14.338 -23.094  0.00  0.00    +0.097 C 
ATOM      9  C   UNL     1      32.592 -13.358 -21.347  0.00  0.00    +0.405 C 
ENDROOT
BRANCH   9  10
ATOM     10  O   UNL     1      32.037 -12.701 -22.415  0.00  0.00    -0.430 OA
BRANCH  10  11
ATOM     11  C   UNL     1      31.406 -11.449 -22.126  0.00  0.00    +0.237 C 
BRANCH  11  12
ATOM     12  C   UNL     1      32.289 -10.334 -22.603  0.00  0.00    +0.021 C 
ATOM     13  C   UNL     1      33.253 -10.587 -23.573  0.00  0.00    -0.001 C 
ATOM     14  C   UNL     1      32.135  -9.059 -22.071  0.00  0.00    -0.001 C 
ATOM     15  C   UNL     1      33.926  -8.268 -23.487  0.00  0.00    -0.022 C 
ATOM     16  C   UNL     1      34.074  -9.549 -24.016  0.00  0.00    -0.004 C 
ATOM     17  C   UNL     1      32.957  -8.022 -22.515  0.00  0.00    -0.004 C 
ATOM     18  C   UNL     1      34.804  -7.159 -23.962  0.00  0.00    +0.031 C 
ENDBRANCH  11  12
ENDBRANCH  10  11
ENDBRANCH   9  10
BRANCH   4  19
ATOM     19  C   UNL     1      35.064 -18.092 -22.843  0.00  0.00    +0.100 C 
BRANCH  19  20
ATOM     20  N   UNL     1      35.829 -18.825 -21.870  0.00  0.00    -0.278 N 
ATOM     21  N   UNL     1      36.129 -20.380 -20.137  0.00  0.00    -0.181 NA
ATOM     22  N   UNL     1      33.950 -19.994 -21.089  0.00  0.00    -0.203 NA
ATOM     23  C   UNL     1      35.285 -19.764 -21.003  0.00  0.00    +0.087 C 
ATOM     24  C   UNL     1      35.566 -21.285 -19.311  0.00  0.00    +0.108 C 
ATOM     25  C   UNL     1      33.453 -20.911 -20.234  0.00  0.00    +0.165 C 
ATOM     26  C   UNL     1      34.222 -21.595 -19.314  0.00  0.00    +0.022 C 
ATOM     27  H   UNL     1      36.797 -18.652 -21.815  0.00  0.00    +0.158 HD
ENDBRANCH  19  20
ENDBRANCH   4  19
TORSDOF 5
ENDMDL
MODEL 3
REMARK VINA RESULT:     -10.8      4.685     10.318
REMARK  Name = 11394238
REMARK  5 active torsions:
REMARK  status: ('A' for Active; 'I' for Inactive)
REMARK    1  A    between atoms: C_4  and  C_19
REMARK    2  A    between atoms: C_9  and  O_10
REMARK    3  A    between atoms: O_10  and  C_11
REMARK    4  A    between atoms: C_11  and  C_12
REMARK    5  A    between atoms: C_19  and  N_20
REMARK                            x       y       z     vdW  Elec       q    Type
REMARK                         _______ _______ _______ _____ _____    ______ ____
ROOT
ATOM      1  F   UNL     1      35.810 -21.255 -18.402  0.00  0.00    -0.235 F 
ATOM      2  O   UNL     1      36.697 -18.616 -21.203  0.00  0.00    -0.226 OA
ATOM      3  N   UNL     1      34.899 -20.049 -20.863  0.00  0.00    -0.243 N 
ATOM      4  C   UNL     1      33.900 -22.294 -19.326  0.00  0.00    +0.056 C 
ATOM      5  C   UNL     1      35.402 -22.014 -19.460  0.00  0.00    +0.182 C 
ATOM      6  C   UNL     1      33.100 -20.989 -19.464  0.00  0.00    +0.026 C 
ATOM      7  C   UNL     1      35.728 -21.249 -20.738  0.00  0.00    +0.132 C 
ATOM      8  C   UNL     1      33.452 -20.267 -20.762  0.00  0.00    +0.097 C 
ATOM      9  C   UNL     1      35.486 -18.806 -21.118  0.00  0.00    +0.405 C 
ENDROOT
BRANCH   9  10
ATOM     10  O   UNL     1      34.561 -17.805 -21.266  0.00  0.00    -0.430 OA
BRANCH  10  11
ATOM     11  C   UNL     1      34.838 -16.836 -22.283  0.00  0.00    +0.237 C 
BRANCH  11  12
ATOM     12  C   UNL     1      33.986 -15.623 -22.049  0.00  0.00    +0.021 C 
ATOM     13  C   UNL     1      33.590 -15.301 -20.756  0.00  0.00    -0.001 C 
ATOM     14  C   UNL     1      33.602 -14.834 -23.126  0.00  0.00    -0.001 C 
ATOM     15  C   UNL     1      32.407 -13.377 -21.614  0.00  0.00    -0.022 C 
ATOM     16  C   UNL     1      32.797 -14.173 -20.538  0.00  0.00    -0.004 C 
ATOM     17  C   UNL     1      32.809 -13.706 -22.908  0.00  0.00    -0.004 C 
ATOM     18  C   UNL     1      31.561 -12.171 -21.380  0.00  0.00    +0.031 C 
ENDBRANCH  11  12
ENDBRANCH  10  11
ENDBRANCH   9  10
BRANCH   4  19
ATOM     19  C   UNL     1      33.586 -22.979 -17.997  0.00  0.00    +0.100 C 
BRANCH  19  20
ATOM     20  N   UNL     1      32.193 -22.813 -17.682  0.00  0.00    -0.278 N 
ATOM     21  N   UNL     1      30.306 -22.901 -16.289  0.00  0.00    -0.181 NA
ATOM     22  N   UNL     1      32.472 -23.582 -15.483  0.00  0.00    -0.203 NA
ATOM     23  C   UNL     1      31.638 -23.108 -16.444  0.00  0.00    +0.087 C 
ATOM     24  C   UNL     1      29.801 -23.198 -15.074  0.00  0.00    +0.108 C 
ATOM     25  C   UNL     1      31.901 -23.859 -14.292  0.00  0.00    +0.165 C 
ATOM     26  C   UNL     1      30.558 -23.685 -14.028  0.00  0.00    +0.022 C 
ATOM     27  H   UNL     1      31.595 -22.468 -18.385  0.00  0.00    +0.158 HD
ENDBRANCH  19  20
ENDBRANCH   4  19
TORSDOF 5
ENDMDL
MODEL 4
REMARK VINA RESULT:     -10.6      2.030      2.660
REMARK  Name = 11394238
REMARK  5 active torsions:
REMARK  status: ('A' for Active; 'I' for Inactive)
REMARK    1  A    between atoms: C_4  and  C_19
REMARK    2  A    between atoms: C_9  and  O_10
REMARK    3  A    between atoms: O_10  and  C_11
REMARK    4  A    between atoms: C_11  and  C_12
REMARK    5  A    between atoms: C_19  and  N_20
REMARK                            x       y       z     vdW  Elec       q    Type
REMARK                         _______ _______ _______ _____ _____    ______ ____
ROOT
ATOM      1  F   UNL     1      32.886 -15.530 -25.276  0.00  0.00    -0.235 F 
ATOM      2  O   UNL     1      34.247 -19.143 -24.447  0.00  0.00    -0.226 OA
ATOM      3  N   UNL     1      34.723 -17.022 -23.622  0.00  0.00    -0.243 N 
ATOM      4  C   UNL     1      34.358 -14.175 -24.021  0.00  0.00    +0.056 C 
ATOM      5  C   UNL     1      34.200 -15.176 -25.171  0.00  0.00    +0.182 C 
ATOM      6  C   UNL     1      34.040 -14.851 -22.678  0.00  0.00    +0.026 C 
ATOM      7  C   UNL     1      35.009 -16.447 -24.938  0.00  0.00    +0.132 C 
ATOM      8  C   UNL     1      34.881 -16.109 -22.485  0.00  0.00    +0.097 C 
ATOM      9  C   UNL     1      34.382 -18.372 -23.498  0.00  0.00    +0.405 C 
ENDROOT
BRANCH   9  10
ATOM     10  O   UNL     1      34.210 -18.757 -22.194  0.00  0.00    -0.430 OA
BRANCH  10  11
ATOM     11  C   UNL     1      35.349 -19.341 -21.553  0.00  0.00    +0.237 C 
BRANCH  11  12
ATOM     12  C   UNL     1      34.879 -20.345 -20.541  0.00  0.00    +0.021 C 
ATOM     13  C   UNL     1      33.517 -20.514 -20.321  0.00  0.00    -0.001 C 
ATOM     14  C   UNL     1      35.811 -21.095 -19.832  0.00  0.00    -0.001 C 
ATOM     15  C   UNL     1      34.009 -22.203 -18.664  0.00  0.00    -0.022 C 
ATOM     16  C   UNL     1      33.081 -21.447 -19.379  0.00  0.00    -0.004 C 
ATOM     17  C   UNL     1      35.374 -22.028 -18.890  0.00  0.00    -0.004 C 
ATOM     18  C   UNL     1      33.542 -23.200 -17.659  0.00  0.00    +0.031 C 
ENDBRANCH  11  12
ENDBRANCH  10  11
ENDBRANCH   9  10
BRANCH   4  19
ATOM     19  C   UNL     1      33.470 -12.951 -24.232  0.00  0.00    +0.100 C 
BRANCH  19  20
ATOM     20  N   UNL     1      34.288 -11.784 -24.429  0.00  0.00    -0.278 N 
ATOM     21  N   UNL     1      34.849  -9.518 -24.186  0.00  0.00    -0.181 NA
ATOM     22  N   UNL     1      32.842 -10.409 -23.194  0.00  0.00    -0.203 NA
ATOM     23  C   UNL     1      33.983 -10.529 -23.919  0.00  0.00    +0.087 C 
ATOM     24  C   UNL     1      34.522  -8.314 -23.675  0.00  0.00    +0.108 C 
ATOM     25  C   UNL     1      32.576  -9.177 -22.714  0.00  0.00    +0.165 C 
ATOM     26  C   UNL     1      33.388  -8.081 -22.925  0.00  0.00    +0.022 C 
ATOM     27  H   UNL     1      35.114 -11.881 -24.957  0.00  0.00    +0.158 HD
ENDBRANCH  19  20
ENDBRANCH   4  19
TORSDOF 5
ENDMDL
MODEL 5
REMARK VINA RESULT:     -10.3      2.921     10.147
REMARK  Name = 11394238
REMARK  5 active torsions:
REMARK  status: ('A' for Active; 'I' for Inactive)
REMARK    1  A    between atoms: C_4  and  C_19
REMARK    2  A    between atoms: C_9  and  O_10
REMARK    3  A    between atoms: O_10  and  C_11
REMARK    4  A    between atoms: C_11  and  C_12
REMARK    5  A    between atoms: C_19  and  N_20
REMARK                            x       y       z     vdW  Elec       q    Type
REMARK                         _______ _______ _______ _____ _____    ______ ____
ROOT
ATOM      1  F   UNL     1      35.529 -15.652 -24.015  0.00  0.00    -0.235 F 
ATOM      2  O   UNL     1      33.985 -12.374 -25.583  0.00  0.00    -0.226 OA
ATOM      3  N   UNL     1      33.451 -13.669 -23.728  0.00  0.00    -0.243 N 
ATOM      4  C   UNL     1      33.932 -16.175 -22.356  0.00  0.00    +0.056 C 
ATOM      5  C   UNL     1      34.222 -16.007 -23.852  0.00  0.00    +0.182 C 
ATOM      6  C   UNL     1      34.050 -14.823 -21.635  0.00  0.00    +0.026 C 
ATOM      7  C   UNL     1      33.359 -14.920 -24.483  0.00  0.00    +0.132 C 
ATOM      8  C   UNL     1      33.161 -13.772 -22.295  0.00  0.00    +0.097 C 
ATOM      9  C   UNL     1      33.741 -12.467 -24.382  0.00  0.00    +0.405 C 
ENDROOT
BRANCH   9  10
ATOM     10  O   UNL     1      33.725 -11.388 -23.537  0.00  0.00    -0.430 OA
BRANCH  10  11
ATOM     11  C   UNL     1      34.274 -10.172 -24.057  0.00  0.00    +0.237 C 
BRANCH  11  12
ATOM     12  C   UNL     1      33.401  -9.024 -23.642  0.00  0.00    +0.021 C 
ATOM     13  C   UNL     1      32.019  -9.183 -23.622  0.00  0.00    -0.001 C 
ATOM     14  C   UNL     1      33.981  -7.814 -23.281  0.00  0.00    -0.001 C 
ATOM     15  C   UNL     1      31.782  -6.898 -22.873  0.00  0.00    -0.022 C 
ATOM     16  C   UNL     1      31.208  -8.116 -23.236  0.00  0.00    -0.004 C 
ATOM     17  C   UNL     1      33.168  -6.747 -22.895  0.00  0.00    -0.004 C 
ATOM     18  C   UNL     1      30.914  -5.758 -22.460  0.00  0.00    +0.031 C 
ENDBRANCH  11  12
ENDBRANCH  10  11
ENDBRANCH   9  10
BRANCH   4  19
ATOM     19  C   UNL     1      34.869 -17.204 -21.726  0.00  0.00    +0.100 C 
BRANCH  19  20
ATOM     20  N   UNL     1      34.107 -18.321 -21.236  0.00  0.00    -0.278 N 
ATOM     21  N   UNL     1      33.826 -20.426 -20.238  0.00  0.00    -0.181 NA
ATOM     22  N   UNL     1      36.023 -19.488 -20.550  0.00  0.00    -0.203 NA
ATOM     23  C   UNL     1      34.670 -19.449 -20.656  0.00  0.00    +0.087 C 
ATOM     24  C   UNL     1      34.408 -21.507 -19.679  0.00  0.00    +0.108 C 
ATOM     25  C   UNL     1      36.538 -20.597 -19.982  0.00  0.00    +0.165 C 
ATOM     26  C   UNL     1      35.772 -21.649 -19.523  0.00  0.00    +0.022 C 
ATOM     27  H   UNL     1      33.125 -18.284 -21.317  0.00  0.00    +0.158 HD
ENDBRANCH  19  20
ENDBRANCH   4  19
TORSDOF 5
ENDMDL
MODEL 6
REMARK VINA RESULT:     -10.1      1.783      2.507
REMARK  Name = 11394238
REMARK  5 active torsions:
REMARK  status: ('A' for Active; 'I' for Inactive)
REMARK    1  A    between atoms: C_4  and  C_19
REMARK    2  A    between atoms: C_9  and  O_10
REMARK    3  A    between atoms: O_10  and  C_11
REMARK    4  A    between atoms: C_11  and  C_12
REMARK    5  A    between atoms: C_19  and  N_20
REMARK                            x       y       z     vdW  Elec       q    Type
REMARK                         _______ _______ _______ _____ _____    ______ ____
ROOT
ATOM      1  F   UNL     1      34.714 -13.415 -21.965  0.00  0.00    -0.235 F 
ATOM      2  O   UNL     1      35.234 -16.851 -20.090  0.00  0.00    -0.226 OA
ATOM      3  N   UNL     1      34.214 -16.256 -22.092  0.00  0.00    -0.243 N 
ATOM      4  C   UNL     1      33.267 -14.053 -23.719  0.00  0.00    +0.056 C 
ATOM      5  C   UNL     1      33.465 -13.909 -22.206  0.00  0.00    +0.182 C 
ATOM      6  C   UNL     1      34.214 -15.125 -24.282  0.00  0.00    +0.026 C 
ATOM      7  C   UNL     1      33.345 -15.247 -21.484  0.00  0.00    +0.132 C 
ATOM      8  C   UNL     1      34.048 -16.446 -23.536  0.00  0.00    +0.097 C 
ATOM      9  C   UNL     1      35.089 -17.006 -21.301  0.00  0.00    +0.405 C 
ENDROOT
BRANCH   9  10
ATOM     10  O   UNL     1      35.781 -17.945 -22.021  0.00  0.00    -0.430 OA
BRANCH  10  11
ATOM     11  C   UNL     1      35.022 -19.067 -22.487  0.00  0.00    +0.237 C 
BRANCH  11  12
ATOM     12  C   UNL     1      34.745 -19.984 -21.332  0.00  0.00    +0.021 C 
ATOM     13  C   UNL     1      33.436 -20.174 -20.904  0.00  0.00    -0.001 C 
ATOM     14  C   UNL     1      35.799 -20.635 -20.702  0.00  0.00    -0.001 C 
ATOM     15  C   UNL     1      34.231 -21.683 -19.192  0.00  0.00    -0.022 C 
ATOM     16  C   UNL     1      33.179 -21.027 -19.830  0.00  0.00    -0.004 C 
ATOM     17  C   UNL     1      35.541 -21.488 -19.628  0.00  0.00    -0.004 C 
ATOM     18  C   UNL     1      33.955 -22.595 -18.045  0.00  0.00    +0.031 C 
ENDBRANCH  11  12
ENDBRANCH  10  11
ENDBRANCH   9  10
BRANCH   4  19
ATOM     19  C   UNL     1      33.482 -12.718 -24.430  0.00  0.00    +0.100 C 
BRANCH  19  20
ATOM     20  N   UNL     1      32.874 -11.659 -23.671  0.00  0.00    -0.278 N 
ATOM     21  N   UNL     1      32.698  -9.470 -22.844  0.00  0.00    -0.181 NA
ATOM     22  N   UNL     1      34.515 -10.102 -24.295  0.00  0.00    -0.203 NA
ATOM     23  C   UNL     1      33.379 -10.368 -23.601  0.00  0.00    +0.087 C 
ATOM     24  C   UNL     1      33.216  -8.225 -22.799  0.00  0.00    +0.108 C 
ATOM     25  C   UNL     1      34.978  -8.838 -24.205  0.00  0.00    +0.165 C 
ATOM     26  C   UNL     1      34.365  -7.848 -23.466  0.00  0.00    +0.022 C 
ATOM     27  H   UNL     1      32.050 -11.861 -23.170  0.00  0.00    +0.158 HD
ENDBRANCH  19  20
ENDBRANCH   4  19
TORSDOF 5
ENDMDL
MODEL 7
REMARK VINA RESULT:     -10.0      4.694     10.692
REMARK  Name = 11394238
REMARK  5 active torsions:
REMARK  status: ('A' for Active; 'I' for Inactive)
REMARK    1  A    between atoms: C_4  and  C_19
REMARK    2  A    between atoms: C_9  and  O_10
REMARK    3  A    between atoms: O_10  and  C_11
REMARK    4  A    between atoms: C_11  and  C_12
REMARK    5  A    between atoms: C_19  and  N_20
REMARK                            x       y       z     vdW  Elec       q    Type
REMARK                         _______ _______ _______ _____ _____    ______ ____
ROOT
ATOM      1  F   UNL     1      35.566 -21.200 -18.289  0.00  0.00    -0.235 F 
ATOM      2  O   UNL     1      36.750 -18.769 -21.166  0.00  0.00    -0.226 OA
ATOM      3  N   UNL     1      34.865 -20.095 -20.862  0.00  0.00    -0.243 N 
ATOM      4  C   UNL     1      33.666 -22.199 -19.272  0.00  0.00    +0.056 C 
ATOM      5  C   UNL     1      35.185 -21.998 -19.327  0.00  0.00    +0.182 C 
ATOM      6  C   UNL     1      32.942 -20.869 -19.530  0.00  0.00    +0.026 C 
ATOM      7  C   UNL     1      35.625 -21.323 -20.622  0.00  0.00    +0.132 C 
ATOM      8  C   UNL     1      33.406 -20.238 -20.840  0.00  0.00    +0.097 C 
ATOM      9  C   UNL     1      35.528 -18.896 -21.147  0.00  0.00    +0.405 C 
ENDROOT
BRANCH   9  10
ATOM     10  O   UNL     1      34.665 -17.864 -21.406  0.00  0.00    -0.430 OA
BRANCH  10  11
ATOM     11  C   UNL     1      35.203 -16.765 -22.150  0.00  0.00    +0.237 C 
BRANCH  11  12
ATOM     12  C   UNL     1      34.291 -15.582 -22.004  0.00  0.00    +0.021 C 
ATOM     13  C   UNL     1      34.187 -14.662 -23.041  0.00  0.00    -0.001 C 
ATOM     14  C   UNL     1      33.559 -15.418 -20.834  0.00  0.00    -0.001 C 
ATOM     15  C   UNL     1      32.602 -13.390 -21.733  0.00  0.00    -0.022 C 
ATOM     16  C   UNL     1      33.339 -13.561 -22.904  0.00  0.00    -0.004 C 
ATOM     17  C   UNL     1      32.711 -14.318 -20.698  0.00  0.00    -0.004 C 
ATOM     18  C   UNL     1      31.696 -12.215 -21.589  0.00  0.00    +0.031 C 
ENDBRANCH  11  12
ENDBRANCH  10  11
ENDBRANCH   9  10
BRANCH   4  19
ATOM     19  C   UNL     1      33.239 -22.793 -17.931  0.00  0.00    +0.100 C 
BRANCH  19  20
ATOM     20  N   UNL     1      34.367 -23.418 -17.294  0.00  0.00    -0.278 N 
ATOM     21  N   UNL     1      35.546 -24.331 -15.482  0.00  0.00    -0.181 NA
ATOM     22  N   UNL     1      33.323 -23.447 -15.193  0.00  0.00    -0.203 NA
ATOM     23  C   UNL     1      34.414 -23.743 -15.946  0.00  0.00    +0.087 C 
ATOM     24  C   UNL     1      35.556 -24.633 -14.168  0.00  0.00    +0.108 C 
ATOM     25  C   UNL     1      33.401 -23.775 -13.887  0.00  0.00    +0.165 C 
ATOM     26  C   UNL     1      34.503 -24.376 -13.314  0.00  0.00    +0.022 C 
ATOM     27  H   UNL     1      35.154 -23.629 -17.848  0.00  0.00    +0.158 HD
ENDBRANCH  19  20
ENDBRANCH   4  19
TORSDOF 5
ENDMDL
MODEL 8
REMARK VINA RESULT:      -9.9      7.873     11.797
REMARK  Name = 11394238
REMARK  5 active torsions:
REMARK  status: ('A' for Active; 'I' for Inactive)
REMARK    1  A    between atoms: C_4  and  C_19
REMARK    2  A    between atoms: C_9  and  O_10
REMARK    3  A    between atoms: O_10  and  C_11
REMARK    4  A    between atoms: C_11  and  C_12
REMARK    5  A    between atoms: C_19  and  N_20
REMARK                            x       y       z     vdW  Elec       q    Type
REMARK                         _______ _______ _______ _____ _____    ______ ____
ROOT
ATOM      1  F   UNL     1      35.740 -22.898 -13.397  0.00  0.00    -0.235 F 
ATOM      2  O   UNL     1      38.277 -21.756 -16.200  0.00  0.00    -0.226 OA
ATOM      3  N   UNL     1      36.279 -22.944 -16.234  0.00  0.00    -0.243 N 
ATOM      4  C   UNL     1      34.287 -24.298 -14.623  0.00  0.00    +0.056 C 
ATOM      5  C   UNL     1      35.712 -24.061 -14.110  0.00  0.00    +0.182 C 
ATOM      6  C   UNL     1      33.901 -23.219 -15.646  0.00  0.00    +0.026 C 
ATOM      7  C   UNL     1      36.716 -23.936 -15.250  0.00  0.00    +0.132 C 
ATOM      8  C   UNL     1      34.929 -23.139 -16.772  0.00  0.00    +0.097 C 
ATOM      9  C   UNL     1      37.145 -21.927 -16.648  0.00  0.00    +0.405 C 
ENDROOT
BRANCH   9  10
ATOM     10  O   UNL     1      36.597 -21.127 -17.616  0.00  0.00    -0.430 OA
BRANCH  10  11
ATOM     11  C   UNL     1      36.556 -21.674 -18.938  0.00  0.00    +0.237 C 
BRANCH  11  12
ATOM     12  C   UNL     1      36.015 -20.638 -19.880  0.00  0.00    +0.021 C 
ATOM     13  C   UNL     1      36.872 -19.684 -20.418  0.00  0.00    -0.001 C 
ATOM     14  C   UNL     1      34.664 -20.643 -20.206  0.00  0.00    -0.001 C 
ATOM     15  C   UNL     1      35.014 -18.719 -21.625  0.00  0.00    -0.022 C 
ATOM     16  C   UNL     1      36.368 -18.721 -21.293  0.00  0.00    -0.004 C 
ATOM     17  C   UNL     1      34.162 -19.680 -21.082  0.00  0.00    -0.004 C 
ATOM     18  C   UNL     1      34.477 -17.690 -22.561  0.00  0.00    +0.031 C 
ENDBRANCH  11  12
ENDBRANCH  10  11
ENDBRANCH   9  10
BRANCH   4  19
ATOM     19  C   UNL     1      33.286 -24.330 -13.470  0.00  0.00    +0.100 C 
BRANCH  19  20
ATOM     20  N   UNL     1      32.156 -25.146 -13.828  0.00  0.00    -0.278 N 
ATOM     21  N   UNL     1      29.991 -25.534 -14.646  0.00  0.00    -0.181 NA
ATOM     22  N   UNL     1      30.890 -23.301 -14.534  0.00  0.00    -0.203 NA
ATOM     23  C   UNL     1      30.973 -24.644 -14.353  0.00  0.00    +0.087 C 
ATOM     24  C   UNL     1      28.856 -25.011 -15.154  0.00  0.00    +0.108 C 
ATOM     25  C   UNL     1      29.727 -22.846 -15.045  0.00  0.00    +0.165 C 
ATOM     26  C   UNL     1      28.666 -23.663 -15.377  0.00  0.00    +0.022 C 
ATOM     27  H   UNL     1      32.226 -26.119 -13.694  0.00  0.00    +0.158 HD
ENDBRANCH  19  20
ENDBRANCH   4  19
TORSDOF 5
ENDMDL
MODEL 9
REMARK VINA RESULT:      -9.8      4.811      7.652
REMARK  Name = 11394238
REMARK  5 active torsions:
REMARK  status: ('A' for Active; 'I' for Inactive)
REMARK    1  A    between atoms: C_4  and  C_19
REMARK    2  A    between atoms: C_9  and  O_10
REMARK    3  A    between atoms: O_10  and  C_11
REMARK    4  A    between atoms: C_11  and  C_12
REMARK    5  A    between atoms: C_19  and  N_20
REMARK                            x       y       z     vdW  Elec       q    Type
REMARK                         _______ _______ _______ _____ _____    ______ ____
ROOT
ATOM      1  F   UNL     1      33.474 -19.083 -20.002  0.00  0.00    -0.235 F 
ATOM      2  O   UNL     1      32.468 -22.419 -18.143  0.00  0.00    -0.226 OA
ATOM      3  N   UNL     1      34.204 -21.844 -19.578  0.00  0.00    -0.243 N 
ATOM      4  C   UNL     1      35.217 -19.837 -21.406  0.00  0.00    +0.056 C 
ATOM      5  C   UNL     1      33.729 -19.922 -21.047  0.00  0.00    +0.182 C 
ATOM      6  C   UNL     1      36.075 -20.391 -20.258  0.00  0.00    +0.026 C 
ATOM      7  C   UNL     1      33.322 -21.330 -20.628  0.00  0.00    +0.132 C 
ATOM      8  C   UNL     1      35.638 -21.804 -19.881  0.00  0.00    +0.097 C 
ATOM      9  C   UNL     1      33.669 -22.383 -18.404  0.00  0.00    +0.405 C 
ENDROOT
BRANCH   9  10
ATOM     10  O   UNL     1      34.631 -22.873 -17.560  0.00  0.00    -0.430 OA
BRANCH  10  11
ATOM     11  C   UNL     1      34.202 -23.192 -16.232  0.00  0.00    +0.237 C 
BRANCH  11  12
ATOM     12  C   UNL     1      35.375 -23.705 -15.449  0.00  0.00    +0.021 C 
ATOM     13  C   UNL     1      35.169 -24.614 -14.418  0.00  0.00    -0.001 C 
ATOM     14  C   UNL     1      36.656 -23.265 -15.761  0.00  0.00    -0.001 C 
ATOM     15  C   UNL     1      37.548 -24.654 -13.996  0.00  0.00    -0.022 C 
ATOM     16  C   UNL     1      36.260 -25.090 -13.689  0.00  0.00    -0.004 C 
ATOM     17  C   UNL     1      37.747 -23.742 -15.033  0.00  0.00    -0.004 C 
ATOM     18  C   UNL     1      38.713 -25.164 -13.218  0.00  0.00    +0.031 C 
ENDBRANCH  11  12
ENDBRANCH  10  11
ENDBRANCH   9  10
BRANCH   4  19
ATOM     19  C   UNL     1      35.622 -18.401 -21.735  0.00  0.00    +0.100 C 
BRANCH  19  20
ATOM     20  N   UNL     1      35.423 -18.149 -23.137  0.00  0.00    -0.278 N 
ATOM     21  N   UNL     1      34.629 -16.941 -24.987  0.00  0.00    -0.181 NA
ATOM     22  N   UNL     1      34.230 -16.168 -22.739  0.00  0.00    -0.203 NA
ATOM     23  C   UNL     1      34.738 -17.050 -23.638  0.00  0.00    +0.087 C 
ATOM     24  C   UNL     1      33.958 -15.862 -25.437  0.00  0.00    +0.108 C 
ATOM     25  C   UNL     1      33.571 -15.112 -23.259  0.00  0.00    +0.165 C 
ATOM     26  C   UNL     1      33.403 -14.905 -24.613  0.00  0.00    +0.022 C 
ATOM     27  H   UNL     1      35.795 -18.795 -23.782  0.00  0.00    +0.158 HD
ENDBRANCH  19  20
ENDBRANCH   4  19
TORSDOF 5
ENDMDL
