MODEL 1
REMARK VINA RESULT:      -9.8      0.000      0.000
REMARK  Name = 5484727
REMARK  11 active torsions:
REMARK  status: ('A' for Active; 'I' for Inactive)
REMARK    1  A    between atoms: N_1  and  CA_4
REMARK    2  A    between atoms: N_1  and  C_21
REMARK    3  A    between atoms: CA_4  and  C_16
REMARK    4  A    between atoms: CA_11  and  C_18
REMARK    5  A    between atoms: C_18  and  O_19
REMARK    6  A    between atoms: C_21  and  C_23
REMARK    7  A    between atoms: C_21  and  C_27
REMARK    8  A    between atoms: C_23  and  O_24
REMARK    9  A    between atoms: O_24  and  C_25
REMARK   10  A    between atoms: C_27  and  C_28
REMARK   11  A    between atoms: C_28  and  C_29
REMARK                            x       y       z     vdW  Elec       q    Type
REMARK                         _______ _______ _______ _____ _____    ______ ____
ROOT
ATOM      1  N   ALA A   1      32.308 -14.228 -22.066  0.00  0.00    +0.399 N 
ATOM      2  H1  ALA A   1      31.716 -14.432 -21.260  0.00  0.00    -0.083 HD
ATOM      3  H2  ALA A   1      31.833 -14.480 -22.933  0.00  0.00    -0.083 HD
ENDROOT
BRANCH   1   4
ATOM      4  CA  ALA A   1      33.529 -15.009 -21.965  0.00  0.00    +0.018 C 
ATOM      5  CB  ALA A   1      34.552 -14.312 -21.091  0.00  0.00    -0.014 C 
BRANCH   4  16
ATOM      6  O   ALA A   1      32.099 -16.438 -20.723  0.00  0.00    -0.277 OA
ATOM      7  N   ALA A   1      34.045 -17.379 -21.564  0.00  0.00    -0.275 N 
ATOM      8  C   ALA A   1      35.103 -19.471 -21.407  0.00  0.00    +0.020 C 
ATOM      9  C   ALA A   1      34.034 -18.591 -20.750  0.00  0.00    +0.076 C 
ATOM     10  C   ALA A   1      36.166 -18.449 -21.783  0.00  0.00    +0.033 C 
ATOM     11  CA  ALA A   1      35.306 -17.292 -22.315  0.00  0.00    +0.174 C 
ATOM     12  C   ALA A   1      35.480 -20.615 -20.485  0.00  0.00    +0.002 C 
ATOM     13  C   ALA A   1      32.748 -19.403 -20.632  0.00  0.00    +0.020 C 
ATOM     14  C   ALA A   1      34.229 -21.470 -20.228  0.00  0.00    +0.000 C 
ATOM     15  C   ALA A   1      33.016 -20.646 -19.767  0.00  0.00    +0.002 C 
ATOM     16  C   ALA A   1      33.150 -16.336 -21.357  0.00  0.00    +0.206 C 
BRANCH  11  18
ATOM     17  OXT ALA A   1      34.448 -18.444 -24.259  0.00  0.00    -0.248 OA
ATOM     18  C   ALA A   1      35.010 -17.474 -23.774  0.00  0.00    +0.332 C 
BRANCH  18  19
ATOM     19  O   ALA A   1      35.456 -16.412 -24.488  0.00  0.00    -0.479 OA
ATOM     20  H   ALA A   1      35.468 -15.559 -24.102  0.00  0.00    +0.295 HD
ENDBRANCH  18  19
ENDBRANCH  11  18
ENDBRANCH   4  16
ENDBRANCH   1   4
BRANCH   1  21
ATOM     21  C   UNK A   0      32.598 -12.800 -22.093  0.00  0.00    +0.041 C 
BRANCH  21  23
ATOM     22  O   UNK A   0      30.500 -11.619 -21.685  0.00  0.00    -0.252 OA
ATOM     23  C   UNK A   0      31.540 -12.101 -21.256  0.00  0.00    +0.297 C 
BRANCH  23  24
ATOM     24  O   UNK A   0      31.933 -12.104 -19.946  0.00  0.00    -0.450 OA
BRANCH  24  25
ATOM     25  C   UNK A   0      31.437 -11.021 -19.150  0.00  0.00    +0.208 C 
ATOM     26  C   UNK A   0      32.107  -9.738 -19.590  0.00  0.00    +0.051 C 
ENDBRANCH  24  25
ENDBRANCH  23  24
ENDBRANCH  21  23
BRANCH  21  27
ATOM     27  C   UNK A   0      32.573 -12.243 -23.526  0.00  0.00    -0.006 C 
BRANCH  27  28
ATOM     28  C   UNK A   0      33.835 -11.480 -23.955  0.00  0.00    +0.025 C 
BRANCH  28  29
ATOM     29  C   UNK A   0      33.708  -9.982 -23.843  0.00  0.00    -0.022 C 
ATOM     30  C   UNK A   0      34.829  -9.188 -24.024  0.00  0.00    -0.004 C 
ATOM     31  C   UNK A   0      32.471  -9.423 -23.560  0.00  0.00    -0.004 C 
ATOM     32  C   UNK A   0      34.712  -7.802 -23.920  0.00  0.00    -0.000 C 
ATOM     33  C   UNK A   0      32.353  -8.037 -23.456  0.00  0.00    -0.000 C 
ATOM     34  C   UNK A   0      33.474  -7.227 -23.636  0.00  0.00    -0.000 C 
ENDBRANCH  28  29
ENDBRANCH  27  28
ENDBRANCH  21  27
ENDBRANCH   1  21
TORSDOF 11
ENDMDL
MODEL 2
REMARK VINA RESULT:      -9.5      2.136      3.870
REMARK  Name = 5484727
REMARK  11 active torsions:
REMARK  status: ('A' for Active; 'I' for Inactive)
REMARK    1  A    between atoms: N_1  and  CA_4
REMARK    2  A    between atoms: N_1  and  C_21
REMARK    3  A    between atoms: CA_4  and  C_16
REMARK    4  A    between atoms: CA_11  and  C_18
REMARK    5  A    between atoms: C_18  and  O_19
REMARK    6  A    between atoms: C_21  and  C_23
REMARK    7  A    between atoms: C_21  and  C_27
REMARK    8  A    between atoms: C_23  and  O_24
REMARK    9  A    between atoms: O_24  and  C_25
REMARK   10  A    between atoms: C_27  and  C_28
REMARK   11  A    between atoms: C_28  and  C_29
REMARK                            x       y       z     vdW  Elec       q    Type
REMARK                         _______ _______ _______ _____ _____    ______ ____
ROOT
ATOM      1  N   ALA A   1      34.199 -13.005 -23.894  0.00  0.00    +0.399 N 
ATOM      2  H1  ALA A   1      34.992 -13.065 -24.534  0.00  0.00    -0.083 HD
ATOM      3  H2  ALA A   1      34.514 -13.065 -22.926  0.00  0.00    -0.083 HD
ENDROOT
BRANCH   1   4
ATOM      4  CA  ALA A   1      33.297 -14.114 -24.154  0.00  0.00    +0.018 C 
ATOM      5  CB  ALA A   1      32.775 -14.070 -25.576  0.00  0.00    -0.014 C 
BRANCH   4  16
ATOM      6  O   ALA A   1      34.882 -15.759 -24.794  0.00  0.00    -0.277 OA
ATOM      7  N   ALA A   1      33.849 -16.046 -22.737  0.00  0.00    -0.275 N 
ATOM      8  C   ALA A   1      33.868 -17.695 -21.065  0.00  0.00    +0.020 C 
ATOM      9  C   ALA A   1      34.222 -17.443 -22.533  0.00  0.00    +0.076 C 
ATOM     10  C   ALA A   1      32.578 -16.903 -20.909  0.00  0.00    +0.033 C 
ATOM     11  CA  ALA A   1      32.909 -15.621 -21.690  0.00  0.00    +0.174 C 
ATOM     12  C   ALA A   1      33.851 -19.184 -20.776  0.00  0.00    +0.002 C 
ATOM     13  C   ALA A   1      35.667 -17.874 -22.761  0.00  0.00    +0.020 C 
ATOM     14  C   ALA A   1      35.253 -19.752 -21.049  0.00  0.00    +0.000 C 
ATOM     15  C   ALA A   1      35.804 -19.370 -22.433  0.00  0.00    +0.002 C 
ATOM     16  C   ALA A   1      34.086 -15.380 -23.934  0.00  0.00    +0.206 C 
BRANCH  11  18
ATOM     17  OXT ALA A   1      34.776 -14.645 -20.507  0.00  0.00    -0.248 OA
ATOM     18  C   ALA A   1      33.593 -14.620 -20.808  0.00  0.00    +0.332 C 
BRANCH  18  19
ATOM     19  O   ALA A   1      32.716 -13.678 -20.384  0.00  0.00    -0.479 OA
ATOM     20  H   ALA A   1      33.031 -12.884 -19.999  0.00  0.00    +0.295 HD
ENDBRANCH  18  19
ENDBRANCH  11  18
ENDBRANCH   4  16
ENDBRANCH   1   4
BRANCH   1  21
ATOM     21  C   UNK A   0      33.528 -11.725 -24.086  0.00  0.00    +0.041 C 
BRANCH  21  23
ATOM     22  O   UNK A   0      34.945 -10.916 -25.903  0.00  0.00    -0.252 OA
ATOM     23  C   UNK A   0      34.514 -10.788 -24.764  0.00  0.00    +0.297 C 
BRANCH  23  24
ATOM     24  O   UNK A   0      34.838  -9.778 -23.901  0.00  0.00    -0.450 OA
BRANCH  24  25
ATOM     25  C   UNK A   0      34.716  -8.452 -24.428  0.00  0.00    +0.208 C 
ATOM     26  C   UNK A   0      34.912  -7.455 -23.306  0.00  0.00    +0.051 C 
ENDBRANCH  24  25
ENDBRANCH  23  24
ENDBRANCH  21  23
BRANCH  21  27
ATOM     27  C   UNK A   0      33.072 -11.117 -22.751  0.00  0.00    -0.006 C 
BRANCH  27  28
ATOM     28  C   UNK A   0      31.711 -10.408 -22.783  0.00  0.00    +0.025 C 
BRANCH  28  29
ATOM     29  C   UNK A   0      31.746  -8.999 -22.247  0.00  0.00    -0.022 C 
ATOM     30  C   UNK A   0      32.288  -8.760 -20.994  0.00  0.00    -0.004 C 
ATOM     31  C   UNK A   0      31.236  -7.964 -23.017  0.00  0.00    -0.004 C 
ATOM     32  C   UNK A   0      32.321  -7.457 -20.498  0.00  0.00    -0.000 C 
ATOM     33  C   UNK A   0      31.268  -6.661 -22.521  0.00  0.00    -0.000 C 
ATOM     34  C   UNK A   0      31.811  -6.408 -21.261  0.00  0.00    -0.000 C 
ENDBRANCH  28  29
ENDBRANCH  27  28
ENDBRANCH  21  27
ENDBRANCH   1  21
TORSDOF 11
ENDMDL
MODEL 3
REMARK VINA RESULT:      -9.2      1.541      2.622
REMARK  Name = 5484727
REMARK  11 active torsions:
REMARK  status: ('A' for Active; 'I' for Inactive)
REMARK    1  A    between atoms: N_1  and  CA_4
REMARK    2  A    between atoms: N_1  and  C_21
REMARK    3  A    between atoms: CA_4  and  C_16
REMARK    4  A    between atoms: CA_11  and  C_18
REMARK    5  A    between atoms: C_18  and  O_19
REMARK    6  A    between atoms: C_21  and  C_23
REMARK    7  A    between atoms: C_21  and  C_27
REMARK    8  A    between atoms: C_23  and  O_24
REMARK    9  A    between atoms: O_24  and  C_25
REMARK   10  A    between atoms: C_27  and  C_28
REMARK   11  A    between atoms: C_28  and  C_29
REMARK                            x       y       z     vdW  Elec       q    Type
REMARK                         _______ _______ _______ _____ _____    ______ ____
ROOT
ATOM      1  N   ALA A   1      32.207 -14.561 -21.809  0.00  0.00    +0.399 N 
ATOM      2  H1  ALA A   1      32.088 -14.125 -20.894  0.00  0.00    -0.083 HD
ATOM      3  H2  ALA A   1      31.438 -15.204 -22.002  0.00  0.00    -0.083 HD
ENDROOT
BRANCH   1   4
ATOM      4  CA  ALA A   1      33.449 -15.314 -21.816  0.00  0.00    +0.018 C 
ATOM      5  CB  ALA A   1      34.510 -14.625 -20.983  0.00  0.00    -0.014 C 
BRANCH   4  16
ATOM      6  O   ALA A   1      32.078 -16.853 -20.641  0.00  0.00    -0.277 OA
ATOM      7  N   ALA A   1      34.109 -17.650 -21.427  0.00  0.00    -0.275 N 
ATOM      8  C   ALA A   1      35.298 -19.669 -21.259  0.00  0.00    +0.020 C 
ATOM      9  C   ALA A   1      34.153 -18.873 -20.629  0.00  0.00    +0.076 C 
ATOM     10  C   ALA A   1      36.303 -18.575 -21.588  0.00  0.00    +0.033 C 
ATOM     11  CA  ALA A   1      35.385 -17.469 -22.134  0.00  0.00    +0.174 C 
ATOM     12  C   ALA A   1      35.721 -20.799 -20.340  0.00  0.00    +0.002 C 
ATOM     13  C   ALA A   1      32.921 -19.769 -20.563  0.00  0.00    +0.020 C 
ATOM     14  C   ALA A   1      34.522 -21.739 -20.135  0.00  0.00    +0.000 C 
ATOM     15  C   ALA A   1      33.242 -21.005 -19.705  0.00  0.00    +0.002 C 
ATOM     16  C   ALA A   1      33.140 -16.672 -21.238  0.00  0.00    +0.206 C 
BRANCH  11  18
ATOM     17  OXT ALA A   1      34.639 -18.634 -24.116  0.00  0.00    -0.248 OA
ATOM     18  C   ALA A   1      35.150 -17.649 -23.604  0.00  0.00    +0.332 C 
BRANCH  18  19
ATOM     19  O   ALA A   1      35.585 -16.568 -24.294  0.00  0.00    -0.479 OA
ATOM     20  H   ALA A   1      35.497 -16.541 -25.227  0.00  0.00    +0.295 HD
ENDBRANCH  18  19
ENDBRANCH  11  18
ENDBRANCH   4  16
ENDBRANCH   1   4
BRANCH   1  21
ATOM     21  C   UNK A   0      32.214 -13.525 -22.834  0.00  0.00    +0.041 C 
BRANCH  21  23
ATOM     22  O   UNK A   0      33.254 -15.003 -24.474  0.00  0.00    -0.252 OA
ATOM     23  C   UNK A   0      33.231 -13.930 -23.888  0.00  0.00    +0.297 C 
BRANCH  23  24
ATOM     24  O   UNK A   0      34.111 -12.900 -24.079  0.00  0.00    -0.450 OA
BRANCH  24  25
ATOM     25  C   UNK A   0      33.840 -12.057 -25.204  0.00  0.00    +0.208 C 
ATOM     26  C   UNK A   0      34.692 -10.810 -25.103  0.00  0.00    +0.051 C 
ENDBRANCH  24  25
ENDBRANCH  23  24
ENDBRANCH  21  23
BRANCH  21  27
ATOM     27  C   UNK A   0      32.591 -12.153 -22.252  0.00  0.00    -0.006 C 
BRANCH  27  28
ATOM     28  C   UNK A   0      31.417 -11.191 -22.026  0.00  0.00    +0.025 C 
BRANCH  28  29
ATOM     29  C   UNK A   0      31.837  -9.760 -21.805  0.00  0.00    -0.022 C 
ATOM     30  C   UNK A   0      31.936  -9.270 -20.512  0.00  0.00    -0.004 C 
ATOM     31  C   UNK A   0      32.118  -8.956 -22.900  0.00  0.00    -0.004 C 
ATOM     32  C   UNK A   0      32.324  -7.946 -20.308  0.00  0.00    -0.000 C 
ATOM     33  C   UNK A   0      32.507  -7.631 -22.696  0.00  0.00    -0.000 C 
ATOM     34  C   UNK A   0      32.610  -7.127 -21.400  0.00  0.00    -0.000 C 
ENDBRANCH  28  29
ENDBRANCH  27  28
ENDBRANCH  21  27
ENDBRANCH   1  21
TORSDOF 11
ENDMDL
MODEL 4
REMARK VINA RESULT:      -8.5      8.277     11.961
REMARK  Name = 5484727
REMARK  11 active torsions:
REMARK  status: ('A' for Active; 'I' for Inactive)
REMARK    1  A    between atoms: N_1  and  CA_4
REMARK    2  A    between atoms: N_1  and  C_21
REMARK    3  A    between atoms: CA_4  and  C_16
REMARK    4  A    between atoms: CA_11  and  C_18
REMARK    5  A    between atoms: C_18  and  O_19
REMARK    6  A    between atoms: C_21  and  C_23
REMARK    7  A    between atoms: C_21  and  C_27
REMARK    8  A    between atoms: C_23  and  O_24
REMARK    9  A    between atoms: O_24  and  C_25
REMARK   10  A    between atoms: C_27  and  C_28
REMARK   11  A    between atoms: C_28  and  C_29
REMARK                            x       y       z     vdW  Elec       q    Type
REMARK                         _______ _______ _______ _____ _____    ______ ____
ROOT
ATOM      1  N   ALA A   1      33.166 -24.013 -15.985  0.00  0.00    +0.399 N 
ATOM      2  H1  ALA A   1      32.661 -24.896 -15.904  0.00  0.00    -0.083 HD
ATOM      3  H2  ALA A   1      33.794 -24.031 -16.789  0.00  0.00    -0.083 HD
ENDROOT
BRANCH   1   4
ATOM      4  CA  ALA A   1      33.961 -23.810 -14.786  0.00  0.00    +0.018 C 
ATOM      5  CB  ALA A   1      33.652 -24.865 -13.743  0.00  0.00    -0.014 C 
BRANCH   4  16
ATOM      6  O   ALA A   1      35.748 -23.514 -16.318  0.00  0.00    -0.277 OA
ATOM      7  N   ALA A   1      36.278 -24.436 -14.257  0.00  0.00    -0.275 N 
ATOM      8  C   ALA A   1      38.215 -25.318 -13.261  0.00  0.00    +0.020 C 
ATOM      9  C   ALA A   1      37.601 -24.943 -14.613  0.00  0.00    +0.076 C 
ATOM     10  C   ALA A   1      37.017 -25.893 -12.518  0.00  0.00    +0.033 C 
ATOM     11  CA  ALA A   1      35.907 -24.907 -12.915  0.00  0.00    +0.174 C 
ATOM     12  C   ALA A   1      39.439 -26.190 -13.464  0.00  0.00    +0.002 C 
ATOM     13  C   ALA A   1      38.579 -24.033 -15.350  0.00  0.00    +0.020 C 
ATOM     14  C   ALA A   1      40.478 -25.397 -14.272  0.00  0.00    +0.000 C 
ATOM     15  C   ALA A   1      39.905 -24.784 -15.560  0.00  0.00    +0.002 C 
ATOM     16  C   ALA A   1      35.408 -23.902 -15.200  0.00  0.00    +0.206 C 
BRANCH  11  18
ATOM     17  OXT ALA A   1      36.459 -22.674 -12.174  0.00  0.00    -0.248 OA
ATOM     18  C   ALA A   1      35.879 -23.732 -11.984  0.00  0.00    +0.332 C 
BRANCH  18  19
ATOM     19  O   ALA A   1      35.122 -24.003 -10.893  0.00  0.00    -0.479 OA
ATOM     20  H   ALA A   1      34.690 -24.832 -10.817  0.00  0.00    +0.295 HD
ENDBRANCH  18  19
ENDBRANCH  11  18
ENDBRANCH   4  16
ENDBRANCH   1   4
BRANCH   1  21
ATOM     21  C   UNK A   0      32.207 -22.931 -16.170  0.00  0.00    +0.041 C 
BRANCH  21  23
ATOM     22  O   UNK A   0      30.545 -24.357 -15.090  0.00  0.00    -0.252 OA
ATOM     23  C   UNK A   0      30.821 -23.501 -15.919  0.00  0.00    +0.297 C 
BRANCH  23  24
ATOM     24  O   UNK A   0      29.930 -22.898 -16.764  0.00  0.00    -0.450 OA
BRANCH  24  25
ATOM     25  C   UNK A   0      28.598 -23.424 -16.736  0.00  0.00    +0.208 C 
ATOM     26  C   UNK A   0      27.702 -22.456 -15.993  0.00  0.00    +0.051 C 
ENDBRANCH  24  25
ENDBRANCH  23  24
ENDBRANCH  21  23
BRANCH  21  27
ATOM     27  C   UNK A   0      32.277 -22.346 -17.589  0.00  0.00    -0.006 C 
BRANCH  27  28
ATOM     28  C   UNK A   0      33.476 -22.807 -18.430  0.00  0.00    +0.025 C 
BRANCH  28  29
ATOM     29  C   UNK A   0      34.061 -21.723 -19.299  0.00  0.00    -0.022 C 
ATOM     30  C   UNK A   0      33.214 -20.831 -19.939  0.00  0.00    -0.004 C 
ATOM     31  C   UNK A   0      35.437 -21.634 -19.444  0.00  0.00    -0.004 C 
ATOM     32  C   UNK A   0      33.755 -19.828 -20.744  0.00  0.00    -0.000 C 
ATOM     33  C   UNK A   0      35.979 -20.631 -20.249  0.00  0.00    -0.000 C 
ATOM     34  C   UNK A   0      35.137 -19.729 -20.899  0.00  0.00    -0.000 C 
ENDBRANCH  28  29
ENDBRANCH  27  28
ENDBRANCH  21  27
ENDBRANCH   1  21
TORSDOF 11
ENDMDL
MODEL 5
REMARK VINA RESULT:      -8.3      2.221      9.265
REMARK  Name = 5484727
REMARK  11 active torsions:
REMARK  status: ('A' for Active; 'I' for Inactive)
REMARK    1  A    between atoms: N_1  and  CA_4
REMARK    2  A    between atoms: N_1  and  C_21
REMARK    3  A    between atoms: CA_4  and  C_16
REMARK    4  A    between atoms: CA_11  and  C_18
REMARK    5  A    between atoms: C_18  and  O_19
REMARK    6  A    between atoms: C_21  and  C_23
REMARK    7  A    between atoms: C_21  and  C_27
REMARK    8  A    between atoms: C_23  and  O_24
REMARK    9  A    between atoms: O_24  and  C_25
REMARK   10  A    between atoms: C_27  and  C_28
REMARK   11  A    between atoms: C_28  and  C_29
REMARK                            x       y       z     vdW  Elec       q    Type
REMARK                         _______ _______ _______ _____ _____    ______ ____
ROOT
ATOM      1  N   ALA A   1      32.585 -12.086 -23.536  0.00  0.00    +0.399 N 
ATOM      2  H1  ALA A   1      32.254 -12.123 -24.501  0.00  0.00    -0.083 HD
ATOM      3  H2  ALA A   1      31.809 -11.904 -22.898  0.00  0.00    -0.083 HD
ENDROOT
BRANCH   1   4
ATOM      4  CA  ALA A   1      33.550 -11.008 -23.407  0.00  0.00    +0.018 C 
ATOM      5  CB  ALA A   1      34.679 -11.165 -24.405  0.00  0.00    -0.014 C 
BRANCH   4  16
ATOM      6  O   ALA A   1      32.583  -9.373 -24.828  0.00  0.00    -0.277 OA
ATOM      7  N   ALA A   1      32.418  -9.004 -22.544  0.00  0.00    -0.275 N 
ATOM      8  C   ALA A   1      31.600  -7.277 -21.177  0.00  0.00    +0.020 C 
ATOM      9  C   ALA A   1      32.045  -7.593 -22.608  0.00  0.00    +0.076 C 
ATOM     10  C   ALA A   1      32.596  -8.080 -20.351  0.00  0.00    +0.033 C 
ATOM     11  CA  ALA A   1      32.668  -9.392 -21.148  0.00  0.00    +0.174 C 
ATOM     12  C   ALA A   1      31.520  -5.776 -20.971  0.00  0.00    +0.002 C 
ATOM     13  C   ALA A   1      30.940  -7.154 -23.564  0.00  0.00    +0.020 C 
ATOM     14  C   ALA A   1      30.481  -5.203 -21.947  0.00  0.00    +0.000 C 
ATOM     15  C   ALA A   1      30.708  -5.642 -23.403  0.00  0.00    +0.002 C 
ATOM     16  C   ALA A   1      32.807  -9.722 -23.668  0.00  0.00    +0.206 C 
BRANCH  11  18
ATOM     17  OXT ALA A   1      30.769 -10.855 -21.456  0.00  0.00    -0.248 OA
ATOM     18  C   ALA A   1      31.592 -10.341 -20.713  0.00  0.00    +0.332 C 
BRANCH  18  19
ATOM     19  O   ALA A   1      31.650 -10.550 -19.376  0.00  0.00    -0.479 OA
ATOM     20  H   ALA A   1      32.210 -10.021 -18.843  0.00  0.00    +0.295 HD
ENDBRANCH  18  19
ENDBRANCH  11  18
ENDBRANCH   4  16
ENDBRANCH   1   4
BRANCH   1  21
ATOM     21  C   UNK A   0      33.180 -13.370 -23.188  0.00  0.00    +0.041 C 
BRANCH  21  23
ATOM     22  O   UNK A   0      32.673 -13.928 -25.510  0.00  0.00    -0.252 OA
ATOM     23  C   UNK A   0      33.204 -14.220 -24.447  0.00  0.00    +0.297 C 
BRANCH  23  24
ATOM     24  O   UNK A   0      33.920 -15.360 -24.203  0.00  0.00    -0.450 OA
BRANCH  24  25
ATOM     25  C   UNK A   0      33.986 -16.292 -25.289  0.00  0.00    +0.208 C 
ATOM     26  C   UNK A   0      34.621 -17.576 -24.799  0.00  0.00    +0.051 C 
ENDBRANCH  24  25
ENDBRANCH  23  24
ENDBRANCH  21  23
BRANCH  21  27
ATOM     27  C   UNK A   0      32.376 -14.091 -22.093  0.00  0.00    -0.006 C 
BRANCH  27  28
ATOM     28  C   UNK A   0      33.195 -14.567 -20.885  0.00  0.00    +0.025 C 
BRANCH  28  29
ATOM     29  C   UNK A   0      33.611 -16.014 -20.965  0.00  0.00    -0.022 C 
ATOM     30  C   UNK A   0      34.952 -16.331 -21.117  0.00  0.00    -0.004 C 
ATOM     31  C   UNK A   0      32.644 -17.006 -20.884  0.00  0.00    -0.004 C 
ATOM     32  C   UNK A   0      35.336 -17.670 -21.192  0.00  0.00    -0.000 C 
ATOM     33  C   UNK A   0      33.029 -18.345 -20.959  0.00  0.00    -0.000 C 
ATOM     34  C   UNK A   0      34.375 -18.676 -21.113  0.00  0.00    -0.000 C 
ENDBRANCH  28  29
ENDBRANCH  27  28
ENDBRANCH  21  27
ENDBRANCH   1  21
TORSDOF 11
ENDMDL
MODEL 6
REMARK VINA RESULT:      -8.2      7.780     11.008
REMARK  Name = 5484727
REMARK  11 active torsions:
REMARK  status: ('A' for Active; 'I' for Inactive)
REMARK    1  A    between atoms: N_1  and  CA_4
REMARK    2  A    between atoms: N_1  and  C_21
REMARK    3  A    between atoms: CA_4  and  C_16
REMARK    4  A    between atoms: CA_11  and  C_18
REMARK    5  A    between atoms: C_18  and  O_19
REMARK    6  A    between atoms: C_21  and  C_23
REMARK    7  A    between atoms: C_21  and  C_27
REMARK    8  A    between atoms: C_23  and  O_24
REMARK    9  A    between atoms: O_24  and  C_25
REMARK   10  A    between atoms: C_27  and  C_28
REMARK   11  A    between atoms: C_28  and  C_29
REMARK                            x       y       z     vdW  Elec       q    Type
REMARK                         _______ _______ _______ _____ _____    ______ ____
ROOT
ATOM      1  N   ALA A   1      32.607 -23.674 -16.319  0.00  0.00    +0.399 N 
ATOM      2  H1  ALA A   1      32.111 -24.558 -16.204  0.00  0.00    -0.083 HD
ATOM      3  H2  ALA A   1      33.265 -23.730 -17.097  0.00  0.00    -0.083 HD
ENDROOT
BRANCH   1   4
ATOM      4  CA  ALA A   1      33.351 -23.387 -15.106  0.00  0.00    +0.018 C 
ATOM      5  CB  ALA A   1      32.432 -23.333 -13.902  0.00  0.00    -0.014 C 
BRANCH   4  16
ATOM      6  O   ALA A   1      33.970 -25.667 -14.887  0.00  0.00    -0.277 OA
ATOM      7  N   ALA A   1      35.687 -24.108 -14.846  0.00  0.00    -0.275 N 
ATOM      8  C   ALA A   1      38.011 -24.179 -14.508  0.00  0.00    +0.020 C 
ATOM      9  C   ALA A   1      36.724 -24.986 -14.310  0.00  0.00    +0.076 C 
ATOM     10  C   ALA A   1      37.548 -22.763 -14.198  0.00  0.00    +0.033 C 
ATOM     11  CA  ALA A   1      36.182 -22.725 -14.902  0.00  0.00    +0.174 C 
ATOM     12  C   ALA A   1      39.138 -24.778 -13.687  0.00  0.00    +0.002 C 
ATOM     13  C   ALA A   1      36.924 -26.369 -14.919  0.00  0.00    +0.020 C 
ATOM     14  C   ALA A   1      39.381 -26.218 -14.165  0.00  0.00    +0.000 C 
ATOM     15  C   ALA A   1      38.100 -27.066 -14.213  0.00  0.00    +0.002 C 
ATOM     16  C   ALA A   1      34.356 -24.499 -14.936  0.00  0.00    +0.206 C 
BRANCH  11  18
ATOM     17  OXT ALA A   1      35.826 -22.912 -17.285  0.00  0.00    -0.248 OA
ATOM     18  C   ALA A   1      36.333 -22.327 -16.340  0.00  0.00    +0.332 C 
BRANCH  18  19
ATOM     19  O   ALA A   1      37.116 -21.227 -16.452  0.00  0.00    -0.479 OA
ATOM     20  H   ALA A   1      36.830 -20.499 -16.968  0.00  0.00    +0.295 HD
ENDBRANCH  18  19
ENDBRANCH  11  18
ENDBRANCH   4  16
ENDBRANCH   1   4
BRANCH   1  21
ATOM     21  C   UNK A   0      31.640 -22.620 -16.605  0.00  0.00    +0.041 C 
BRANCH  21  23
ATOM     22  O   UNK A   0      30.000 -24.353 -16.086  0.00  0.00    -0.252 OA
ATOM     23  C   UNK A   0      30.253 -23.234 -16.512  0.00  0.00    +0.297 C 
BRANCH  23  24
ATOM     24  O   UNK A   0      29.334 -22.335 -16.976  0.00  0.00    -0.450 OA
BRANCH  24  25
ATOM     25  C   UNK A   0      27.993 -22.825 -17.093  0.00  0.00    +0.208 C 
ATOM     26  C   UNK A   0      27.162 -22.264 -15.960  0.00  0.00    +0.051 C 
ENDBRANCH  24  25
ENDBRANCH  23  24
ENDBRANCH  21  23
BRANCH  21  27
ATOM     27  C   UNK A   0      31.848 -22.023 -18.005  0.00  0.00    -0.006 C 
BRANCH  27  28
ATOM     28  C   UNK A   0      33.198 -22.345 -18.662  0.00  0.00    +0.025 C 
BRANCH  28  29
ATOM     29  C   UNK A   0      33.702 -21.261 -19.580  0.00  0.00    -0.022 C 
ATOM     30  C   UNK A   0      32.800 -20.369 -20.141  0.00  0.00    -0.004 C 
ATOM     31  C   UNK A   0      35.060 -21.172 -19.849  0.00  0.00    -0.004 C 
ATOM     32  C   UNK A   0      33.267 -19.366 -20.991  0.00  0.00    -0.000 C 
ATOM     33  C   UNK A   0      35.526 -20.168 -20.699  0.00  0.00    -0.000 C 
ATOM     34  C   UNK A   0      34.629 -19.266 -21.269  0.00  0.00    -0.000 C 
ENDBRANCH  28  29
ENDBRANCH  27  28
ENDBRANCH  21  27
ENDBRANCH   1  21
TORSDOF 11
ENDMDL
MODEL 7
REMARK VINA RESULT:      -8.2      7.800     12.769
REMARK  Name = 5484727
REMARK  11 active torsions:
REMARK  status: ('A' for Active; 'I' for Inactive)
REMARK    1  A    between atoms: N_1  and  CA_4
REMARK    2  A    between atoms: N_1  and  C_21
REMARK    3  A    between atoms: CA_4  and  C_16
REMARK    4  A    between atoms: CA_11  and  C_18
REMARK    5  A    between atoms: C_18  and  O_19
REMARK    6  A    between atoms: C_21  and  C_23
REMARK    7  A    between atoms: C_21  and  C_27
REMARK    8  A    between atoms: C_23  and  O_24
REMARK    9  A    between atoms: O_24  and  C_25
REMARK   10  A    between atoms: C_27  and  C_28
REMARK   11  A    between atoms: C_28  and  C_29
REMARK                            x       y       z     vdW  Elec       q    Type
REMARK                         _______ _______ _______ _____ _____    ______ ____
ROOT
ATOM      1  N   ALA A   1      36.601 -24.084 -16.077  0.00  0.00    +0.399 N 
ATOM      2  H1  ALA A   1      37.575 -23.787 -16.012  0.00  0.00    -0.083 HD
ATOM      3  H2  ALA A   1      36.452 -24.642 -16.917  0.00  0.00    -0.083 HD
ENDROOT
BRANCH   1   4
ATOM      4  CA  ALA A   1      35.751 -22.908 -16.148  0.00  0.00    +0.018 C 
ATOM      5  CB  ALA A   1      35.829 -22.100 -14.869  0.00  0.00    -0.014 C 
BRANCH   4  16
ATOM      6  O   ALA A   1      37.410 -21.686 -17.325  0.00  0.00    -0.277 OA
ATOM      7  N   ALA A   1      35.315 -21.823 -18.310  0.00  0.00    -0.275 N 
ATOM      8  C   ALA A   1      34.299 -20.920 -20.227  0.00  0.00    +0.020 C 
ATOM      9  C   ALA A   1      35.497 -20.752 -19.287  0.00  0.00    +0.076 C 
ATOM     10  C   ALA A   1      33.188 -21.302 -19.259  0.00  0.00    +0.033 C 
ATOM     11  CA  ALA A   1      33.918 -22.280 -18.325  0.00  0.00    +0.174 C 
ATOM     12  C   ALA A   1      34.128 -19.681 -21.086  0.00  0.00    +0.002 C 
ATOM     13  C   ALA A   1      36.768 -20.714 -20.129  0.00  0.00    +0.020 C 
ATOM     14  C   ALA A   1      35.395 -19.494 -21.933  0.00  0.00    +0.000 C 
ATOM     15  C   ALA A   1      36.690 -19.528 -21.105  0.00  0.00    +0.002 C 
ATOM     16  C   ALA A   1      36.244 -22.082 -17.310  0.00  0.00    +0.206 C 
BRANCH  11  18
ATOM     17  OXT ALA A   1      34.265 -24.002 -19.985  0.00  0.00    -0.248 OA
ATOM     18  C   ALA A   1      33.875 -23.675 -18.874  0.00  0.00    +0.332 C 
BRANCH  18  19
ATOM     19  O   ALA A   1      33.339 -24.529 -17.969  0.00  0.00    -0.479 OA
ATOM     20  H   ALA A   1      33.098 -24.220 -17.118  0.00  0.00    +0.295 HD
ENDBRANCH  18  19
ENDBRANCH  11  18
ENDBRANCH   4  16
ENDBRANCH   1   4
BRANCH   1  21
ATOM     21  C   UNK A   0      36.274 -24.899 -14.913  0.00  0.00    +0.041 C 
BRANCH  21  23
ATOM     22  O   UNK A   0      37.137 -26.951 -15.915  0.00  0.00    -0.252 OA
ATOM     23  C   UNK A   0      37.122 -26.158 -14.983  0.00  0.00    +0.297 C 
BRANCH  23  24
ATOM     24  O   UNK A   0      37.870 -26.258 -13.843  0.00  0.00    -0.450 OA
BRANCH  24  25
ATOM     25  C   UNK A   0      38.869 -25.247 -13.668  0.00  0.00    +0.208 C 
ATOM     26  C   UNK A   0      40.047 -25.558 -14.567  0.00  0.00    +0.051 C 
ENDBRANCH  24  25
ENDBRANCH  23  24
ENDBRANCH  21  23
BRANCH  21  27
ATOM     27  C   UNK A   0      34.785 -25.280 -14.887  0.00  0.00    -0.006 C 
BRANCH  27  28
ATOM     28  C   UNK A   0      33.965 -24.645 -13.755  0.00  0.00    +0.025 C 
BRANCH  28  29
ATOM     29  C   UNK A   0      32.553 -24.294 -14.150  0.00  0.00    -0.022 C 
ATOM     30  C   UNK A   0      32.323 -23.168 -14.925  0.00  0.00    -0.004 C 
ATOM     31  C   UNK A   0      31.507 -25.103 -13.732  0.00  0.00    -0.004 C 
ATOM     32  C   UNK A   0      31.017 -22.842 -15.291  0.00  0.00    -0.000 C 
ATOM     33  C   UNK A   0      30.201 -24.777 -14.097  0.00  0.00    -0.000 C 
ATOM     34  C   UNK A   0      29.956 -23.647 -14.877  0.00  0.00    -0.000 C 
ENDBRANCH  28  29
ENDBRANCH  27  28
ENDBRANCH  21  27
ENDBRANCH   1  21
TORSDOF 11
ENDMDL
MODEL 8
REMARK VINA RESULT:      -8.1      9.837     13.129
REMARK  Name = 5484727
REMARK  11 active torsions:
REMARK  status: ('A' for Active; 'I' for Inactive)
REMARK    1  A    between atoms: N_1  and  CA_4
REMARK    2  A    between atoms: N_1  and  C_21
REMARK    3  A    between atoms: CA_4  and  C_16
REMARK    4  A    between atoms: CA_11  and  C_18
REMARK    5  A    between atoms: C_18  and  O_19
REMARK    6  A    between atoms: C_21  and  C_23
REMARK    7  A    between atoms: C_21  and  C_27
REMARK    8  A    between atoms: C_23  and  O_24
REMARK    9  A    between atoms: O_24  and  C_25
REMARK   10  A    between atoms: C_27  and  C_28
REMARK   11  A    between atoms: C_28  and  C_29
REMARK                            x       y       z     vdW  Elec       q    Type
REMARK                         _______ _______ _______ _____ _____    ______ ____
ROOT
ATOM      1  N   ALA A   1      33.738 -22.736 -14.923  0.00  0.00    +0.399 N 
ATOM      2  H1  ALA A   1      34.321 -22.497 -15.725  0.00  0.00    -0.083 HD
ATOM      3  H2  ALA A   1      33.566 -21.912 -14.346  0.00  0.00    -0.083 HD
ENDROOT
BRANCH   1   4
ATOM      4  CA  ALA A   1      34.427 -23.727 -14.116  0.00  0.00    +0.018 C 
ATOM      5  CB  ALA A   1      33.683 -25.048 -14.122  0.00  0.00    -0.014 C 
BRANCH   4  16
ATOM      6  O   ALA A   1      36.000 -23.561 -15.883  0.00  0.00    -0.277 OA
ATOM      7  N   ALA A   1      36.761 -24.464 -13.887  0.00  0.00    -0.275 N 
ATOM      8  C   ALA A   1      38.769 -25.426 -13.137  0.00  0.00    +0.020 C 
ATOM      9  C   ALA A   1      37.996 -25.048 -14.404  0.00  0.00    +0.076 C 
ATOM     10  C   ALA A   1      37.657 -25.920 -12.223  0.00  0.00    +0.033 C 
ATOM     11  CA  ALA A   1      36.553 -24.886 -12.494  0.00  0.00    +0.174 C 
ATOM     12  C   ALA A   1      39.909 -26.367 -13.478  0.00  0.00    +0.002 C 
ATOM     13  C   ALA A   1      38.908 -24.208 -15.292  0.00  0.00    +0.020 C 
ATOM     14  C   ALA A   1      40.866 -25.648 -14.442  0.00  0.00    +0.000 C 
ATOM     15  C   ALA A   1      40.153 -25.033 -15.658  0.00  0.00    +0.002 C 
ATOM     16  C   ALA A   1      35.798 -23.906 -14.718  0.00  0.00    +0.206 C 
BRANCH  11  18
ATOM     17  OXT ALA A   1      37.094 -22.589 -11.968  0.00  0.00    -0.248 OA
ATOM     18  C   ALA A   1      36.711 -23.691 -11.602  0.00  0.00    +0.332 C 
BRANCH  18  19
ATOM     19  O   ALA A   1      36.374 -23.997 -10.326  0.00  0.00    -0.479 OA
ATOM     20  H   ALA A   1      35.474 -24.122 -10.097  0.00  0.00    +0.295 HD
ENDBRANCH  18  19
ENDBRANCH  11  18
ENDBRANCH   4  16
ENDBRANCH   1   4
BRANCH   1  21
ATOM     21  C   UNK A   0      32.457 -23.243 -15.399  0.00  0.00    +0.041 C 
BRANCH  21  23
ATOM     22  O   UNK A   0      31.312 -22.356 -17.365  0.00  0.00    -0.252 OA
ATOM     23  C   UNK A   0      32.316 -22.836 -16.857  0.00  0.00    +0.297 C 
BRANCH  23  24
ATOM     24  O   UNK A   0      33.493 -23.086 -17.507  0.00  0.00    -0.450 OA
BRANCH  24  25
ATOM     25  C   UNK A   0      33.658 -22.422 -18.765  0.00  0.00    +0.208 C 
ATOM     26  C   UNK A   0      35.111 -22.031 -18.930  0.00  0.00    +0.051 C 
ENDBRANCH  24  25
ENDBRANCH  23  24
ENDBRANCH  21  23
BRANCH  21  27
ATOM     27  C   UNK A   0      31.283 -22.672 -14.588  0.00  0.00    -0.006 C 
BRANCH  27  28
ATOM     28  C   UNK A   0      30.064 -23.597 -14.459  0.00  0.00    +0.025 C 
BRANCH  28  29
ATOM     29  C   UNK A   0      29.010 -23.363 -15.512  0.00  0.00    -0.022 C 
ATOM     30  C   UNK A   0      28.274 -22.189 -15.490  0.00  0.00    -0.004 C 
ATOM     31  C   UNK A   0      28.793 -24.327 -16.485  0.00  0.00    -0.004 C 
ATOM     32  C   UNK A   0      27.298 -21.973 -16.463  0.00  0.00    -0.000 C 
ATOM     33  C   UNK A   0      27.817 -24.111 -17.459  0.00  0.00    -0.000 C 
ATOM     34  C   UNK A   0      27.070 -22.934 -17.447  0.00  0.00    -0.000 C 
ENDBRANCH  28  29
ENDBRANCH  27  28
ENDBRANCH  21  27
ENDBRANCH   1  21
TORSDOF 11
ENDMDL
MODEL 9
REMARK VINA RESULT:      -8.0      6.108     11.512
REMARK  Name = 5484727
REMARK  11 active torsions:
REMARK  status: ('A' for Active; 'I' for Inactive)
REMARK    1  A    between atoms: N_1  and  CA_4
REMARK    2  A    between atoms: N_1  and  C_21
REMARK    3  A    between atoms: CA_4  and  C_16
REMARK    4  A    between atoms: CA_11  and  C_18
REMARK    5  A    between atoms: C_18  and  O_19
REMARK    6  A    between atoms: C_21  and  C_23
REMARK    7  A    between atoms: C_21  and  C_27
REMARK    8  A    between atoms: C_23  and  O_24
REMARK    9  A    between atoms: O_24  and  C_25
REMARK   10  A    between atoms: C_27  and  C_28
REMARK   11  A    between atoms: C_28  and  C_29
REMARK                            x       y       z     vdW  Elec       q    Type
REMARK                         _______ _______ _______ _____ _____    ______ ____
ROOT
ATOM      1  N   ALA A   1      32.393 -22.787 -17.939  0.00  0.00    +0.399 N 
ATOM      2  H1  ALA A   1      31.740 -23.275 -18.552  0.00  0.00    -0.083 HD
ATOM      3  H2  ALA A   1      32.036 -21.863 -17.697  0.00  0.00    -0.083 HD
ENDROOT
BRANCH   1   4
ATOM      4  CA  ALA A   1      33.660 -22.625 -18.631  0.00  0.00    +0.018 C 
ATOM      5  CB  ALA A   1      33.896 -23.757 -19.609  0.00  0.00    -0.014 C 
BRANCH   4  16
ATOM      6  O   ALA A   1      32.507 -20.735 -19.483  0.00  0.00    -0.277 OA
ATOM      7  N   ALA A   1      34.789 -20.837 -19.884  0.00  0.00    -0.275 N 
ATOM      8  C   ALA A   1      36.342 -19.545 -21.085  0.00  0.00    +0.020 C 
ATOM      9  C   ALA A   1      34.842 -19.814 -20.926  0.00  0.00    +0.076 C 
ATOM     10  C   ALA A   1      36.932 -20.940 -20.930  0.00  0.00    +0.033 C 
ATOM     11  CA  ALA A   1      36.096 -21.499 -19.767  0.00  0.00    +0.174 C 
ATOM     12  C   ALA A   1      36.605 -18.778 -22.367  0.00  0.00    +0.002 C 
ATOM     13  C   ALA A   1      34.135 -18.481 -20.703  0.00  0.00    +0.020 C 
ATOM     14  C   ALA A   1      35.869 -17.431 -22.291  0.00  0.00    +0.000 C 
ATOM     15  C   ALA A   1      34.385 -17.570 -21.917  0.00  0.00    +0.002 C 
ATOM     16  C   ALA A   1      33.589 -21.312 -19.370  0.00  0.00    +0.206 C 
BRANCH  11  18
ATOM     17  OXT ALA A   1      37.176 -20.036 -18.174  0.00  0.00    -0.248 OA
ATOM     18  C   ALA A   1      36.705 -21.130 -18.447  0.00  0.00    +0.332 C 
BRANCH  18  19
ATOM     19  O   ALA A   1      36.665 -22.179 -17.592  0.00  0.00    -0.479 OA
ATOM     20  H   ALA A   1      36.975 -22.080 -16.713  0.00  0.00    +0.295 HD
ENDBRANCH  18  19
ENDBRANCH  11  18
ENDBRANCH   4  16
ENDBRANCH   1   4
BRANCH   1  21
ATOM     21  C   UNK A   0      32.559 -23.557 -16.712  0.00  0.00    +0.041 C 
BRANCH  21  23
ATOM     22  O   UNK A   0      31.162 -23.722 -14.716  0.00  0.00    -0.252 OA
ATOM     23  C   UNK A   0      31.302 -23.369 -15.880  0.00  0.00    +0.297 C 
BRANCH  23  24
ATOM     24  O   UNK A   0      30.355 -22.735 -16.636  0.00  0.00    -0.450 OA
BRANCH  24  25
ATOM     25  C   UNK A   0      29.027 -22.749 -16.102  0.00  0.00    +0.208 C 
ATOM     26  C   UNK A   0      28.085 -23.327 -17.136  0.00  0.00    +0.051 C 
ENDBRANCH  24  25
ENDBRANCH  23  24
ENDBRANCH  21  23
BRANCH  21  27
ATOM     27  C   UNK A   0      33.784 -23.089 -15.910  0.00  0.00    -0.006 C 
BRANCH  27  28
ATOM     28  C   UNK A   0      34.740 -24.205 -15.462  0.00  0.00    +0.025 C 
BRANCH  28  29
ATOM     29  C   UNK A   0      35.393 -23.947 -14.128  0.00  0.00    -0.022 C 
ATOM     30  C   UNK A   0      34.711 -24.264 -12.963  0.00  0.00    -0.004 C 
ATOM     31  C   UNK A   0      36.665 -23.397 -14.087  0.00  0.00    -0.004 C 
ATOM     32  C   UNK A   0      35.315 -24.026 -11.728  0.00  0.00    -0.000 C 
ATOM     33  C   UNK A   0      37.269 -23.158 -12.852  0.00  0.00    -0.000 C 
ATOM     34  C   UNK A   0      36.593 -23.472 -11.673  0.00  0.00    -0.000 C 
ENDBRANCH  28  29
ENDBRANCH  27  28
ENDBRANCH  21  27
ENDBRANCH   1  21
TORSDOF 11
ENDMDL
