MODEL 1
REMARK VINA RESULT:      -2.6      0.000      0.000
REMARK  Name = 702
REMARK  1 active torsions:
REMARK  status: ('A' for Active; 'I' for Inactive)
REMARK    1  A    between atoms: O_1  and  C_3
REMARK                            x       y       z     vdW  Elec       q    Type
REMARK                         _______ _______ _______ _____ _____    ______ ____
ROOT
ATOM      1  O   UNL     1      40.912 -13.539 -13.124  0.00  0.00    -0.382 OA
ATOM      2  H   UNL     1      40.096 -13.244 -12.690  0.00  0.00    +0.210 HD
ENDROOT
BRANCH   1   3
ATOM      3  C   UNL     1      40.699 -13.617 -14.526  0.00  0.00    +0.137 C 
ATOM      4  C   UNL     1      41.017 -15.021 -14.995  0.00  0.00    +0.034 C 
ENDBRANCH   1   3
TORSDOF 1
ENDMDL
MODEL 2
REMARK VINA RESULT:      -2.5     11.758     11.892
REMARK  Name = 702
REMARK  1 active torsions:
REMARK  status: ('A' for Active; 'I' for Inactive)
REMARK    1  A    between atoms: O_1  and  C_3
REMARK                            x       y       z     vdW  Elec       q    Type
REMARK                         _______ _______ _______ _____ _____    ______ ____
ROOT
ATOM      1  O   UNL     1      40.385 -25.945 -16.080  0.00  0.00    -0.382 OA
ATOM      2  H   UNL     1      41.149 -25.554 -16.533  0.00  0.00    +0.210 HD
ENDROOT
BRANCH   1   3
ATOM      3  C   UNL     1      40.361 -25.504 -14.730  0.00  0.00    +0.137 C 
ATOM      4  C   UNL     1      38.980 -25.747 -14.157  0.00  0.00    +0.034 C 
ENDBRANCH   1   3
TORSDOF 1
ENDMDL
MODEL 3
REMARK VINA RESULT:      -2.4     13.139     13.427
REMARK  Name = 702
REMARK  1 active torsions:
REMARK  status: ('A' for Active; 'I' for Inactive)
REMARK    1  A    between atoms: O_1  and  C_3
REMARK                            x       y       z     vdW  Elec       q    Type
REMARK                         _______ _______ _______ _____ _____    ______ ____
ROOT
ATOM      1  O   UNL     1      36.756 -27.353 -16.416  0.00  0.00    -0.382 OA
ATOM      2  H   UNL     1      36.980 -28.295 -16.362  0.00  0.00    +0.210 HD
ENDROOT
BRANCH   1   3
ATOM      3  C   UNL     1      36.956 -26.747 -15.147  0.00  0.00    +0.137 C 
ATOM      4  C   UNL     1      36.056 -25.534 -15.033  0.00  0.00    +0.034 C 
ENDBRANCH   1   3
TORSDOF 1
ENDMDL
MODEL 4
REMARK VINA RESULT:      -2.4     11.923     11.993
REMARK  Name = 702
REMARK  1 active torsions:
REMARK  status: ('A' for Active; 'I' for Inactive)
REMARK    1  A    between atoms: O_1  and  C_3
REMARK                            x       y       z     vdW  Elec       q    Type
REMARK                         _______ _______ _______ _____ _____    ______ ____
ROOT
ATOM      1  O   UNL     1      32.679 -22.074 -18.850  0.00  0.00    -0.382 OA
ATOM      2  H   UNL     1      32.332 -22.829 -19.349  0.00  0.00    +0.210 HD
ENDROOT
BRANCH   1   3
ATOM      3  C   UNL     1      33.627 -21.378 -19.646  0.00  0.00    +0.137 C 
ATOM      4  C   UNL     1      32.927 -20.247 -20.370  0.00  0.00    +0.034 C 
ENDBRANCH   1   3
TORSDOF 1
ENDMDL
MODEL 5
REMARK VINA RESULT:      -2.4     16.103     16.266
REMARK  Name = 702
REMARK  1 active torsions:
REMARK  status: ('A' for Active; 'I' for Inactive)
REMARK    1  A    between atoms: O_1  and  C_3
REMARK                            x       y       z     vdW  Elec       q    Type
REMARK                         _______ _______ _______ _____ _____    ______ ____
ROOT
ATOM      1  O   UNL     1      27.664 -23.934 -17.619  0.00  0.00    -0.382 OA
ATOM      2  H   UNL     1      27.154 -24.486 -17.006  0.00  0.00    +0.210 HD
ENDROOT
BRANCH   1   3
ATOM      3  C   UNL     1      28.245 -22.850 -16.908  0.00  0.00    +0.137 C 
ATOM      4  C   UNL     1      27.256 -22.353 -15.875  0.00  0.00    +0.034 C 
ENDBRANCH   1   3
TORSDOF 1
ENDMDL
MODEL 6
REMARK VINA RESULT:      -2.3     13.695     13.943
REMARK  Name = 702
REMARK  1 active torsions:
REMARK  status: ('A' for Active; 'I' for Inactive)
REMARK    1  A    between atoms: O_1  and  C_3
REMARK                            x       y       z     vdW  Elec       q    Type
REMARK                         _______ _______ _______ _____ _____    ______ ____
ROOT
ATOM      1  O   UNL     1      42.887 -21.224 -25.112  0.00  0.00    -0.382 OA
ATOM      2  H   UNL     1      41.984 -21.550 -25.250  0.00  0.00    +0.210 HD
ENDROOT
BRANCH   1   3
ATOM      3  C   UNL     1      43.326 -20.541 -26.277  0.00  0.00    +0.137 C 
ATOM      4  C   UNL     1      42.215 -20.560 -27.306  0.00  0.00    +0.034 C 
ENDBRANCH   1   3
TORSDOF 1
ENDMDL
MODEL 7
REMARK VINA RESULT:      -2.3     12.887     13.064
REMARK  Name = 702
REMARK  1 active torsions:
REMARK  status: ('A' for Active; 'I' for Inactive)
REMARK    1  A    between atoms: O_1  and  C_3
REMARK                            x       y       z     vdW  Elec       q    Type
REMARK                         _______ _______ _______ _____ _____    ______ ____
ROOT
ATOM      1  O   UNL     1      34.801 -16.745 -25.864  0.00  0.00    -0.382 OA
ATOM      2  H   UNL     1      34.419 -15.854 -25.827  0.00  0.00    +0.210 HD
ENDROOT
BRANCH   1   3
ATOM      3  C   UNL     1      34.749 -17.335 -24.573  0.00  0.00    +0.137 C 
ATOM      4  C   UNL     1      34.460 -18.814 -24.718  0.00  0.00    +0.034 C 
ENDBRANCH   1   3
TORSDOF 1
ENDMDL
MODEL 8
REMARK VINA RESULT:      -2.3     11.630     11.947
REMARK  Name = 702
REMARK  1 active torsions:
REMARK  status: ('A' for Active; 'I' for Inactive)
REMARK    1  A    between atoms: O_1  and  C_3
REMARK                            x       y       z     vdW  Elec       q    Type
REMARK                         _______ _______ _______ _____ _____    ______ ____
ROOT
ATOM      1  O   UNL     1      35.312 -25.108 -10.404  0.00  0.00    -0.382 OA
ATOM      2  H   UNL     1      34.473 -25.590 -10.477  0.00  0.00    +0.210 HD
ENDROOT
BRANCH   1   3
ATOM      3  C   UNL     1      35.633 -24.526 -11.659  0.00  0.00    +0.137 C 
ATOM      4  C   UNL     1      36.717 -23.488 -11.457  0.00  0.00    +0.034 C 
ENDBRANCH   1   3
TORSDOF 1
ENDMDL
MODEL 9
REMARK VINA RESULT:      -2.3     11.118     11.279
REMARK  Name = 702
REMARK  1 active torsions:
REMARK  status: ('A' for Active; 'I' for Inactive)
REMARK    1  A    between atoms: O_1  and  C_3
REMARK                            x       y       z     vdW  Elec       q    Type
REMARK                         _______ _______ _______ _____ _____    ______ ____
ROOT
ATOM      1  O   UNL     1      32.742  -8.761 -19.474  0.00  0.00    -0.382 OA
ATOM      2  H   UNL     1      33.574  -9.227 -19.297  0.00  0.00    +0.210 HD
ENDROOT
BRANCH   1   3
ATOM      3  C   UNL     1      31.812  -9.662 -20.058  0.00  0.00    +0.137 C 
ATOM      4  C   UNL     1      31.444 -10.719 -19.038  0.00  0.00    +0.034 C 
ENDBRANCH   1   3
TORSDOF 1
ENDMDL
