MODEL 1
REMARK VINA RESULT:      -8.4      0.000      0.000
REMARK  Name = 72157
REMARK  4 active torsions:
REMARK  status: ('A' for Active; 'I' for Inactive)
REMARK    1  A    between atoms: C_7  and  O_16
REMARK    2  A    between atoms: C_12  and  O_14
REMARK    3  A    between atoms: O_16  and  C_17
REMARK    4  A    between atoms: C_17  and  C_18
REMARK                            x       y       z     vdW  Elec       q    Type
REMARK                         _______ _______ _______ _____ _____    ______ ____
ROOT
ATOM      1  S   UNL     1      34.633 -23.832 -15.258  0.00  0.00    -0.056 S 
ATOM      2  O   UNL     1      35.303 -24.965 -10.796  0.00  0.00    -0.226 OA
ATOM      3  N   UNL     1      33.460 -24.169 -12.986  0.00  0.00    -0.384 NA
ATOM      4  N   UNL     1      35.837 -24.532 -13.043  0.00  0.00    -0.220 N 
ATOM      5  C   UNL     1      32.928 -23.577 -15.199  0.00  0.00    +0.132 C 
ATOM      6  C   UNL     1      32.477 -23.806 -13.895  0.00  0.00    +0.126 C 
ATOM      7  C   UNL     1      30.696 -23.060 -15.931  0.00  0.00    +0.136 C 
ATOM      8  C   UNL     1      32.053 -23.204 -16.231  0.00  0.00    +0.029 C 
ATOM      9  C   UNL     1      31.100 -23.654 -13.619  0.00  0.00    +0.032 C 
ATOM     10  C   UNL     1      30.224 -23.282 -14.642  0.00  0.00    +0.039 C 
ATOM     11  C   UNL     1      34.624 -24.213 -13.591  0.00  0.00    +0.216 C 
ATOM     12  C   UNL     1      36.105 -24.880 -11.717  0.00  0.00    +0.408 C 
ATOM     13  H   UNL     1      36.610 -24.513 -13.653  0.00  0.00    +0.161 HD
ENDROOT
BRANCH  12  14
ATOM     14  O   UNL     1      37.445 -25.125 -11.574  0.00  0.00    -0.430 OA
ATOM     15  C   UNL     1      38.107 -25.687 -12.712  0.00  0.00    +0.257 C 
ENDBRANCH  12  14
BRANCH   7  16
ATOM     16  O   UNL     1      29.827 -22.698 -16.916  0.00  0.00    -0.476 OA
BRANCH  16  17
ATOM     17  C   UNL     1      28.578 -23.385 -16.964  0.00  0.00    +0.205 C 
BRANCH  17  18
ATOM     18  C   UNL     1      27.456 -22.363 -17.060  0.00  0.00    +0.047 C 
ATOM     19  C   UNL     1      26.799 -22.116 -15.714  0.00  0.00    +0.004 C 
ENDBRANCH  17  18
ENDBRANCH  16  17
ENDBRANCH   7  16
TORSDOF 4
ENDMDL
MODEL 2
REMARK VINA RESULT:      -8.3     11.417     13.635
REMARK  Name = 72157
REMARK  4 active torsions:
REMARK  status: ('A' for Active; 'I' for Inactive)
REMARK    1  A    between atoms: C_7  and  O_16
REMARK    2  A    between atoms: C_12  and  O_14
REMARK    3  A    between atoms: O_16  and  C_17
REMARK    4  A    between atoms: C_17  and  C_18
REMARK                            x       y       z     vdW  Elec       q    Type
REMARK                         _______ _______ _______ _____ _____    ______ ____
ROOT
ATOM      1  S   UNL     1      34.237 -14.631 -21.928  0.00  0.00    -0.056 S 
ATOM      2  O   UNL     1      33.779 -12.159 -25.843  0.00  0.00    -0.226 OA
ATOM      3  N   UNL     1      34.185 -14.780 -24.502  0.00  0.00    -0.384 NA
ATOM      4  N   UNL     1      33.907 -12.594 -23.536  0.00  0.00    -0.220 N 
ATOM      5  C   UNL     1      34.434 -16.191 -22.637  0.00  0.00    +0.132 C 
ATOM      6  C   UNL     1      34.377 -16.070 -24.029  0.00  0.00    +0.126 C 
ATOM      7  C   UNL     1      34.757 -18.568 -22.810  0.00  0.00    +0.136 C 
ATOM      8  C   UNL     1      34.623 -17.431 -22.008  0.00  0.00    +0.029 C 
ATOM      9  C   UNL     1      34.515 -17.235 -24.816  0.00  0.00    +0.032 C 
ATOM     10  C   UNL     1      34.704 -18.472 -24.196  0.00  0.00    +0.039 C 
ATOM     11  C   UNL     1      34.098 -13.949 -23.490  0.00  0.00    +0.216 C 
ATOM     12  C   UNL     1      33.762 -11.796 -24.673  0.00  0.00    +0.408 C 
ATOM     13  H   UNL     1      33.867 -12.129 -22.669  0.00  0.00    +0.161 HD
ENDROOT
BRANCH  12  14
ATOM     14  O   UNL     1      33.590 -10.491 -24.293  0.00  0.00    -0.430 OA
ATOM     15  C   UNL     1      34.768  -9.676 -24.290  0.00  0.00    +0.257 C 
ENDBRANCH  12  14
BRANCH   7  16
ATOM     16  O   UNL     1      34.942 -19.784 -22.223  0.00  0.00    -0.476 OA
BRANCH  16  17
ATOM     17  C   UNL     1      35.327 -19.789 -20.851  0.00  0.00    +0.205 C 
BRANCH  17  18
ATOM     18  C   UNL     1      34.444 -20.771 -20.095  0.00  0.00    +0.047 C 
ATOM     19  C   UNL     1      32.975 -20.403 -20.196  0.00  0.00    +0.004 C 
ENDBRANCH  17  18
ENDBRANCH  16  17
ENDBRANCH   7  16
TORSDOF 4
ENDMDL
MODEL 3
REMARK VINA RESULT:      -8.2     10.654     13.099
REMARK  Name = 72157
REMARK  4 active torsions:
REMARK  status: ('A' for Active; 'I' for Inactive)
REMARK    1  A    between atoms: C_7  and  O_16
REMARK    2  A    between atoms: C_12  and  O_14
REMARK    3  A    between atoms: O_16  and  C_17
REMARK    4  A    between atoms: C_17  and  C_18
REMARK                            x       y       z     vdW  Elec       q    Type
REMARK                         _______ _______ _______ _____ _____    ______ ____
ROOT
ATOM      1  S   UNL     1      34.390 -15.085 -22.447  0.00  0.00    -0.056 S 
ATOM      2  O   UNL     1      33.395 -15.069 -26.992  0.00  0.00    -0.226 OA
ATOM      3  N   UNL     1      34.236 -16.555 -24.561  0.00  0.00    -0.384 NA
ATOM      4  N   UNL     1      33.695 -14.225 -24.818  0.00  0.00    -0.220 N 
ATOM      5  C   UNL     1      34.773 -16.758 -22.280  0.00  0.00    +0.132 C 
ATOM      6  C   UNL     1      34.632 -17.385 -23.522  0.00  0.00    +0.126 C 
ATOM      7  C   UNL     1      35.424 -18.833 -21.253  0.00  0.00    +0.136 C 
ATOM      8  C   UNL     1      35.168 -17.465 -21.133  0.00  0.00    +0.029 C 
ATOM      9  C   UNL     1      34.897 -18.769 -23.616  0.00  0.00    +0.032 C 
ATOM     10  C   UNL     1      35.292 -19.478 -22.478  0.00  0.00    +0.039 C 
ATOM     11  C   UNL     1      34.079 -15.332 -24.111  0.00  0.00    +0.216 C 
ATOM     12  C   UNL     1      33.382 -14.154 -26.178  0.00  0.00    +0.408 C 
ATOM     13  H   UNL     1      33.631 -13.383 -24.312  0.00  0.00    +0.161 HD
ENDROOT
BRANCH  12  14
ATOM     14  O   UNL     1      33.045 -12.865 -26.499  0.00  0.00    -0.430 OA
ATOM     15  C   UNL     1      33.783 -11.836 -25.831  0.00  0.00    +0.257 C 
ENDBRANCH  12  14
BRANCH   7  16
ATOM     16  O   UNL     1      35.809 -19.542 -20.155  0.00  0.00    -0.476 OA
BRANCH  16  17
ATOM     17  C   UNL     1      35.796 -20.963 -20.263  0.00  0.00    +0.205 C 
BRANCH  17  18
ATOM     18  C   UNL     1      34.728 -21.518 -19.332  0.00  0.00    +0.047 C 
ATOM     19  C   UNL     1      33.328 -21.184 -19.814  0.00  0.00    +0.004 C 
ENDBRANCH  17  18
ENDBRANCH  16  17
ENDBRANCH   7  16
TORSDOF 4
ENDMDL
MODEL 4
REMARK VINA RESULT:      -7.9      4.101      5.200
REMARK  Name = 72157
REMARK  4 active torsions:
REMARK  status: ('A' for Active; 'I' for Inactive)
REMARK    1  A    between atoms: C_7  and  O_16
REMARK    2  A    between atoms: C_12  and  O_14
REMARK    3  A    between atoms: O_16  and  C_17
REMARK    4  A    between atoms: C_17  and  C_18
REMARK                            x       y       z     vdW  Elec       q    Type
REMARK                         _______ _______ _______ _____ _____    ______ ____
ROOT
ATOM      1  S   UNL     1      36.834 -22.485 -15.509  0.00  0.00    -0.056 S 
ATOM      2  O   UNL     1      33.485 -24.478 -12.966  0.00  0.00    -0.226 OA
ATOM      3  N   UNL     1      34.404 -23.348 -15.556  0.00  0.00    -0.384 NA
ATOM      4  N   UNL     1      35.589 -23.560 -13.473  0.00  0.00    -0.220 N 
ATOM      5  C   UNL     1      35.970 -22.343 -16.994  0.00  0.00    +0.132 C 
ATOM      6  C   UNL     1      34.682 -22.860 -16.825  0.00  0.00    +0.126 C 
ATOM      7  C   UNL     1      35.504 -21.810 -19.293  0.00  0.00    +0.136 C 
ATOM      8  C   UNL     1      36.400 -21.813 -18.221  0.00  0.00    +0.029 C 
ATOM      9  C   UNL     1      33.796 -22.846 -17.925  0.00  0.00    +0.032 C 
ATOM     10  C   UNL     1      34.219 -22.319 -19.149  0.00  0.00    +0.039 C 
ATOM     11  C   UNL     1      35.458 -23.203 -14.788  0.00  0.00    +0.216 C 
ATOM     12  C   UNL     1      34.627 -24.159 -12.658  0.00  0.00    +0.408 C 
ATOM     13  H   UNL     1      36.460 -23.372 -13.055  0.00  0.00    +0.161 HD
ENDROOT
BRANCH  12  14
ATOM     14  O   UNL     1      35.150 -24.354 -11.406  0.00  0.00    -0.430 OA
ATOM     15  C   UNL     1      36.438 -23.775 -11.166  0.00  0.00    +0.257 C 
ENDBRANCH  12  14
BRANCH   7  16
ATOM     16  O   UNL     1      35.898 -21.301 -20.494  0.00  0.00    -0.476 OA
BRANCH  16  17
ATOM     17  C   UNL     1      35.785 -19.890 -20.669  0.00  0.00    +0.205 C 
BRANCH  17  18
ATOM     18  C   UNL     1      34.660 -19.605 -21.652  0.00  0.00    +0.047 C 
ATOM     19  C   UNL     1      33.346 -19.329 -20.944  0.00  0.00    +0.004 C 
ENDBRANCH  17  18
ENDBRANCH  16  17
ENDBRANCH   7  16
TORSDOF 4
ENDMDL
MODEL 5
REMARK VINA RESULT:      -7.6      7.592      9.017
REMARK  Name = 72157
REMARK  4 active torsions:
REMARK  status: ('A' for Active; 'I' for Inactive)
REMARK    1  A    between atoms: C_7  and  O_16
REMARK    2  A    between atoms: C_12  and  O_14
REMARK    3  A    between atoms: O_16  and  C_17
REMARK    4  A    between atoms: C_17  and  C_18
REMARK                            x       y       z     vdW  Elec       q    Type
REMARK                         _______ _______ _______ _____ _____    ______ ____
ROOT
ATOM      1  S   UNL     1      32.688 -20.210 -20.575  0.00  0.00    -0.056 S 
ATOM      2  O   UNL     1      34.809 -23.108 -17.617  0.00  0.00    -0.226 OA
ATOM      3  N   UNL     1      34.978 -20.934 -19.635  0.00  0.00    -0.384 NA
ATOM      4  N   UNL     1      33.044 -22.082 -18.782  0.00  0.00    -0.220 N 
ATOM      5  C   UNL     1      34.086 -19.397 -21.175  0.00  0.00    +0.132 C 
ATOM      6  C   UNL     1      35.222 -19.922 -20.552  0.00  0.00    +0.126 C 
ATOM      7  C   UNL     1      35.433 -17.865 -22.449  0.00  0.00    +0.136 C 
ATOM      8  C   UNL     1      34.170 -18.368 -22.126  0.00  0.00    +0.029 C 
ATOM      9  C   UNL     1      36.487 -19.396 -20.897  0.00  0.00    +0.032 C 
ATOM     10  C   UNL     1      36.578 -18.372 -21.844  0.00  0.00    +0.039 C 
ATOM     11  C   UNL     1      33.688 -21.165 -19.568  0.00  0.00    +0.216 C 
ATOM     12  C   UNL     1      33.620 -22.977 -17.877  0.00  0.00    +0.408 C 
ATOM     13  H   UNL     1      32.064 -22.116 -18.864  0.00  0.00    +0.161 HD
ENDROOT
BRANCH  12  14
ATOM     14  O   UNL     1      32.634 -23.725 -17.289  0.00  0.00    -0.430 OA
ATOM     15  C   UNL     1      32.073 -23.192 -16.084  0.00  0.00    +0.257 C 
ENDBRANCH  12  14
BRANCH   7  16
ATOM     16  O   UNL     1      35.542 -16.866 -23.369  0.00  0.00    -0.476 OA
BRANCH  16  17
ATOM     17  C   UNL     1      34.804 -15.672 -23.119  0.00  0.00    +0.205 C 
BRANCH  17  18
ATOM     18  C   UNL     1      33.974 -15.339 -24.350  0.00  0.00    +0.047 C 
ATOM     19  C   UNL     1      34.004 -16.460 -25.372  0.00  0.00    +0.004 C 
ENDBRANCH  17  18
ENDBRANCH  16  17
ENDBRANCH   7  16
TORSDOF 4
ENDMDL
MODEL 6
REMARK VINA RESULT:      -7.5     11.616     12.899
REMARK  Name = 72157
REMARK  4 active torsions:
REMARK  status: ('A' for Active; 'I' for Inactive)
REMARK    1  A    between atoms: C_7  and  O_16
REMARK    2  A    between atoms: C_12  and  O_14
REMARK    3  A    between atoms: O_16  and  C_17
REMARK    4  A    between atoms: C_17  and  C_18
REMARK                            x       y       z     vdW  Elec       q    Type
REMARK                         _______ _______ _______ _____ _____    ______ ____
ROOT
ATOM      1  S   UNL     1      34.598 -15.284 -21.116  0.00  0.00    -0.056 S 
ATOM      2  O   UNL     1      34.815 -19.794 -22.238  0.00  0.00    -0.226 OA
ATOM      3  N   UNL     1      34.342 -16.975 -23.046  0.00  0.00    -0.384 NA
ATOM      4  N   UNL     1      34.916 -17.871 -20.889  0.00  0.00    -0.220 N 
ATOM      5  C   UNL     1      34.188 -14.659 -22.669  0.00  0.00    +0.132 C 
ATOM      6  C   UNL     1      34.095 -15.717 -23.578  0.00  0.00    +0.126 C 
ATOM      7  C   UNL     1      33.644 -13.070 -24.392  0.00  0.00    +0.136 C 
ATOM      8  C   UNL     1      33.967 -13.327 -23.057  0.00  0.00    +0.029 C 
ATOM      9  C   UNL     1      33.768 -15.429 -24.922  0.00  0.00    +0.032 C 
ATOM     10  C   UNL     1      33.545 -14.106 -25.314  0.00  0.00    +0.039 C 
ATOM     11  C   UNL     1      34.615 -16.865 -21.768  0.00  0.00    +0.216 C 
ATOM     12  C   UNL     1      34.997 -19.239 -21.161  0.00  0.00    +0.408 C 
ATOM     13  H   UNL     1      35.094 -17.601 -19.960  0.00  0.00    +0.161 HD
ENDROOT
BRANCH  12  14
ATOM     14  O   UNL     1      35.323 -19.912 -20.013  0.00  0.00    -0.430 OA
ATOM     15  C   UNL     1      36.351 -20.901 -20.133  0.00  0.00    +0.257 C 
ENDBRANCH  12  14
BRANCH   7  16
ATOM     16  O   UNL     1      33.424 -11.787 -24.793  0.00  0.00    -0.476 OA
BRANCH  16  17
ATOM     17  C   UNL     1      33.701 -10.756 -23.848  0.00  0.00    +0.205 C 
BRANCH  17  18
ATOM     18  C   UNL     1      34.695  -9.780 -24.460  0.00  0.00    +0.047 C 
ATOM     19  C   UNL     1      35.387 -10.367 -25.677  0.00  0.00    +0.004 C 
ENDBRANCH  17  18
ENDBRANCH  16  17
ENDBRANCH   7  16
TORSDOF 4
ENDMDL
MODEL 7
REMARK VINA RESULT:      -7.5     10.854     12.022
REMARK  Name = 72157
REMARK  4 active torsions:
REMARK  status: ('A' for Active; 'I' for Inactive)
REMARK    1  A    between atoms: C_7  and  O_16
REMARK    2  A    between atoms: C_12  and  O_14
REMARK    3  A    between atoms: O_16  and  C_17
REMARK    4  A    between atoms: C_17  and  C_18
REMARK                            x       y       z     vdW  Elec       q    Type
REMARK                         _______ _______ _______ _____ _____    ______ ____
ROOT
ATOM      1  S   UNL     1      33.650 -15.708 -20.146  0.00  0.00    -0.056 S 
ATOM      2  O   UNL     1      36.579 -18.418 -22.538  0.00  0.00    -0.226 OA
ATOM      3  N   UNL     1      34.816 -16.029 -22.424  0.00  0.00    -0.384 NA
ATOM      4  N   UNL     1      35.290 -17.663 -20.723  0.00  0.00    -0.220 N 
ATOM      5  C   UNL     1      33.323 -14.545 -21.377  0.00  0.00    +0.132 C 
ATOM      6  C   UNL     1      34.039 -14.884 -22.529  0.00  0.00    +0.126 C 
ATOM      7  C   UNL     1      32.391 -12.615 -22.469  0.00  0.00    +0.136 C 
ATOM      8  C   UNL     1      32.493 -13.413 -21.327  0.00  0.00    +0.029 C 
ATOM      9  C   UNL     1      33.919 -14.059 -23.669  0.00  0.00    +0.032 C 
ATOM     10  C   UNL     1      33.094 -12.932 -23.626  0.00  0.00    +0.039 C 
ATOM     11  C   UNL     1      34.688 -16.539 -21.222  0.00  0.00    +0.216 C 
ATOM     12  C   UNL     1      36.176 -18.516 -21.386  0.00  0.00    +0.408 C 
ATOM     13  H   UNL     1      35.074 -17.897 -19.792  0.00  0.00    +0.161 HD
ENDROOT
BRANCH  12  14
ATOM     14  O   UNL     1      36.552 -19.525 -20.540  0.00  0.00    -0.430 OA
ATOM     15  C   UNL     1      35.587 -20.562 -20.327  0.00  0.00    +0.257 C 
ENDBRANCH  12  14
BRANCH   7  16
ATOM     16  O   UNL     1      31.592 -11.511 -22.446  0.00  0.00    -0.476 OA
BRANCH  16  17
ATOM     17  C   UNL     1      30.759 -11.338 -21.301  0.00  0.00    +0.205 C 
BRANCH  17  18
ATOM     18  C   UNL     1      31.393 -10.304 -20.383  0.00  0.00    +0.047 C 
ATOM     19  C   UNL     1      31.412 -10.769 -18.938  0.00  0.00    +0.004 C 
ENDBRANCH  17  18
ENDBRANCH  16  17
ENDBRANCH   7  16
TORSDOF 4
ENDMDL
MODEL 8
REMARK VINA RESULT:      -7.4      6.711      8.913
REMARK  Name = 72157
REMARK  4 active torsions:
REMARK  status: ('A' for Active; 'I' for Inactive)
REMARK    1  A    between atoms: C_7  and  O_16
REMARK    2  A    between atoms: C_12  and  O_14
REMARK    3  A    between atoms: O_16  and  C_17
REMARK    4  A    between atoms: C_17  and  C_18
REMARK                            x       y       z     vdW  Elec       q    Type
REMARK                         _______ _______ _______ _____ _____    ______ ____
ROOT
ATOM      1  S   UNL     1      32.876 -20.088 -20.804  0.00  0.00    -0.056 S 
ATOM      2  O   UNL     1      36.685 -18.171 -22.665  0.00  0.00    -0.226 OA
ATOM      3  N   UNL     1      35.453 -20.036 -20.707  0.00  0.00    -0.384 NA
ATOM      4  N   UNL     1      34.399 -18.603 -22.328  0.00  0.00    -0.220 N 
ATOM      5  C   UNL     1      33.648 -21.109 -19.649  0.00  0.00    +0.132 C 
ATOM      6  C   UNL     1      35.033 -20.944 -19.747  0.00  0.00    +0.126 C 
ATOM      7  C   UNL     1      33.918 -22.722 -17.885  0.00  0.00    +0.136 C 
ATOM      8  C   UNL     1      33.070 -21.994 -18.724  0.00  0.00    +0.029 C 
ATOM      9  C   UNL     1      35.867 -21.693 -18.887  0.00  0.00    +0.032 C 
ATOM     10  C   UNL     1      35.297 -22.575 -17.964  0.00  0.00    +0.039 C 
ATOM     11  C   UNL     1      34.408 -19.529 -21.320  0.00  0.00    +0.216 C 
ATOM     12  C   UNL     1      35.502 -17.992 -22.928  0.00  0.00    +0.408 C 
ATOM     13  H   UNL     1      33.515 -18.337 -22.668  0.00  0.00    +0.161 HD
ENDROOT
BRANCH  12  14
ATOM     14  O   UNL     1      35.069 -17.125 -23.897  0.00  0.00    -0.430 OA
ATOM     15  C   UNL     1      34.547 -17.723 -25.088  0.00  0.00    +0.257 C 
ENDBRANCH  12  14
BRANCH   7  16
ATOM     16  O   UNL     1      33.381 -23.587 -16.979  0.00  0.00    -0.476 OA
BRANCH  16  17
ATOM     17  C   UNL     1      33.713 -23.379 -15.608  0.00  0.00    +0.205 C 
BRANCH  17  18
ATOM     18  C   UNL     1      32.431 -23.172 -14.817  0.00  0.00    +0.047 C 
ATOM     19  C   UNL     1      31.197 -23.355 -15.682  0.00  0.00    +0.004 C 
ENDBRANCH  17  18
ENDBRANCH  16  17
ENDBRANCH   7  16
TORSDOF 4
ENDMDL
MODEL 9
REMARK VINA RESULT:      -7.4     11.700     13.963
REMARK  Name = 72157
REMARK  4 active torsions:
REMARK  status: ('A' for Active; 'I' for Inactive)
REMARK    1  A    between atoms: C_7  and  O_16
REMARK    2  A    between atoms: C_12  and  O_14
REMARK    3  A    between atoms: O_16  and  C_17
REMARK    4  A    between atoms: C_17  and  C_18
REMARK                            x       y       z     vdW  Elec       q    Type
REMARK                         _______ _______ _______ _____ _____    ______ ____
ROOT
ATOM      1  S   UNL     1      33.695 -13.165 -24.003  0.00  0.00    -0.056 S 
ATOM      2  O   UNL     1      31.072 -10.556 -21.182  0.00  0.00    -0.226 OA
ATOM      3  N   UNL     1      32.581 -13.066 -21.679  0.00  0.00    -0.384 NA
ATOM      4  N   UNL     1      32.264 -11.163 -23.116  0.00  0.00    -0.220 N 
ATOM      5  C   UNL     1      33.913 -14.521 -22.960  0.00  0.00    +0.132 C 
ATOM      6  C   UNL     1      33.242 -14.284 -21.756  0.00  0.00    +0.126 C 
ATOM      7  C   UNL     1      34.659 -16.669 -22.175  0.00  0.00    +0.136 C 
ATOM      8  C   UNL     1      34.628 -15.707 -23.189  0.00  0.00    +0.029 C 
ATOM      9  C   UNL     1      33.290 -15.272 -20.748  0.00  0.00    +0.032 C 
ATOM     10  C   UNL     1      33.999 -16.456 -20.971  0.00  0.00    +0.039 C 
ATOM     11  C   UNL     1      32.752 -12.401 -22.798  0.00  0.00    +0.216 C 
ATOM     12  C   UNL     1      31.475 -10.332 -22.317  0.00  0.00    +0.408 C 
ATOM     13  H   UNL     1      32.494 -10.818 -24.008  0.00  0.00    +0.161 HD
ENDROOT
BRANCH  12  14
ATOM     14  O   UNL     1      31.196  -9.177 -23.000  0.00  0.00    -0.430 OA
ATOM     15  C   UNL     1      31.663  -7.963 -22.401  0.00  0.00    +0.257 C 
ENDBRANCH  12  14
BRANCH   7  16
ATOM     16  O   UNL     1      35.346 -17.829 -22.373  0.00  0.00    -0.476 OA
BRANCH  16  17
ATOM     17  C   UNL     1      34.578 -19.024 -22.496  0.00  0.00    +0.205 C 
BRANCH  17  18
ATOM     18  C   UNL     1      34.669 -19.803 -21.192  0.00  0.00    +0.047 C 
ATOM     19  C   UNL     1      33.296 -20.116 -20.624  0.00  0.00    +0.004 C 
ENDBRANCH  17  18
ENDBRANCH  16  17
ENDBRANCH   7  16
TORSDOF 4
ENDMDL
