MODEL 1
REMARK VINA RESULT:     -10.3      0.000      0.000
REMARK  Name = 25229537
REMARK  4 active torsions:
REMARK  status: ('A' for Active; 'I' for Inactive)
REMARK    1  A    between atoms: N_1  and  S_15
REMARK    2  A    between atoms: C_8  and  C_12
REMARK    3  A    between atoms: S_15  and  C_18
REMARK    4  A    between atoms: C_19  and  N_26
REMARK                            x       y       z     vdW  Elec       q    Type
REMARK                         _______ _______ _______ _____ _____    ______ ____
ROOT
ATOM      1  N   UNL     1      35.085 -18.139 -23.047  0.00  0.00    -0.166 N 
ATOM      2  N   UNL     1      33.728 -16.243 -25.695  0.00  0.00    -0.242 NA
ATOM      3  C   UNL     1      34.582 -16.963 -23.549  0.00  0.00    +0.091 C 
ATOM      4  C   UNL     1      34.255 -17.196 -24.885  0.00  0.00    +0.098 C 
ATOM      5  C   UNL     1      35.085 -19.102 -24.024  0.00  0.00    +0.090 C 
ATOM      6  C   UNL     1      34.574 -18.545 -25.175  0.00  0.00    +0.038 C 
ATOM      7  C   UNL     1      34.381 -15.715 -22.963  0.00  0.00    +0.024 C 
ATOM      8  C   UNL     1      33.841 -14.729 -23.783  0.00  0.00    +0.074 C 
ATOM      9  C   UNL     1      33.542 -15.041 -25.103  0.00  0.00    +0.103 C 
ENDROOT
BRANCH   8  12
ATOM     10  O   UNL     1      32.899 -13.212 -22.248  0.00  0.00    -0.270 OA
ATOM     11  N   UNL     1      34.175 -12.321 -23.932  0.00  0.00    -0.325 N 
ATOM     12  C   UNL     1      33.593 -13.395 -23.265  0.00  0.00    +0.244 C 
ATOM     13  H   UNL     1      34.029 -11.403 -23.609  0.00  0.00    +0.145 HD
ATOM     14  H   UNL     1      34.733 -12.479 -24.728  0.00  0.00    +0.145 HD
ENDBRANCH   8  12
BRANCH   1  15
ATOM     15  S   UNL     1      35.622 -18.382 -21.490  0.00  0.00    +0.082 S 
ATOM     16  O   UNL     1      35.349 -17.211 -20.617  0.00  0.00    -0.149 OA
ATOM     17  O   UNL     1      37.020 -18.866 -21.522  0.00  0.00    -0.149 OA
BRANCH  15  18
ATOM     18  C   UNL     1      34.686 -19.693 -20.685  0.00  0.00    +0.148 C 
ATOM     19  C   UNL     1      35.314 -20.684 -19.932  0.00  0.00    +0.162 C 
ATOM     20  C   UNL     1      33.299 -19.702 -20.830  0.00  0.00    +0.022 C 
ATOM     21  C   UNL     1      34.556 -21.684 -19.322  0.00  0.00    +0.025 C 
ATOM     22  C   UNL     1      32.539 -20.700 -20.220  0.00  0.00    +0.001 C 
ATOM     23  C   UNL     1      33.168 -21.691 -19.467  0.00  0.00    +0.002 C 
BRANCH  19  26
ATOM     24  O   UNL     1      37.240 -19.992 -18.868  0.00  0.00    -0.126 OA
ATOM     25  O   UNL     1      37.416 -21.429 -20.518  0.00  0.00    -0.126 OA
ATOM     26  N   UNL     1      36.727 -20.702 -19.765  0.00  0.00    +0.059 N 
ENDBRANCH  19  26
ENDBRANCH  15  18
ENDBRANCH   1  15
TORSDOF 4
ENDMDL
MODEL 2
REMARK VINA RESULT:     -10.0      1.326      2.103
REMARK  Name = 25229537
REMARK  4 active torsions:
REMARK  status: ('A' for Active; 'I' for Inactive)
REMARK    1  A    between atoms: N_1  and  S_15
REMARK    2  A    between atoms: C_8  and  C_12
REMARK    3  A    between atoms: S_15  and  C_18
REMARK    4  A    between atoms: C_19  and  N_26
REMARK                            x       y       z     vdW  Elec       q    Type
REMARK                         _______ _______ _______ _____ _____    ______ ____
ROOT
ATOM      1  N   UNL     1      35.301 -18.439 -22.910  0.00  0.00    -0.166 N 
ATOM      2  N   UNL     1      33.703 -16.799 -25.593  0.00  0.00    -0.242 NA
ATOM      3  C   UNL     1      34.756 -17.313 -23.477  0.00  0.00    +0.091 C 
ATOM      4  C   UNL     1      34.302 -17.673 -24.746  0.00  0.00    +0.098 C 
ATOM      5  C   UNL     1      35.205 -19.494 -23.781  0.00  0.00    +0.090 C 
ATOM      6  C   UNL     1      34.588 -19.048 -24.928  0.00  0.00    +0.038 C 
ATOM      7  C   UNL     1      34.615 -16.009 -23.003  0.00  0.00    +0.024 C 
ATOM      8  C   UNL     1      34.003 -15.104 -23.863  0.00  0.00    +0.074 C 
ATOM      9  C   UNL     1      33.579 -15.541 -25.111  0.00  0.00    +0.103 C 
ENDROOT
BRANCH   8  12
ATOM     10  O   UNL     1      33.330 -13.431 -22.349  0.00  0.00    -0.270 OA
ATOM     11  N   UNL     1      34.198 -12.725 -24.351  0.00  0.00    -0.325 N 
ATOM     12  C   UNL     1      33.810 -13.722 -23.460  0.00  0.00    +0.244 C 
ATOM     13  H   UNL     1      34.083 -11.778 -24.111  0.00  0.00    +0.145 HD
ATOM     14  H   UNL     1      34.589 -12.968 -25.222  0.00  0.00    +0.145 HD
ENDBRANCH   8  12
BRANCH   1  15
ATOM     15  S   UNL     1      35.983 -18.533 -21.394  0.00  0.00    +0.082 S 
ATOM     16  O   UNL     1      35.572 -17.399 -20.526  0.00  0.00    -0.149 OA
ATOM     17  O   UNL     1      37.440 -18.765 -21.524  0.00  0.00    -0.149 OA
BRANCH  15  18
ATOM     18  C   UNL     1      35.354 -19.959 -20.494  0.00  0.00    +0.148 C 
ATOM     19  C   UNL     1      33.986 -20.211 -20.386  0.00  0.00    +0.162 C 
ATOM     20  C   UNL     1      36.271 -20.823 -19.896  0.00  0.00    +0.022 C 
ATOM     21  C   UNL     1      33.536 -21.327 -19.681  0.00  0.00    +0.025 C 
ATOM     22  C   UNL     1      35.822 -21.940 -19.191  0.00  0.00    +0.001 C 
ATOM     23  C   UNL     1      34.455 -22.191 -19.083  0.00  0.00    +0.002 C 
BRANCH  19  26
ATOM     24  O   UNL     1      32.931 -18.169 -20.573  0.00  0.00    -0.126 OA
ATOM     25  O   UNL     1      32.304 -19.796 -21.907  0.00  0.00    -0.126 OA
ATOM     26  N   UNL     1      33.026 -19.350 -20.985  0.00  0.00    +0.059 N 
ENDBRANCH  19  26
ENDBRANCH  15  18
ENDBRANCH   1  15
TORSDOF 4
ENDMDL
MODEL 3
REMARK VINA RESULT:     -10.0      2.355      3.371
REMARK  Name = 25229537
REMARK  4 active torsions:
REMARK  status: ('A' for Active; 'I' for Inactive)
REMARK    1  A    between atoms: N_1  and  S_15
REMARK    2  A    between atoms: C_8  and  C_12
REMARK    3  A    between atoms: S_15  and  C_18
REMARK    4  A    between atoms: C_19  and  N_26
REMARK                            x       y       z     vdW  Elec       q    Type
REMARK                         _______ _______ _______ _____ _____    ______ ____
ROOT
ATOM      1  N   UNL     1      34.856 -17.115 -21.905  0.00  0.00    -0.166 N 
ATOM      2  N   UNL     1      33.562 -13.863 -22.343  0.00  0.00    -0.242 NA
ATOM      3  C   UNL     1      34.330 -16.128 -22.702  0.00  0.00    +0.091 C 
ATOM      4  C   UNL     1      34.086 -15.027 -21.882  0.00  0.00    +0.098 C 
ATOM      5  C   UNL     1      34.950 -16.670 -20.611  0.00  0.00    +0.090 C 
ATOM      6  C   UNL     1      34.480 -15.377 -20.567  0.00  0.00    +0.038 C 
ATOM      7  C   UNL     1      34.042 -16.091 -24.066  0.00  0.00    +0.024 C 
ATOM      8  C   UNL     1      33.505 -14.903 -24.550  0.00  0.00    +0.074 C 
ATOM      9  C   UNL     1      33.292 -13.852 -23.668  0.00  0.00    +0.103 C 
ENDROOT
BRANCH   8  12
ATOM     10  O   UNL     1      32.854 -15.752 -26.648  0.00  0.00    -0.270 OA
ATOM     11  N   UNL     1      33.199 -13.489 -26.510  0.00  0.00    -0.325 N 
ATOM     12  C   UNL     1      33.171 -14.766 -25.957  0.00  0.00    +0.244 C 
ATOM     13  H   UNL     1      32.978 -13.358 -27.460  0.00  0.00    +0.145 HD
ATOM     14  H   UNL     1      33.439 -12.715 -25.949  0.00  0.00    +0.145 HD
ENDBRANCH   8  12
BRANCH   1  15
ATOM     15  S   UNL     1      35.317 -18.634 -22.410  0.00  0.00    +0.082 S 
ATOM     16  O   UNL     1      36.724 -18.659 -22.887  0.00  0.00    -0.149 OA
ATOM     17  O   UNL     1      34.299 -19.172 -23.340  0.00  0.00    -0.149 OA
BRANCH  15  18
ATOM     18  C   UNL     1      35.354 -19.787 -21.028  0.00  0.00    +0.148 C 
ATOM     19  C   UNL     1      34.183 -20.234 -20.417  0.00  0.00    +0.162 C 
ATOM     20  C   UNL     1      36.593 -20.233 -20.571  0.00  0.00    +0.022 C 
ATOM     21  C   UNL     1      34.251 -21.128 -19.349  0.00  0.00    +0.025 C 
ATOM     22  C   UNL     1      36.663 -21.128 -19.503  0.00  0.00    +0.001 C 
ATOM     23  C   UNL     1      35.492 -21.575 -18.892  0.00  0.00    +0.002 C 
BRANCH  19  26
ATOM     24  O   UNL     1      32.190 -20.589 -21.522  0.00  0.00    -0.126 OA
ATOM     25  O   UNL     1      32.528 -18.637 -20.576  0.00  0.00    -0.126 OA
ATOM     26  N   UNL     1      32.904 -19.798 -20.861  0.00  0.00    +0.059 N 
ENDBRANCH  19  26
ENDBRANCH  15  18
ENDBRANCH   1  15
TORSDOF 4
ENDMDL
MODEL 4
REMARK VINA RESULT:      -9.8      7.075     11.358
REMARK  Name = 25229537
REMARK  4 active torsions:
REMARK  status: ('A' for Active; 'I' for Inactive)
REMARK    1  A    between atoms: N_1  and  S_15
REMARK    2  A    between atoms: C_8  and  C_12
REMARK    3  A    between atoms: S_15  and  C_18
REMARK    4  A    between atoms: C_19  and  N_26
REMARK                            x       y       z     vdW  Elec       q    Type
REMARK                         _______ _______ _______ _____ _____    ______ ____
ROOT
ATOM      1  N   UNL     1      35.240 -24.105 -13.942  0.00  0.00    -0.166 N 
ATOM      2  N   UNL     1      37.809 -24.563 -11.569  0.00  0.00    -0.242 NA
ATOM      3  C   UNL     1      36.523 -24.470 -13.615  0.00  0.00    +0.091 C 
ATOM      4  C   UNL     1      36.659 -24.295 -12.238  0.00  0.00    +0.098 C 
ATOM      5  C   UNL     1      34.566 -23.706 -12.816  0.00  0.00    +0.090 C 
ATOM      6  C   UNL     1      35.423 -23.815 -11.743  0.00  0.00    +0.038 C 
ATOM      7  C   UNL     1      37.582 -24.938 -14.392  0.00  0.00    +0.024 C 
ATOM      8  C   UNL     1      38.766 -25.215 -13.717  0.00  0.00    +0.074 C 
ATOM      9  C   UNL     1      38.821 -25.015 -12.344  0.00  0.00    +0.103 C 
ENDROOT
BRANCH   8  12
ATOM     10  O   UNL     1      40.778 -26.427 -13.886  0.00  0.00    -0.270 OA
ATOM     11  N   UNL     1      40.048 -25.365 -15.783  0.00  0.00    -0.325 N 
ATOM     12  C   UNL     1      39.926 -25.708 -14.439  0.00  0.00    +0.244 C 
ATOM     13  H   UNL     1      40.821 -25.682 -16.303  0.00  0.00    +0.145 HD
ATOM     14  H   UNL     1      39.361 -24.806 -16.213  0.00  0.00    +0.145 HD
ENDBRANCH   8  12
BRANCH   1  15
ATOM     15  S   UNL     1      34.579 -24.132 -15.470  0.00  0.00    +0.082 S 
ATOM     16  O   UNL     1      33.177 -23.640 -15.479  0.00  0.00    -0.149 OA
ATOM     17  O   UNL     1      34.813 -25.459 -16.083  0.00  0.00    -0.149 OA
BRANCH  15  18
ATOM     18  C   UNL     1      35.410 -22.957 -16.551  0.00  0.00    +0.148 C 
ATOM     19  C   UNL     1      34.887 -22.612 -17.797  0.00  0.00    +0.162 C 
ATOM     20  C   UNL     1      36.606 -22.387 -16.116  0.00  0.00    +0.022 C 
ATOM     21  C   UNL     1      35.558 -21.697 -18.608  0.00  0.00    +0.025 C 
ATOM     22  C   UNL     1      37.278 -21.471 -16.925  0.00  0.00    +0.001 C 
ATOM     23  C   UNL     1      36.755 -21.127 -18.171  0.00  0.00    +0.002 C 
BRANCH  19  26
ATOM     24  O   UNL     1      32.604 -22.532 -18.115  0.00  0.00    -0.126 OA
ATOM     25  O   UNL     1      33.697 -24.298 -18.827  0.00  0.00    -0.126 OA
ATOM     26  N   UNL     1      33.669 -23.176 -18.270  0.00  0.00    +0.059 N 
ENDBRANCH  19  26
ENDBRANCH  15  18
ENDBRANCH   1  15
TORSDOF 4
ENDMDL
MODEL 5
REMARK VINA RESULT:      -9.7      6.609      9.661
REMARK  Name = 25229537
REMARK  4 active torsions:
REMARK  status: ('A' for Active; 'I' for Inactive)
REMARK    1  A    between atoms: N_1  and  S_15
REMARK    2  A    between atoms: C_8  and  C_12
REMARK    3  A    between atoms: S_15  and  C_18
REMARK    4  A    between atoms: C_19  and  N_26
REMARK                            x       y       z     vdW  Elec       q    Type
REMARK                         _______ _______ _______ _____ _____    ______ ____
ROOT
ATOM      1  N   UNL     1      33.785 -23.739 -14.588  0.00  0.00    -0.166 N 
ATOM      2  N   UNL     1      32.391 -22.972 -17.736  0.00  0.00    -0.242 NA
ATOM      3  C   UNL     1      33.903 -23.263 -15.871  0.00  0.00    +0.091 C 
ATOM      4  C   UNL     1      32.642 -23.358 -16.460  0.00  0.00    +0.098 C 
ATOM      5  C   UNL     1      32.492 -24.130 -14.352  0.00  0.00    +0.090 C 
ATOM      6  C   UNL     1      31.760 -23.904 -15.496  0.00  0.00    +0.038 C 
ATOM      7  C   UNL     1      34.994 -22.757 -16.577  0.00  0.00    +0.024 C 
ATOM      8  C   UNL     1      34.749 -22.359 -17.887  0.00  0.00    +0.074 C 
ATOM      9  C   UNL     1      33.465 -22.486 -18.400  0.00  0.00    +0.103 C 
ENDROOT
BRANCH   8  12
ATOM     10  O   UNL     1      35.790 -21.890 -19.946  0.00  0.00    -0.270 OA
ATOM     11  N   UNL     1      36.884 -21.197 -18.054  0.00  0.00    -0.325 N 
ATOM     12  C   UNL     1      35.821 -21.819 -18.704  0.00  0.00    +0.244 C 
ATOM     13  H   UNL     1      37.627 -20.819 -18.575  0.00  0.00    +0.145 HD
ATOM     14  H   UNL     1      36.891 -21.136 -17.070  0.00  0.00    +0.145 HD
ENDBRANCH   8  12
BRANCH   1  15
ATOM     15  S   UNL     1      35.014 -23.838 -13.468  0.00  0.00    +0.082 S 
ATOM     16  O   UNL     1      34.540 -24.375 -12.167  0.00  0.00    -0.149 OA
ATOM     17  O   UNL     1      35.740 -22.548 -13.420  0.00  0.00    -0.149 OA
BRANCH  15  18
ATOM     18  C   UNL     1      36.242 -25.055 -13.968  0.00  0.00    +0.148 C 
ATOM     19  C   UNL     1      37.465 -25.174 -13.307  0.00  0.00    +0.162 C 
ATOM     20  C   UNL     1      35.947 -25.891 -15.045  0.00  0.00    +0.022 C 
ATOM     21  C   UNL     1      38.392 -26.130 -13.722  0.00  0.00    +0.025 C 
ATOM     22  C   UNL     1      36.874 -26.848 -15.460  0.00  0.00    +0.001 C 
ATOM     23  C   UNL     1      38.096 -26.966 -14.800  0.00  0.00    +0.002 C 
BRANCH  19  26
ATOM     24  O   UNL     1      38.473 -23.303 -12.412  0.00  0.00    -0.126 OA
ATOM     25  O   UNL     1      37.398 -24.658 -11.061  0.00  0.00    -0.126 OA
ATOM     26  N   UNL     1      37.795 -24.337 -12.206  0.00  0.00    +0.059 N 
ENDBRANCH  19  26
ENDBRANCH  15  18
ENDBRANCH   1  15
TORSDOF 4
ENDMDL
MODEL 6
REMARK VINA RESULT:      -9.5      0.934      1.203
REMARK  Name = 25229537
REMARK  4 active torsions:
REMARK  status: ('A' for Active; 'I' for Inactive)
REMARK    1  A    between atoms: N_1  and  S_15
REMARK    2  A    between atoms: C_8  and  C_12
REMARK    3  A    between atoms: S_15  and  C_18
REMARK    4  A    between atoms: C_19  and  N_26
REMARK                            x       y       z     vdW  Elec       q    Type
REMARK                         _______ _______ _______ _____ _____    ______ ____
ROOT
ATOM      1  N   UNL     1      34.320 -17.653 -22.840  0.00  0.00    -0.166 N 
ATOM      2  N   UNL     1      34.138 -16.028 -25.965  0.00  0.00    -0.242 NA
ATOM      3  C   UNL     1      34.127 -16.524 -23.598  0.00  0.00    +0.091 C 
ATOM      4  C   UNL     1      34.267 -16.900 -24.934  0.00  0.00    +0.098 C 
ATOM      5  C   UNL     1      34.577 -18.725 -23.655  0.00  0.00    +0.090 C 
ATOM      6  C   UNL     1      34.550 -18.288 -24.960  0.00  0.00    +0.038 C 
ATOM      7  C   UNL     1      33.842 -15.206 -23.245  0.00  0.00    +0.024 C 
ATOM      8  C   UNL     1      33.709 -14.302 -24.294  0.00  0.00    +0.074 C 
ATOM      9  C   UNL     1      33.863 -14.756 -25.597  0.00  0.00    +0.103 C 
ENDROOT
BRANCH   8  12
ATOM     10  O   UNL     1      32.535 -12.572 -23.211  0.00  0.00    -0.270 OA
ATOM     11  N   UNL     1      34.156 -11.943 -24.705  0.00  0.00    -0.325 N 
ATOM     12  C   UNL     1      33.412 -12.905 -24.028  0.00  0.00    +0.244 C 
ATOM     13  H   UNL     1      33.983 -10.987 -24.549  0.00  0.00    +0.145 HD
ATOM     14  H   UNL     1      34.857 -12.220 -25.340  0.00  0.00    +0.145 HD
ENDBRANCH   8  12
BRANCH   1  15
ATOM     15  S   UNL     1      34.258 -17.732 -21.177  0.00  0.00    +0.082 S 
ATOM     16  O   UNL     1      32.970 -17.220 -20.643  0.00  0.00    -0.149 OA
ATOM     17  O   UNL     1      35.488 -17.134 -20.611  0.00  0.00    -0.149 OA
BRANCH  15  18
ATOM     18  C   UNL     1      34.261 -19.442 -20.615  0.00  0.00    +0.148 C 
ATOM     19  C   UNL     1      35.449 -20.126 -20.359  0.00  0.00    +0.162 C 
ATOM     20  C   UNL     1      33.035 -20.083 -20.437  0.00  0.00    +0.022 C 
ATOM     21  C   UNL     1      35.412 -21.451 -19.924  0.00  0.00    +0.025 C 
ATOM     22  C   UNL     1      32.997 -21.407 -20.001  0.00  0.00    +0.001 C 
ATOM     23  C   UNL     1      34.184 -22.091 -19.745  0.00  0.00    +0.002 C 
BRANCH  19  26
ATOM     24  O   UNL     1      37.405 -19.242 -19.516  0.00  0.00    -0.126 OA
ATOM     25  O   UNL     1      37.103 -19.227 -21.690  0.00  0.00    -0.126 OA
ATOM     26  N   UNL     1      36.715 -19.500 -20.530  0.00  0.00    +0.059 N 
ENDBRANCH  19  26
ENDBRANCH  15  18
ENDBRANCH   1  15
TORSDOF 4
ENDMDL
MODEL 7
REMARK VINA RESULT:      -9.5      8.169     11.570
REMARK  Name = 25229537
REMARK  4 active torsions:
REMARK  status: ('A' for Active; 'I' for Inactive)
REMARK    1  A    between atoms: N_1  and  S_15
REMARK    2  A    between atoms: C_8  and  C_12
REMARK    3  A    between atoms: S_15  and  C_18
REMARK    4  A    between atoms: C_19  and  N_26
REMARK                            x       y       z     vdW  Elec       q    Type
REMARK                         _______ _______ _______ _____ _____    ______ ____
ROOT
ATOM      1  N   UNL     1      35.433 -24.000 -13.908  0.00  0.00    -0.166 N 
ATOM      2  N   UNL     1      37.814 -24.880 -11.458  0.00  0.00    -0.242 NA
ATOM      3  C   UNL     1      36.676 -24.465 -13.551  0.00  0.00    +0.091 C 
ATOM      4  C   UNL     1      36.724 -24.475 -12.158  0.00  0.00    +0.098 C 
ATOM      5  C   UNL     1      34.700 -23.718 -12.784  0.00  0.00    +0.090 C 
ATOM      6  C   UNL     1      35.476 -24.004 -11.683  0.00  0.00    +0.038 C 
ATOM      7  C   UNL     1      37.767 -24.878 -14.315  0.00  0.00    +0.024 C 
ATOM      8  C   UNL     1      38.890 -25.295 -13.609  0.00  0.00    +0.074 C 
ATOM      9  C   UNL     1      38.859 -25.275 -12.221  0.00  0.00    +0.103 C 
ENDROOT
BRANCH   8  12
ATOM     10  O   UNL     1      40.929 -26.462 -13.760  0.00  0.00    -0.270 OA
ATOM     11  N   UNL     1      40.226 -25.362 -15.645  0.00  0.00    -0.325 N 
ATOM     12  C   UNL     1      40.078 -25.744 -14.315  0.00  0.00    +0.244 C 
ATOM     13  H   UNL     1      41.018 -25.648 -16.154  0.00  0.00    +0.145 HD
ATOM     14  H   UNL     1      39.539 -24.804 -16.076  0.00  0.00    +0.145 HD
ENDBRANCH   8  12
BRANCH   1  15
ATOM     15  S   UNL     1      34.878 -23.800 -15.465  0.00  0.00    +0.082 S 
ATOM     16  O   UNL     1      34.974 -25.054 -16.256  0.00  0.00    -0.149 OA
ATOM     17  O   UNL     1      35.506 -22.599 -16.060  0.00  0.00    -0.149 OA
BRANCH  15  18
ATOM     18  C   UNL     1      33.109 -23.466 -15.478  0.00  0.00    +0.148 C 
ATOM     19  C   UNL     1      32.435 -23.139 -16.655  0.00  0.00    +0.162 C 
ATOM     20  C   UNL     1      32.411 -23.542 -14.273  0.00  0.00    +0.022 C 
ATOM     21  C   UNL     1      31.064 -22.888 -16.627  0.00  0.00    +0.025 C 
ATOM     22  C   UNL     1      31.039 -23.292 -14.244  0.00  0.00    +0.001 C 
ATOM     23  C   UNL     1      30.366 -22.964 -15.420  0.00  0.00    +0.002 C 
BRANCH  19  26
ATOM     24  O   UNL     1      33.525 -24.110 -18.440  0.00  0.00    -0.126 OA
ATOM     25  O   UNL     1      33.292 -21.928 -18.420  0.00  0.00    -0.126 OA
ATOM     26  N   UNL     1      33.118 -23.055 -17.900  0.00  0.00    +0.059 N 
ENDBRANCH  19  26
ENDBRANCH  15  18
ENDBRANCH   1  15
TORSDOF 4
ENDMDL
MODEL 8
REMARK VINA RESULT:      -9.4      3.015      8.128
REMARK  Name = 25229537
REMARK  4 active torsions:
REMARK  status: ('A' for Active; 'I' for Inactive)
REMARK    1  A    between atoms: N_1  and  S_15
REMARK    2  A    between atoms: C_8  and  C_12
REMARK    3  A    between atoms: S_15  and  C_18
REMARK    4  A    between atoms: C_19  and  N_26
REMARK                            x       y       z     vdW  Elec       q    Type
REMARK                         _______ _______ _______ _____ _____    ______ ____
ROOT
ATOM      1  N   UNL     1      33.132 -14.086 -24.383  0.00  0.00    -0.166 N 
ATOM      2  N   UNL     1      34.404 -17.152 -25.579  0.00  0.00    -0.242 NA
ATOM      3  C   UNL     1      33.805 -15.267 -24.186  0.00  0.00    +0.091 C 
ATOM      4  C   UNL     1      33.817 -15.940 -25.408  0.00  0.00    +0.098 C 
ATOM      5  C   UNL     1      32.721 -13.995 -25.689  0.00  0.00    +0.090 C 
ATOM      6  C   UNL     1      33.133 -15.132 -26.348  0.00  0.00    +0.038 C 
ATOM      7  C   UNL     1      34.406 -15.814 -23.053  0.00  0.00    +0.024 C 
ATOM      8  C   UNL     1      35.011 -17.057 -23.217  0.00  0.00    +0.074 C 
ATOM      9  C   UNL     1      34.980 -17.662 -24.467  0.00  0.00    +0.103 C 
ENDROOT
BRANCH   8  12
ATOM     10  O   UNL     1      36.625 -18.482 -22.265  0.00  0.00    -0.270 OA
ATOM     11  N   UNL     1      35.193 -17.430 -20.816  0.00  0.00    -0.325 N 
ATOM     12  C   UNL     1      35.664 -17.710 -22.096  0.00  0.00    +0.244 C 
ATOM     13  H   UNL     1      35.612 -17.854 -20.033  0.00  0.00    +0.145 HD
ATOM     14  H   UNL     1      34.439 -16.807 -20.695  0.00  0.00    +0.145 HD
ENDBRANCH   8  12
BRANCH   1  15
ATOM     15  S   UNL     1      32.844 -12.923 -23.227  0.00  0.00    +0.082 S 
ATOM     16  O   UNL     1      33.568 -13.206 -21.960  0.00  0.00    -0.149 OA
ATOM     17  O   UNL     1      31.386 -12.694 -23.113  0.00  0.00    -0.149 OA
BRANCH  15  18
ATOM     18  C   UNL     1      33.536 -11.338 -23.724  0.00  0.00    +0.148 C 
ATOM     19  C   UNL     1      33.060 -10.135 -23.200  0.00  0.00    +0.162 C 
ATOM     20  C   UNL     1      34.573 -11.330 -24.656  0.00  0.00    +0.022 C 
ATOM     21  C   UNL     1      33.622  -8.926 -23.608  0.00  0.00    +0.025 C 
ATOM     22  C   UNL     1      35.136 -10.120 -25.065  0.00  0.00    +0.001 C 
ATOM     23  C   UNL     1      34.660  -8.919 -24.542  0.00  0.00    +0.002 C 
BRANCH  19  26
ATOM     24  O   UNL     1      32.276 -10.302 -21.038  0.00  0.00    -0.126 OA
ATOM     25  O   UNL     1      30.836  -9.895 -22.644  0.00  0.00    -0.126 OA
ATOM     26  N   UNL     1      32.005 -10.110 -22.247  0.00  0.00    +0.059 N 
ENDBRANCH  19  26
ENDBRANCH  15  18
ENDBRANCH   1  15
TORSDOF 4
ENDMDL
MODEL 9
REMARK VINA RESULT:      -9.3      5.389      8.418
REMARK  Name = 25229537
REMARK  4 active torsions:
REMARK  status: ('A' for Active; 'I' for Inactive)
REMARK    1  A    between atoms: N_1  and  S_15
REMARK    2  A    between atoms: C_8  and  C_12
REMARK    3  A    between atoms: S_15  and  C_18
REMARK    4  A    between atoms: C_19  and  N_26
REMARK                            x       y       z     vdW  Elec       q    Type
REMARK                         _______ _______ _______ _____ _____    ______ ____
ROOT
ATOM      1  N   UNL     1      35.350 -23.130 -16.239  0.00  0.00    -0.166 N 
ATOM      2  N   UNL     1      32.964 -22.376 -18.725  0.00  0.00    -0.242 NA
ATOM      3  C   UNL     1      34.994 -22.522 -17.418  0.00  0.00    +0.091 C 
ATOM      4  C   UNL     1      33.649 -22.819 -17.641  0.00  0.00    +0.098 C 
ATOM      5  C   UNL     1      34.274 -23.799 -15.714  0.00  0.00    +0.090 C 
ATOM      6  C   UNL     1      33.204 -23.623 -16.563  0.00  0.00    +0.038 C 
ATOM      7  C   UNL     1      35.719 -21.739 -18.314  0.00  0.00    +0.024 C 
ATOM      8  C   UNL     1      35.027 -21.279 -19.430  0.00  0.00    +0.074 C 
ATOM      9  C   UNL     1      33.689 -21.619 -19.579  0.00  0.00    +0.103 C 
ENDROOT
BRANCH   8  12
ATOM     10  O   UNL     1      35.172 -20.214 -21.525  0.00  0.00    -0.270 OA
ATOM     11  N   UNL     1      36.939 -19.923 -20.093  0.00  0.00    -0.325 N 
ATOM     12  C   UNL     1      35.695 -20.455 -20.422  0.00  0.00    +0.244 C 
ATOM     13  H   UNL     1      37.420 -19.360 -20.741  0.00  0.00    +0.145 HD
ATOM     14  H   UNL     1      37.337 -20.110 -19.212  0.00  0.00    +0.145 HD
ENDBRANCH   8  12
BRANCH   1  15
ATOM     15  S   UNL     1      36.857 -23.077 -15.532  0.00  0.00    +0.082 S 
ATOM     16  O   UNL     1      37.263 -21.690 -15.187  0.00  0.00    -0.149 OA
ATOM     17  O   UNL     1      37.812 -23.856 -16.353  0.00  0.00    -0.149 OA
BRANCH  15  18
ATOM     18  C   UNL     1      36.842 -23.889 -13.925  0.00  0.00    +0.148 C 
ATOM     19  C   UNL     1      36.981 -25.271 -13.802  0.00  0.00    +0.162 C 
ATOM     20  C   UNL     1      36.686 -23.100 -12.786  0.00  0.00    +0.022 C 
ATOM     21  C   UNL     1      36.965 -25.865 -12.540  0.00  0.00    +0.025 C 
ATOM     22  C   UNL     1      36.671 -23.692 -11.523  0.00  0.00    +0.001 C 
ATOM     23  C   UNL     1      36.809 -25.074 -11.401  0.00  0.00    +0.002 C 
BRANCH  19  26
ATOM     24  O   UNL     1      38.296 -26.469 -15.270  0.00  0.00    -0.126 OA
ATOM     25  O   UNL     1      36.124 -26.446 -15.592  0.00  0.00    -0.126 OA
ATOM     26  N   UNL     1      37.142 -26.103 -14.945  0.00  0.00    +0.059 N 
ENDBRANCH  19  26
ENDBRANCH  15  18
ENDBRANCH   1  15
TORSDOF 4
ENDMDL
