MODEL 1
REMARK VINA RESULT:      -9.0      0.000      0.000
REMARK  Name = 7023019
REMARK  2 active torsions:
REMARK  status: ('A' for Active; 'I' for Inactive)
REMARK    1  A    between atoms: C_2  and  C_4
REMARK    2  A    between atoms: C_2  and  C_11
REMARK                            x       y       z     vdW  Elec       q    Type
REMARK                         _______ _______ _______ _____ _____    ______ ____
ROOT
ATOM      1  O   UNL     1      35.365 -17.292 -20.661  0.00  0.00    -0.287 OA
ATOM      2  C   UNL     1      34.974 -18.250 -21.346  0.00  0.00    +0.196 C 
ENDROOT
BRANCH   2   4
ATOM      3  F   UNL     1      33.944 -23.183 -18.942  0.00  0.00    -0.204 F 
ATOM      4  C   UNL     1      34.706 -19.535 -20.721  0.00  0.00    +0.039 C 
ATOM      5  C   UNL     1      35.764 -20.368 -20.357  0.00  0.00    +0.005 C 
ATOM      6  C   UNL     1      33.390 -19.935 -20.484  0.00  0.00    +0.005 C 
ATOM      7  C   UNL     1      35.507 -21.600 -19.756  0.00  0.00    +0.030 C 
ATOM      8  C   UNL     1      33.134 -21.167 -19.883  0.00  0.00    +0.030 C 
ATOM      9  C   UNL     1      34.192 -21.999 -19.519  0.00  0.00    +0.140 C 
ENDBRANCH   2   4
BRANCH   2  11
ATOM     10  N   UNL     1      34.468 -17.591 -25.513  0.00  0.00    -0.242 NA
ATOM     11  C   UNL     1      34.798 -18.019 -22.811  0.00  0.00    +0.042 C 
ATOM     12  C   UNL     1      34.689 -19.104 -23.640  0.00  0.00    +0.024 C 
ATOM     13  C   UNL     1      34.748 -16.728 -23.272  0.00  0.00    +0.024 C 
ATOM     14  C   UNL     1      34.525 -18.837 -24.990  0.00  0.00    +0.099 C 
ATOM     15  C   UNL     1      34.582 -16.567 -24.638  0.00  0.00    +0.099 C 
ENDBRANCH   2  11
TORSDOF 2
ENDMDL
MODEL 2
REMARK VINA RESULT:      -9.0      0.054      1.215
REMARK  Name = 7023019
REMARK  2 active torsions:
REMARK  status: ('A' for Active; 'I' for Inactive)
REMARK    1  A    between atoms: C_2  and  C_4
REMARK    2  A    between atoms: C_2  and  C_11
REMARK                            x       y       z     vdW  Elec       q    Type
REMARK                         _______ _______ _______ _____ _____    ______ ____
ROOT
ATOM      1  O   UNL     1      35.366 -17.296 -20.675  0.00  0.00    -0.287 OA
ATOM      2  C   UNL     1      34.979 -18.258 -21.357  0.00  0.00    +0.196 C 
ENDROOT
BRANCH   2   4
ATOM      3  F   UNL     1      33.897 -23.168 -18.928  0.00  0.00    -0.204 F 
ATOM      4  C   UNL     1      34.697 -19.537 -20.725  0.00  0.00    +0.039 C 
ATOM      5  C   UNL     1      35.747 -20.377 -20.354  0.00  0.00    +0.005 C 
ATOM      6  C   UNL     1      33.377 -19.923 -20.490  0.00  0.00    +0.005 C 
ATOM      7  C   UNL     1      35.477 -21.604 -19.747  0.00  0.00    +0.030 C 
ATOM      8  C   UNL     1      33.108 -21.150 -19.882  0.00  0.00    +0.030 C 
ATOM      9  C   UNL     1      34.157 -21.989 -19.511  0.00  0.00    +0.140 C 
ENDBRANCH   2   4
BRANCH   2  11
ATOM     10  N   UNL     1      34.536 -17.632 -25.536  0.00  0.00    -0.242 NA
ATOM     11  C   UNL     1      34.822 -18.037 -22.826  0.00  0.00    +0.042 C 
ATOM     12  C   UNL     1      34.842 -16.753 -23.304  0.00  0.00    +0.024 C 
ATOM     13  C   UNL     1      34.666 -19.128 -23.642  0.00  0.00    +0.024 C 
ATOM     14  C   UNL     1      34.694 -16.602 -24.674  0.00  0.00    +0.099 C 
ATOM     15  C   UNL     1      34.525 -18.870 -24.996  0.00  0.00    +0.099 C 
ENDBRANCH   2  11
TORSDOF 2
ENDMDL
MODEL 3
REMARK VINA RESULT:      -9.0      0.058      1.742
REMARK  Name = 7023019
REMARK  2 active torsions:
REMARK  status: ('A' for Active; 'I' for Inactive)
REMARK    1  A    between atoms: C_2  and  C_4
REMARK    2  A    between atoms: C_2  and  C_11
REMARK                            x       y       z     vdW  Elec       q    Type
REMARK                         _______ _______ _______ _____ _____    ______ ____
ROOT
ATOM      1  O   UNL     1      35.394 -17.321 -20.676  0.00  0.00    -0.287 OA
ATOM      2  C   UNL     1      34.995 -18.280 -21.356  0.00  0.00    +0.196 C 
ENDROOT
BRANCH   2   4
ATOM      3  F   UNL     1      33.884 -23.184 -18.930  0.00  0.00    -0.204 F 
ATOM      4  C   UNL     1      34.706 -19.556 -20.723  0.00  0.00    +0.039 C 
ATOM      5  C   UNL     1      33.384 -19.934 -20.488  0.00  0.00    +0.005 C 
ATOM      6  C   UNL     1      35.751 -20.404 -20.353  0.00  0.00    +0.005 C 
ATOM      7  C   UNL     1      33.106 -21.159 -19.882  0.00  0.00    +0.030 C 
ATOM      8  C   UNL     1      35.472 -21.630 -19.748  0.00  0.00    +0.030 C 
ATOM      9  C   UNL     1      34.151 -22.007 -19.513  0.00  0.00    +0.140 C 
ENDBRANCH   2   4
BRANCH   2  11
ATOM     10  N   UNL     1      34.530 -17.648 -25.532  0.00  0.00    -0.242 NA
ATOM     11  C   UNL     1      34.830 -18.057 -22.824  0.00  0.00    +0.042 C 
ATOM     12  C   UNL     1      34.830 -16.772 -23.299  0.00  0.00    +0.024 C 
ATOM     13  C   UNL     1      34.688 -19.148 -23.643  0.00  0.00    +0.024 C 
ATOM     14  C   UNL     1      34.675 -16.619 -24.667  0.00  0.00    +0.099 C 
ATOM     15  C   UNL     1      34.540 -18.888 -24.995  0.00  0.00    +0.099 C 
ENDBRANCH   2  11
TORSDOF 2
ENDMDL
MODEL 4
REMARK VINA RESULT:      -8.8      3.312      5.520
REMARK  Name = 7023019
REMARK  2 active torsions:
REMARK  status: ('A' for Active; 'I' for Inactive)
REMARK    1  A    between atoms: C_2  and  C_4
REMARK    2  A    between atoms: C_2  and  C_11
REMARK                            x       y       z     vdW  Elec       q    Type
REMARK                         _______ _______ _______ _____ _____    ______ ____
ROOT
ATOM      1  O   UNL     1      36.918 -19.028 -20.940  0.00  0.00    -0.287 OA
ATOM      2  C   UNL     1      35.760 -19.136 -21.373  0.00  0.00    +0.196 C 
ENDROOT
BRANCH   2   4
ATOM      3  F   UNL     1      34.132 -16.171 -25.815  0.00  0.00    -0.204 F 
ATOM      4  C   UNL     1      35.335 -18.364 -22.529  0.00  0.00    +0.039 C 
ATOM      5  C   UNL     1      35.270 -16.973 -22.453  0.00  0.00    +0.005 C 
ATOM      6  C   UNL     1      34.993 -19.015 -23.716  0.00  0.00    +0.005 C 
ATOM      7  C   UNL     1      34.864 -16.232 -23.562  0.00  0.00    +0.030 C 
ATOM      8  C   UNL     1      34.587 -18.273 -24.825  0.00  0.00    +0.030 C 
ATOM      9  C   UNL     1      34.523 -16.882 -24.749  0.00  0.00    +0.140 C 
ENDBRANCH   2   4
BRANCH   2  11
ATOM     10  N   UNL     1      33.164 -21.817 -19.341  0.00  0.00    -0.242 NA
ATOM     11  C   UNL     1      34.847 -20.080 -20.659  0.00  0.00    +0.042 C 
ATOM     12  C   UNL     1      35.392 -21.153 -20.005  0.00  0.00    +0.024 C 
ATOM     13  C   UNL     1      33.498 -19.835 -20.684  0.00  0.00    +0.024 C 
ATOM     14  C   UNL     1      34.504 -21.997 -19.358  0.00  0.00    +0.099 C 
ATOM     15  C   UNL     1      32.696 -20.738 -20.007  0.00  0.00    +0.099 C 
ENDBRANCH   2  11
TORSDOF 2
ENDMDL
MODEL 5
REMARK VINA RESULT:      -8.5      1.958      2.500
REMARK  Name = 7023019
REMARK  2 active torsions:
REMARK  status: ('A' for Active; 'I' for Inactive)
REMARK    1  A    between atoms: C_2  and  C_4
REMARK    2  A    between atoms: C_2  and  C_11
REMARK                            x       y       z     vdW  Elec       q    Type
REMARK                         _______ _______ _______ _____ _____    ______ ____
ROOT
ATOM      1  O   UNL     1      35.694 -18.680 -23.451  0.00  0.00    -0.287 OA
ATOM      2  C   UNL     1      35.101 -18.342 -22.415  0.00  0.00    +0.196 C 
ENDROOT
BRANCH   2   4
ATOM      3  F   UNL     1      33.530 -22.187 -18.685  0.00  0.00    -0.204 F 
ATOM      4  C   UNL     1      34.691 -19.344 -21.445  0.00  0.00    +0.039 C 
ATOM      5  C   UNL     1      35.655 -20.079 -20.754  0.00  0.00    +0.005 C 
ATOM      6  C   UNL     1      33.336 -19.569 -21.204  0.00  0.00    +0.005 C 
ATOM      7  C   UNL     1      35.263 -21.040 -19.822  0.00  0.00    +0.030 C 
ATOM      8  C   UNL     1      32.944 -20.530 -20.271  0.00  0.00    +0.030 C 
ATOM      9  C   UNL     1      33.907 -21.264 -19.580  0.00  0.00    +0.140 C 
ENDBRANCH   2   4
BRANCH   2  11
ATOM     10  N   UNL     1      34.347 -14.197 -21.864  0.00  0.00    -0.242 NA
ATOM     11  C   UNL     1      34.837 -16.884 -22.222  0.00  0.00    +0.042 C 
ATOM     12  C   UNL     1      34.676 -16.092 -23.329  0.00  0.00    +0.024 C 
ATOM     13  C   UNL     1      34.764 -16.392 -20.944  0.00  0.00    +0.024 C 
ATOM     14  C   UNL     1      34.432 -14.748 -23.096  0.00  0.00    +0.099 C 
ATOM     15  C   UNL     1      34.516 -15.036 -20.818  0.00  0.00    +0.099 C 
ENDBRANCH   2  11
TORSDOF 2
ENDMDL
MODEL 6
REMARK VINA RESULT:      -8.5      1.920      2.761
REMARK  Name = 7023019
REMARK  2 active torsions:
REMARK  status: ('A' for Active; 'I' for Inactive)
REMARK    1  A    between atoms: C_2  and  C_4
REMARK    2  A    between atoms: C_2  and  C_11
REMARK                            x       y       z     vdW  Elec       q    Type
REMARK                         _______ _______ _______ _____ _____    ______ ____
ROOT
ATOM      1  O   UNL     1      35.368 -18.879 -23.515  0.00  0.00    -0.287 OA
ATOM      2  C   UNL     1      34.920 -18.508 -22.419  0.00  0.00    +0.196 C 
ENDROOT
BRANCH   2   4
ATOM      3  F   UNL     1      33.650 -22.261 -18.485  0.00  0.00    -0.204 F 
ATOM      4  C   UNL     1      34.590 -19.484 -21.393  0.00  0.00    +0.039 C 
ATOM      5  C   UNL     1      33.255 -19.738 -21.077  0.00  0.00    +0.005 C 
ATOM      6  C   UNL     1      35.607 -20.169 -20.728  0.00  0.00    +0.005 C 
ATOM      7  C   UNL     1      32.938 -20.675 -20.094  0.00  0.00    +0.030 C 
ATOM      8  C   UNL     1      35.289 -21.107 -19.746  0.00  0.00    +0.030 C 
ATOM      9  C   UNL     1      33.955 -21.360 -19.429  0.00  0.00    +0.140 C 
ENDBRANCH   2   4
BRANCH   2  11
ATOM     10  N   UNL     1      34.421 -14.329 -21.834  0.00  0.00    -0.242 NA
ATOM     11  C   UNL     1      34.744 -17.038 -22.213  0.00  0.00    +0.042 C 
ATOM     12  C   UNL     1      34.699 -16.554 -20.932  0.00  0.00    +0.024 C 
ATOM     13  C   UNL     1      34.634 -16.228 -23.313  0.00  0.00    +0.024 C 
ATOM     14  C   UNL     1      34.535 -15.185 -20.794  0.00  0.00    +0.099 C 
ATOM     15  C   UNL     1      34.473 -14.875 -23.069  0.00  0.00    +0.099 C 
ENDBRANCH   2  11
TORSDOF 2
ENDMDL
MODEL 7
REMARK VINA RESULT:      -8.4      4.489      7.023
REMARK  Name = 7023019
REMARK  2 active torsions:
REMARK  status: ('A' for Active; 'I' for Inactive)
REMARK    1  A    between atoms: C_2  and  C_4
REMARK    2  A    between atoms: C_2  and  C_11
REMARK                            x       y       z     vdW  Elec       q    Type
REMARK                         _______ _______ _______ _____ _____    ______ ____
ROOT
ATOM      1  O   UNL     1      33.949 -24.089 -19.513  0.00  0.00    -0.287 OA
ATOM      2  C   UNL     1      33.875 -23.017 -18.892  0.00  0.00    +0.196 C 
ENDROOT
BRANCH   2   4
ATOM      3  F   UNL     1      34.776 -18.176 -21.523  0.00  0.00    -0.204 F 
ATOM      4  C   UNL     1      34.109 -21.756 -19.576  0.00  0.00    +0.039 C 
ATOM      5  C   UNL     1      35.414 -21.331 -19.826  0.00  0.00    +0.005 C 
ATOM      6  C   UNL     1      33.030 -20.972 -19.984  0.00  0.00    +0.005 C 
ATOM      7  C   UNL     1      35.639 -20.121 -20.483  0.00  0.00    +0.030 C 
ATOM      8  C   UNL     1      33.256 -19.763 -20.642  0.00  0.00    +0.030 C 
ATOM      9  C   UNL     1      34.560 -19.338 -20.892  0.00  0.00    +0.140 C 
ENDBRANCH   2   4
BRANCH   2  11
ATOM     10  N   UNL     1      32.920 -23.222 -14.757  0.00  0.00    -0.242 NA
ATOM     11  C   UNL     1      33.540 -23.090 -17.438  0.00  0.00    +0.042 C 
ATOM     12  C   UNL     1      34.563 -23.106 -16.526  0.00  0.00    +0.024 C 
ATOM     13  C   UNL     1      32.220 -23.136 -17.068  0.00  0.00    +0.024 C 
ATOM     14  C   UNL     1      34.200 -23.173 -15.191  0.00  0.00    +0.099 C 
ATOM     15  C   UNL     1      31.962 -23.202 -15.709  0.00  0.00    +0.099 C 
ENDBRANCH   2  11
TORSDOF 2
ENDMDL
MODEL 8
REMARK VINA RESULT:      -8.4      4.520      7.164
REMARK  Name = 7023019
REMARK  2 active torsions:
REMARK  status: ('A' for Active; 'I' for Inactive)
REMARK    1  A    between atoms: C_2  and  C_4
REMARK    2  A    between atoms: C_2  and  C_11
REMARK                            x       y       z     vdW  Elec       q    Type
REMARK                         _______ _______ _______ _____ _____    ______ ____
ROOT
ATOM      1  O   UNL     1      33.871 -24.169 -19.418  0.00  0.00    -0.287 OA
ATOM      2  C   UNL     1      33.861 -23.087 -18.810  0.00  0.00    +0.196 C 
ENDROOT
BRANCH   2   4
ATOM      3  F   UNL     1      35.192 -18.355 -21.459  0.00  0.00    -0.204 F 
ATOM      4  C   UNL     1      34.208 -21.855 -19.501  0.00  0.00    +0.039 C 
ATOM      5  C   UNL     1      33.201 -21.014 -19.974  0.00  0.00    +0.005 C 
ATOM      6  C   UNL     1      35.548 -21.514 -19.689  0.00  0.00    +0.005 C 
ATOM      7  C   UNL     1      33.533 -19.832 -20.636  0.00  0.00    +0.030 C 
ATOM      8  C   UNL     1      35.879 -20.331 -20.350  0.00  0.00    +0.030 C 
ATOM      9  C   UNL     1      34.873 -19.491 -20.823  0.00  0.00    +0.140 C 
ENDBRANCH   2   4
BRANCH   2  11
ATOM     10  N   UNL     1      32.781 -23.172 -14.702  0.00  0.00    -0.242 NA
ATOM     11  C   UNL     1      33.481 -23.116 -17.366  0.00  0.00    +0.042 C 
ATOM     12  C   UNL     1      32.151 -23.100 -17.035  0.00  0.00    +0.024 C 
ATOM     13  C   UNL     1      34.477 -23.159 -16.424  0.00  0.00    +0.024 C 
ATOM     14  C   UNL     1      31.851 -23.129 -15.682  0.00  0.00    +0.099 C 
ATOM     15  C   UNL     1      34.073 -23.186 -15.100  0.00  0.00    +0.099 C 
ENDBRANCH   2  11
TORSDOF 2
ENDMDL
MODEL 9
REMARK VINA RESULT:      -8.3      3.584      5.696
REMARK  Name = 7023019
REMARK  2 active torsions:
REMARK  status: ('A' for Active; 'I' for Inactive)
REMARK    1  A    between atoms: C_2  and  C_4
REMARK    2  A    between atoms: C_2  and  C_11
REMARK                            x       y       z     vdW  Elec       q    Type
REMARK                         _______ _______ _______ _____ _____    ______ ____
ROOT
ATOM      1  O   UNL     1      36.895 -18.624 -22.065  0.00  0.00    -0.287 OA
ATOM      2  C   UNL     1      35.749 -18.344 -21.681  0.00  0.00    +0.196 C 
ENDROOT
BRANCH   2   4
ATOM      3  F   UNL     1      33.626 -13.265 -22.612  0.00  0.00    -0.204 F 
ATOM      4  C   UNL     1      35.197 -17.021 -21.923  0.00  0.00    +0.039 C 
ATOM      5  C   UNL     1      35.052 -16.555 -23.230  0.00  0.00    +0.005 C 
ATOM      6  C   UNL     1      34.812 -16.218 -20.849  0.00  0.00    +0.005 C 
ATOM      7  C   UNL     1      34.522 -15.287 -23.462  0.00  0.00    +0.030 C 
ATOM      8  C   UNL     1      34.281 -14.950 -21.083  0.00  0.00    +0.030 C 
ATOM      9  C   UNL     1      34.136 -14.484 -22.389  0.00  0.00    +0.140 C 
ENDBRANCH   2   4
BRANCH   2  11
ATOM     10  N   UNL     1      33.572 -21.391 -19.673  0.00  0.00    -0.242 NA
ATOM     11  C   UNL     1      34.983 -19.415 -20.974  0.00  0.00    +0.042 C 
ATOM     12  C   UNL     1      33.615 -19.397 -21.038  0.00  0.00    +0.024 C 
ATOM     13  C   UNL     1      35.678 -20.378 -20.288  0.00  0.00    +0.024 C 
ATOM     14  C   UNL     1      32.951 -20.412 -20.367  0.00  0.00    +0.099 C 
ATOM     15  C   UNL     1      34.923 -21.348 -19.651  0.00  0.00    +0.099 C 
ENDBRANCH   2  11
TORSDOF 2
ENDMDL
