MODEL 1
REMARK VINA RESULT:      -6.6      0.000      0.000
REMARK  Name = 3699
REMARK  8 active torsions:
REMARK  status: ('A' for Active; 'I' for Inactive)
REMARK    1  A    between atoms: C_1  and  N_2
REMARK    2  A    between atoms: C_1  and  P_12
REMARK    3  A    between atoms: C_1  and  P_18
REMARK    4  A    between atoms: N_2  and  C_5
REMARK    5  A    between atoms: P_12  and  O_14
REMARK    6  A    between atoms: P_12  and  O_16
REMARK    7  A    between atoms: P_18  and  O_20
REMARK    8  A    between atoms: P_18  and  O_22
REMARK                            x       y       z     vdW  Elec       q    Type
REMARK                         _______ _______ _______ _____ _____    ______ ____
ROOT
ATOM      1  C   UNL     1      33.854 -22.775 -16.704  0.00  0.00    +0.152 C 
ENDROOT
BRANCH   1   2
ATOM      2  N   UNL     1      32.677 -23.579 -16.441  0.00  0.00    +0.402 N 
ATOM      3  H   UNL     1      32.387 -24.018 -17.315  0.00  0.00    -0.083 HD
ATOM      4  H   UNL     1      32.938 -24.260 -15.728  0.00  0.00    -0.083 HD
BRANCH   2   5
ATOM      5  C   UNL     1      31.545 -22.824 -15.908  0.00  0.00    -0.060 C 
ATOM      6  C   UNL     1      31.595 -22.658 -14.384  0.00  0.00    -0.021 C 
ATOM      7  C   UNL     1      30.198 -23.362 -16.410  0.00  0.00    -0.021 C 
ATOM      8  C   UNL     1      31.873 -23.896 -13.534  0.00  0.00    -0.002 C 
ATOM      9  C   UNL     1      29.818 -24.783 -16.006  0.00  0.00    -0.002 C 
ATOM     10  C   UNL     1      31.137 -25.189 -13.872  0.00  0.00    -0.000 C 
ATOM     11  C   UNL     1      29.759 -25.030 -14.501  0.00  0.00    -0.000 C 
ENDBRANCH   2   5
ENDBRANCH   1   2
BRANCH   1  12
ATOM     12  P   UNL     1      35.158 -23.545 -15.743  0.00  0.00    +0.329 P 
ATOM     13  O   UNL     1      35.108 -25.043 -15.665  0.00  0.00    -0.260 OA
BRANCH  12  14
ATOM     14  O   UNL     1      35.131 -22.774 -14.321  0.00  0.00    -0.325 OA
ATOM     15  H   UNL     1      35.163 -23.422 -13.601  0.00  0.00    +0.220 HD
ENDBRANCH  12  14
BRANCH  12  16
ATOM     16  O   UNL     1      36.498 -22.956 -16.432  0.00  0.00    -0.325 OA
ATOM     17  H   UNL     1      37.137 -22.717 -15.742  0.00  0.00    +0.220 HD
ENDBRANCH  12  16
ENDBRANCH   1  12
BRANCH   1  18
ATOM     18  P   UNL     1      33.773 -22.757 -18.510  0.00  0.00    +0.329 P 
ATOM     19  O   UNL     1      32.704 -21.883 -19.096  0.00  0.00    -0.260 OA
BRANCH  18  20
ATOM     20  O   UNL     1      35.281 -22.354 -18.931  0.00  0.00    -0.325 OA
ATOM     21  H   UNL     1      35.463 -21.444 -18.648  0.00  0.00    +0.220 HD
ENDBRANCH  18  20
BRANCH  18  22
ATOM     22  O   UNL     1      33.688 -24.321 -18.912  0.00  0.00    -0.325 OA
ATOM     23  H   UNL     1      34.238 -24.484 -19.695  0.00  0.00    +0.220 HD
ENDBRANCH  18  22
ENDBRANCH   1  18
TORSDOF 8
ENDMDL
MODEL 2
REMARK VINA RESULT:      -6.6      3.735      5.085
REMARK  Name = 3699
REMARK  8 active torsions:
REMARK  status: ('A' for Active; 'I' for Inactive)
REMARK    1  A    between atoms: C_1  and  N_2
REMARK    2  A    between atoms: C_1  and  P_12
REMARK    3  A    between atoms: C_1  and  P_18
REMARK    4  A    between atoms: N_2  and  C_5
REMARK    5  A    between atoms: P_12  and  O_14
REMARK    6  A    between atoms: P_12  and  O_16
REMARK    7  A    between atoms: P_18  and  O_20
REMARK    8  A    between atoms: P_18  and  O_22
REMARK                            x       y       z     vdW  Elec       q    Type
REMARK                         _______ _______ _______ _____ _____    ______ ____
ROOT
ATOM      1  C   UNL     1      36.536 -24.758 -14.139  0.00  0.00    +0.152 C 
ENDROOT
BRANCH   1   2
ATOM      2  N   UNL     1      35.341 -24.458 -14.905  0.00  0.00    +0.402 N 
ATOM      3  H   UNL     1      35.499 -24.748 -15.870  0.00  0.00    -0.083 HD
ATOM      4  H   UNL     1      34.574 -24.965 -14.463  0.00  0.00    -0.083 HD
BRANCH   2   5
ATOM      5  C   UNL     1      34.971 -23.045 -14.902  0.00  0.00    -0.060 C 
ATOM      6  C   UNL     1      33.484 -22.811 -15.197  0.00  0.00    -0.021 C 
ATOM      7  C   UNL     1      35.898 -22.199 -15.785  0.00  0.00    -0.021 C 
ATOM      8  C   UNL     1      32.864 -23.536 -16.390  0.00  0.00    -0.002 C 
ATOM      9  C   UNL     1      35.906 -22.498 -17.280  0.00  0.00    -0.002 C 
ATOM     10  C   UNL     1      33.637 -23.560 -17.706  0.00  0.00    -0.000 C 
ATOM     11  C   UNL     1      34.549 -22.370 -17.969  0.00  0.00    -0.000 C 
ENDBRANCH   2   5
ENDBRANCH   1   2
BRANCH   1  12
ATOM     12  P   UNL     1      36.045 -24.553 -12.427  0.00  0.00    +0.329 P 
ATOM     13  O   UNL     1      36.256 -23.183 -11.850  0.00  0.00    -0.260 OA
BRANCH  12  14
ATOM     14  O   UNL     1      36.782 -25.759 -11.640  0.00  0.00    -0.325 OA
ATOM     15  H   UNL     1      37.667 -25.474 -11.369  0.00  0.00    +0.220 HD
ENDBRANCH  12  14
BRANCH  12  16
ATOM     16  O   UNL     1      34.502 -25.040 -12.442  0.00  0.00    -0.325 OA
ATOM     17  H   UNL     1      34.262 -25.383 -11.566  0.00  0.00    +0.220 HD
ENDBRANCH  12  16
ENDBRANCH   1  12
BRANCH   1  18
ATOM     18  P   UNL     1      36.963 -26.337 -14.910  0.00  0.00    +0.329 P 
ATOM     19  O   UNL     1      36.086 -26.750 -16.056  0.00  0.00    -0.260 OA
BRANCH  18  20
ATOM     20  O   UNL     1      38.522 -26.137 -15.291  0.00  0.00    -0.325 OA
ATOM     21  H   UNL     1      39.019 -26.934 -15.047  0.00  0.00    +0.220 HD
ENDBRANCH  18  20
BRANCH  18  22
ATOM     22  O   UNL     1      37.021 -27.373 -13.671  0.00  0.00    -0.325 OA
ATOM     23  H   UNL     1      37.858 -27.863 -13.697  0.00  0.00    +0.220 HD
ENDBRANCH  18  22
ENDBRANCH   1  18
TORSDOF 8
ENDMDL
MODEL 3
REMARK VINA RESULT:      -6.4      3.346      4.379
REMARK  Name = 3699
REMARK  8 active torsions:
REMARK  status: ('A' for Active; 'I' for Inactive)
REMARK    1  A    between atoms: C_1  and  N_2
REMARK    2  A    between atoms: C_1  and  P_12
REMARK    3  A    between atoms: C_1  and  P_18
REMARK    4  A    between atoms: N_2  and  C_5
REMARK    5  A    between atoms: P_12  and  O_14
REMARK    6  A    between atoms: P_12  and  O_16
REMARK    7  A    between atoms: P_18  and  O_20
REMARK    8  A    between atoms: P_18  and  O_22
REMARK                            x       y       z     vdW  Elec       q    Type
REMARK                         _______ _______ _______ _____ _____    ______ ____
ROOT
ATOM      1  C   UNL     1      36.354 -24.785 -13.873  0.00  0.00    +0.152 C 
ENDROOT
BRANCH   1   2
ATOM      2  N   UNL     1      34.941 -24.744 -14.192  0.00  0.00    +0.402 N 
ATOM      3  H   UNL     1      34.809 -25.154 -15.117  0.00  0.00    -0.083 HD
ATOM      4  H   UNL     1      34.458 -25.264 -13.460  0.00  0.00    -0.083 HD
BRANCH   2   5
ATOM      5  C   UNL     1      34.370 -23.399 -14.201  0.00  0.00    -0.060 C 
ATOM      6  C   UNL     1      33.018 -23.313 -13.481  0.00  0.00    -0.021 C 
ATOM      7  C   UNL     1      34.341 -22.788 -15.608  0.00  0.00    -0.021 C 
ATOM      8  C   UNL     1      31.956 -24.358 -13.818  0.00  0.00    -0.002 C 
ATOM      9  C   UNL     1      33.474 -23.481 -16.655  0.00  0.00    -0.002 C 
ATOM     10  C   UNL     1      31.721 -24.708 -15.284  0.00  0.00    -0.000 C 
ATOM     11  C   UNL     1      31.996 -23.599 -16.290  0.00  0.00    -0.000 C 
ENDBRANCH   2   5
ENDBRANCH   1   2
BRANCH   1  12
ATOM     12  P   UNL     1      36.422 -24.663 -12.085  0.00  0.00    +0.329 P 
ATOM     13  O   UNL     1      35.179 -25.085 -11.357  0.00  0.00    -0.260 OA
BRANCH  12  14
ATOM     14  O   UNL     1      36.917 -23.151 -11.794  0.00  0.00    -0.325 OA
ATOM     15  H   UNL     1      37.827 -23.166 -11.462  0.00  0.00    +0.220 HD
ENDBRANCH  12  14
BRANCH  12  16
ATOM     16  O   UNL     1      37.737 -25.534 -11.722  0.00  0.00    -0.325 OA
ATOM     17  H   UNL     1      38.472 -24.937 -11.512  0.00  0.00    +0.220 HD
ENDBRANCH  12  16
ENDBRANCH   1  12
BRANCH   1  18
ATOM     18  P   UNL     1      36.806 -26.252 -14.827  0.00  0.00    +0.329 P 
ATOM     19  O   UNL     1      35.878 -26.595 -15.956  0.00  0.00    -0.260 OA
BRANCH  18  20
ATOM     20  O   UNL     1      38.326 -25.932 -15.277  0.00  0.00    -0.325 OA
ATOM     21  H   UNL     1      38.934 -26.516 -14.798  0.00  0.00    +0.220 HD
ENDBRANCH  18  20
BRANCH  18  22
ATOM     22  O   UNL     1      36.992 -27.404 -13.708  0.00  0.00    -0.325 OA
ATOM     23  H   UNL     1      36.633 -27.094 -12.862  0.00  0.00    +0.220 HD
ENDBRANCH  18  22
ENDBRANCH   1  18
TORSDOF 8
ENDMDL
MODEL 4
REMARK VINA RESULT:      -6.2      9.396     11.413
REMARK  Name = 3699
REMARK  8 active torsions:
REMARK  status: ('A' for Active; 'I' for Inactive)
REMARK    1  A    between atoms: C_1  and  N_2
REMARK    2  A    between atoms: C_1  and  P_12
REMARK    3  A    between atoms: C_1  and  P_18
REMARK    4  A    between atoms: N_2  and  C_5
REMARK    5  A    between atoms: P_12  and  O_14
REMARK    6  A    between atoms: P_12  and  O_16
REMARK    7  A    between atoms: P_18  and  O_20
REMARK    8  A    between atoms: P_18  and  O_22
REMARK                            x       y       z     vdW  Elec       q    Type
REMARK                         _______ _______ _______ _____ _____    ______ ____
ROOT
ATOM      1  C   UNL     1      33.851 -14.556 -22.457  0.00  0.00    +0.152 C 
ENDROOT
BRANCH   1   2
ATOM      2  N   UNL     1      33.870 -15.873 -23.062  0.00  0.00    +0.402 N 
ATOM      3  H   UNL     1      33.516 -16.544 -22.381  0.00  0.00    -0.083 HD
ATOM      4  H   UNL     1      33.290 -15.820 -23.899  0.00  0.00    -0.083 HD
BRANCH   2   5
ATOM      5  C   UNL     1      35.195 -16.312 -23.494  0.00  0.00    -0.060 C 
ATOM      6  C   UNL     1      35.265 -16.640 -24.990  0.00  0.00    -0.021 C 
ATOM      7  C   UNL     1      35.755 -17.432 -22.606  0.00  0.00    -0.021 C 
ATOM      8  C   UNL     1      34.175 -17.532 -25.582  0.00  0.00    -0.002 C 
ATOM      9  C   UNL     1      34.998 -18.756 -22.591  0.00  0.00    -0.002 C 
ATOM     10  C   UNL     1      33.766 -18.785 -24.814  0.00  0.00    -0.000 C 
ATOM     11  C   UNL     1      34.847 -19.427 -23.955  0.00  0.00    -0.000 C 
ENDBRANCH   2   5
ENDBRANCH   1   2
BRANCH   1  12
ATOM     12  P   UNL     1      33.058 -13.504 -23.674  0.00  0.00    +0.329 P 
ATOM     13  O   UNL     1      32.709 -14.166 -24.975  0.00  0.00    -0.260 OA
BRANCH  12  14
ATOM     14  O   UNL     1      34.022 -12.210 -23.789  0.00  0.00    -0.325 OA
ATOM     15  H   UNL     1      34.856 -12.386 -23.327  0.00  0.00    +0.220 HD
ENDBRANCH  12  14
BRANCH  12  16
ATOM     16  O   UNL     1      31.789 -12.919 -22.860  0.00  0.00    -0.325 OA
ATOM     17  H   UNL     1      32.056 -12.710 -21.950  0.00  0.00    +0.220 HD
ENDBRANCH  12  16
ENDBRANCH   1  12
BRANCH   1  18
ATOM     18  P   UNL     1      33.139 -15.004 -20.856  0.00  0.00    +0.329 P 
ATOM     19  O   UNL     1      32.078 -16.064 -20.900  0.00  0.00    -0.260 OA
BRANCH  18  20
ATOM     20  O   UNL     1      34.443 -15.389 -19.980  0.00  0.00    -0.325 OA
ATOM     21  H   UNL     1      34.594 -14.707 -19.307  0.00  0.00    +0.220 HD
ENDBRANCH  18  20
BRANCH  18  22
ATOM     22  O   UNL     1      32.681 -13.588 -20.223  0.00  0.00    -0.325 OA
ATOM     23  H   UNL     1      32.865 -12.876 -20.855  0.00  0.00    +0.220 HD
ENDBRANCH  18  22
ENDBRANCH   1  18
TORSDOF 8
ENDMDL
MODEL 5
REMARK VINA RESULT:      -6.0      1.967      3.067
REMARK  Name = 3699
REMARK  8 active torsions:
REMARK  status: ('A' for Active; 'I' for Inactive)
REMARK    1  A    between atoms: C_1  and  N_2
REMARK    2  A    between atoms: C_1  and  P_12
REMARK    3  A    between atoms: C_1  and  P_18
REMARK    4  A    between atoms: N_2  and  C_5
REMARK    5  A    between atoms: P_12  and  O_14
REMARK    6  A    between atoms: P_12  and  O_16
REMARK    7  A    between atoms: P_18  and  O_20
REMARK    8  A    between atoms: P_18  and  O_22
REMARK                            x       y       z     vdW  Elec       q    Type
REMARK                         _______ _______ _______ _____ _____    ______ ____
ROOT
ATOM      1  C   UNL     1      34.904 -23.654 -14.099  0.00  0.00    +0.152 C 
ENDROOT
BRANCH   1   2
ATOM      2  N   UNL     1      33.559 -24.194 -14.054  0.00  0.00    +0.402 N 
ATOM      3  H   UNL     1      33.382 -24.686 -14.930  0.00  0.00    -0.083 HD
ATOM      4  H   UNL     1      33.516 -24.810 -13.242  0.00  0.00    -0.083 HD
BRANCH   2   5
ATOM      5  C   UNL     1      32.518 -23.185 -13.875  0.00  0.00    -0.060 C 
ATOM      6  C   UNL     1      31.338 -23.679 -13.029  0.00  0.00    -0.021 C 
ATOM      7  C   UNL     1      32.082 -22.555 -15.205  0.00  0.00    -0.021 C 
ATOM      8  C   UNL     1      30.728 -25.037 -13.370  0.00  0.00    -0.002 C 
ATOM      9  C   UNL     1      31.427 -23.473 -16.231  0.00  0.00    -0.002 C 
ATOM     10  C   UNL     1      30.466 -25.368 -14.836  0.00  0.00    -0.000 C 
ATOM     11  C   UNL     1      30.165 -24.185 -15.746  0.00  0.00    -0.000 C 
ENDBRANCH   2   5
ENDBRANCH   1   2
BRANCH   1  12
ATOM     12  P   UNL     1      35.622 -24.084 -12.512  0.00  0.00    +0.329 P 
ATOM     13  O   UNL     1      34.772 -23.785 -11.312  0.00  0.00    -0.260 OA
BRANCH  12  14
ATOM     14  O   UNL     1      37.082 -23.388 -12.520  0.00  0.00    -0.325 OA
ATOM     15  H   UNL     1      37.757 -24.049 -12.304  0.00  0.00    +0.220 HD
ENDBRANCH  12  14
BRANCH  12  16
ATOM     16  O   UNL     1      35.983 -25.650 -12.702  0.00  0.00    -0.325 OA
ATOM     17  H   UNL     1      35.180 -26.140 -12.941  0.00  0.00    +0.220 HD
ENDBRANCH  12  16
ENDBRANCH   1  12
BRANCH   1  18
ATOM     18  P   UNL     1      35.420 -24.344 -15.688  0.00  0.00    +0.329 P 
ATOM     19  O   UNL     1      34.703 -23.799 -16.888  0.00  0.00    -0.260 OA
BRANCH  18  20
ATOM     20  O   UNL     1      37.018 -24.093 -15.685  0.00  0.00    -0.325 OA
ATOM     21  H   UNL     1      37.197 -23.154 -15.518  0.00  0.00    +0.220 HD
ENDBRANCH  18  20
BRANCH  18  22
ATOM     22  O   UNL     1      35.303 -25.943 -15.477  0.00  0.00    -0.325 OA
ATOM     23  H   UNL     1      36.044 -26.253 -14.934  0.00  0.00    +0.220 HD
ENDBRANCH  18  22
ENDBRANCH   1  18
TORSDOF 8
ENDMDL
MODEL 6
REMARK VINA RESULT:      -5.9      4.251      6.500
REMARK  Name = 3699
REMARK  8 active torsions:
REMARK  status: ('A' for Active; 'I' for Inactive)
REMARK    1  A    between atoms: C_1  and  N_2
REMARK    2  A    between atoms: C_1  and  P_12
REMARK    3  A    between atoms: C_1  and  P_18
REMARK    4  A    between atoms: N_2  and  C_5
REMARK    5  A    between atoms: P_12  and  O_14
REMARK    6  A    between atoms: P_12  and  O_16
REMARK    7  A    between atoms: P_18  and  O_20
REMARK    8  A    between atoms: P_18  and  O_22
REMARK                            x       y       z     vdW  Elec       q    Type
REMARK                         _______ _______ _______ _____ _____    ______ ____
ROOT
ATOM      1  C   UNL     1      35.043 -24.015 -13.280  0.00  0.00    +0.152 C 
ENDROOT
BRANCH   1   2
ATOM      2  N   UNL     1      35.423 -25.340 -13.728  0.00  0.00    +0.402 N 
ATOM      3  H   UNL     1      36.192 -25.668 -13.144  0.00  0.00    -0.083 HD
ATOM      4  H   UNL     1      34.593 -25.927 -13.649  0.00  0.00    -0.083 HD
BRANCH   2   5
ATOM      5  C   UNL     1      35.849 -25.397 -15.124  0.00  0.00    -0.060 C 
ATOM      6  C   UNL     1      36.695 -26.635 -15.447  0.00  0.00    -0.021 C 
ATOM      7  C   UNL     1      36.500 -24.087 -15.588  0.00  0.00    -0.021 C 
ATOM      8  C   UNL     1      37.851 -26.980 -14.510  0.00  0.00    -0.002 C 
ATOM      9  C   UNL     1      37.796 -23.669 -14.903  0.00  0.00    -0.002 C 
ATOM     10  C   UNL     1      38.769 -25.854 -14.044  0.00  0.00    -0.000 C 
ATOM     11  C   UNL     1      38.933 -24.683 -15.004  0.00  0.00    -0.000 C 
ENDBRANCH   2   5
ENDBRANCH   1   2
BRANCH   1  12
ATOM     12  P   UNL     1      33.294 -23.888 -13.658  0.00  0.00    +0.329 P 
ATOM     13  O   UNL     1      32.962 -23.514 -15.073  0.00  0.00    -0.260 OA
BRANCH  12  14
ATOM     14  O   UNL     1      32.698 -22.904 -12.521  0.00  0.00    -0.325 OA
ATOM     15  H   UNL     1      32.287 -22.134 -12.943  0.00  0.00    +0.220 HD
ENDBRANCH  12  14
BRANCH  12  16
ATOM     16  O   UNL     1      32.729 -25.332 -13.198  0.00  0.00    -0.325 OA
ATOM     17  H   UNL     1      32.568 -25.327 -12.241  0.00  0.00    +0.220 HD
ENDBRANCH  12  16
ENDBRANCH   1  12
BRANCH   1  18
ATOM     18  P   UNL     1      35.738 -24.084 -11.611  0.00  0.00    +0.329 P 
ATOM     19  O   UNL     1      34.752 -23.889 -10.497  0.00  0.00    -0.260 OA
BRANCH  18  20
ATOM     20  O   UNL     1      36.497 -25.511 -11.600  0.00  0.00    -0.325 OA
ATOM     21  H   UNL     1      37.215 -25.490 -10.948  0.00  0.00    +0.220 HD
ENDBRANCH  18  20
BRANCH  18  22
ATOM     22  O   UNL     1      36.957 -23.023 -11.653  0.00  0.00    -0.325 OA
ATOM     23  H   UNL     1      36.628 -22.142 -11.412  0.00  0.00    +0.220 HD
ENDBRANCH  18  22
ENDBRANCH   1  18
TORSDOF 8
ENDMDL
MODEL 7
REMARK VINA RESULT:      -5.9     11.118     12.880
REMARK  Name = 3699
REMARK  8 active torsions:
REMARK  status: ('A' for Active; 'I' for Inactive)
REMARK    1  A    between atoms: C_1  and  N_2
REMARK    2  A    between atoms: C_1  and  P_12
REMARK    3  A    between atoms: C_1  and  P_18
REMARK    4  A    between atoms: N_2  and  C_5
REMARK    5  A    between atoms: P_12  and  O_14
REMARK    6  A    between atoms: P_12  and  O_16
REMARK    7  A    between atoms: P_18  and  O_20
REMARK    8  A    between atoms: P_18  and  O_22
REMARK                            x       y       z     vdW  Elec       q    Type
REMARK                         _______ _______ _______ _____ _____    ______ ____
ROOT
ATOM      1  C   UNL     1      32.636 -13.936 -22.186  0.00  0.00    +0.152 C 
ENDROOT
BRANCH   1   2
ATOM      2  N   UNL     1      32.707 -12.638 -21.543  0.00  0.00    +0.402 N 
ATOM      3  H   UNL     1      33.307 -12.720 -20.723  0.00  0.00    -0.083 HD
ATOM      4  H   UNL     1      33.074 -11.986 -22.236  0.00  0.00    -0.083 HD
BRANCH   2   5
ATOM      5  C   UNL     1      31.412 -12.114 -21.115  0.00  0.00    -0.060 C 
ATOM      6  C   UNL     1      30.786 -11.150 -22.130  0.00  0.00    -0.021 C 
ATOM      7  C   UNL     1      31.458 -11.542 -19.692  0.00  0.00    -0.021 C 
ATOM      8  C   UNL     1      31.663 -10.037 -22.700  0.00  0.00    -0.002 C 
ATOM      9  C   UNL     1      32.356 -10.334 -19.452  0.00  0.00    -0.002 C 
ATOM     10  C   UNL     1      32.549  -9.248 -21.742  0.00  0.00    -0.000 C 
ATOM     11  C   UNL     1      32.038  -9.114 -20.314  0.00  0.00    -0.000 C 
ENDBRANCH   2   5
ENDBRANCH   1   2
BRANCH   1  12
ATOM     12  P   UNL     1      33.513 -13.725 -23.737  0.00  0.00    +0.329 P 
ATOM     13  O   UNL     1      32.693 -13.922 -24.978  0.00  0.00    -0.260 OA
BRANCH  12  14
ATOM     14  O   UNL     1      34.814 -14.678 -23.606  0.00  0.00    -0.325 OA
ATOM     15  H   UNL     1      34.939 -14.928 -22.678  0.00  0.00    +0.220 HD
ENDBRANCH  12  14
BRANCH  12  16
ATOM     16  O   UNL     1      34.149 -12.246 -23.584  0.00  0.00    -0.325 OA
ATOM     17  H   UNL     1      34.796 -12.245 -22.860  0.00  0.00    +0.220 HD
ENDBRANCH  12  16
ENDBRANCH   1  12
BRANCH   1  18
ATOM     18  P   UNL     1      33.207 -14.954 -20.806  0.00  0.00    +0.329 P 
ATOM     19  O   UNL     1      32.307 -14.970 -19.605  0.00  0.00    -0.260 OA
BRANCH  18  20
ATOM     20  O   UNL     1      33.435 -16.398 -21.498  0.00  0.00    -0.325 OA
ATOM     21  H   UNL     1      33.525 -17.076 -20.810  0.00  0.00    +0.220 HD
ENDBRANCH  18  20
BRANCH  18  22
ATOM     22  O   UNL     1      34.715 -14.437 -20.537  0.00  0.00    -0.325 OA
ATOM     23  H   UNL     1      35.338 -15.165 -20.686  0.00  0.00    +0.220 HD
ENDBRANCH  18  22
ENDBRANCH   1  18
TORSDOF 8
ENDMDL
MODEL 8
REMARK VINA RESULT:      -5.8      3.535      5.200
REMARK  Name = 3699
REMARK  8 active torsions:
REMARK  status: ('A' for Active; 'I' for Inactive)
REMARK    1  A    between atoms: C_1  and  N_2
REMARK    2  A    between atoms: C_1  and  P_12
REMARK    3  A    between atoms: C_1  and  P_18
REMARK    4  A    between atoms: N_2  and  C_5
REMARK    5  A    between atoms: P_12  and  O_14
REMARK    6  A    between atoms: P_12  and  O_16
REMARK    7  A    between atoms: P_18  and  O_20
REMARK    8  A    between atoms: P_18  and  O_22
REMARK                            x       y       z     vdW  Elec       q    Type
REMARK                         _______ _______ _______ _____ _____    ______ ____
ROOT
ATOM      1  C   UNL     1      33.752 -23.193 -15.383  0.00  0.00    +0.152 C 
ENDROOT
BRANCH   1   2
ATOM      2  N   UNL     1      34.766 -24.146 -14.977  0.00  0.00    +0.402 N 
ATOM      3  H   UNL     1      34.370 -24.747 -14.255  0.00  0.00    -0.083 HD
ATOM      4  H   UNL     1      35.037 -24.662 -15.814  0.00  0.00    -0.083 HD
BRANCH   2   5
ATOM      5  C   UNL     1      35.982 -23.532 -14.448  0.00  0.00    -0.060 C 
ATOM      6  C   UNL     1      37.266 -24.135 -15.033  0.00  0.00    -0.021 C 
ATOM      7  C   UNL     1      35.987 -23.479 -12.915  0.00  0.00    -0.021 C 
ATOM      8  C   UNL     1      37.393 -25.657 -15.068  0.00  0.00    -0.002 C 
ATOM      9  C   UNL     1      35.982 -24.809 -12.168  0.00  0.00    -0.002 C 
ATOM     10  C   UNL     1      36.988 -26.449 -13.829  0.00  0.00    -0.000 C 
ATOM     11  C   UNL     1      37.152 -25.735 -12.494  0.00  0.00    -0.000 C 
ENDBRANCH   2   5
ENDBRANCH   1   2
BRANCH   1  12
ATOM     12  P   UNL     1      33.844 -23.162 -17.174  0.00  0.00    +0.329 P 
ATOM     13  O   UNL     1      35.044 -22.471 -17.751  0.00  0.00    -0.260 OA
BRANCH  12  14
ATOM     14  O   UNL     1      32.412 -22.579 -17.649  0.00  0.00    -0.325 OA
ATOM     15  H   UNL     1      31.718 -22.901 -17.054  0.00  0.00    +0.220 HD
ENDBRANCH  12  14
BRANCH  12  16
ATOM     16  O   UNL     1      33.726 -24.729 -17.560  0.00  0.00    -0.325 OA
ATOM     17  H   UNL     1      33.055 -24.842 -18.252  0.00  0.00    +0.220 HD
ENDBRANCH  12  16
ENDBRANCH   1  12
BRANCH   1  18
ATOM     18  P   UNL     1      32.363 -23.853 -14.430  0.00  0.00    +0.329 P 
ATOM     19  O   UNL     1      31.056 -23.918 -15.164  0.00  0.00    -0.260 OA
BRANCH  18  20
ATOM     20  O   UNL     1      32.926 -25.281 -13.923  0.00  0.00    -0.325 OA
ATOM     21  H   UNL     1      33.893 -25.293 -13.996  0.00  0.00    +0.220 HD
ENDBRANCH  18  20
BRANCH  18  22
ATOM     22  O   UNL     1      32.359 -22.963 -13.081  0.00  0.00    -0.325 OA
ATOM     23  H   UNL     1      32.012 -22.078 -13.277  0.00  0.00    +0.220 HD
ENDBRANCH  18  22
ENDBRANCH   1  18
TORSDOF 8
ENDMDL
MODEL 9
REMARK VINA RESULT:      -5.8     14.515     16.209
REMARK  Name = 3699
REMARK  8 active torsions:
REMARK  status: ('A' for Active; 'I' for Inactive)
REMARK    1  A    between atoms: C_1  and  N_2
REMARK    2  A    between atoms: C_1  and  P_12
REMARK    3  A    between atoms: C_1  and  P_18
REMARK    4  A    between atoms: N_2  and  C_5
REMARK    5  A    between atoms: P_12  and  O_14
REMARK    6  A    between atoms: P_12  and  O_16
REMARK    7  A    between atoms: P_18  and  O_20
REMARK    8  A    between atoms: P_18  and  O_22
REMARK                            x       y       z     vdW  Elec       q    Type
REMARK                         _______ _______ _______ _____ _____    ______ ____
ROOT
ATOM      1  C   UNL     1      33.073 -10.685 -22.665  0.00  0.00    +0.152 C 
ENDROOT
BRANCH   1   2
ATOM      2  N   UNL     1      32.505  -9.435 -23.130  0.00  0.00    +0.402 N 
ATOM      3  H   UNL     1      32.798  -9.290 -24.096  0.00  0.00    -0.083 HD
ATOM      4  H   UNL     1      31.493  -9.517 -23.034  0.00  0.00    -0.083 HD
BRANCH   2   5
ATOM      5  C   UNL     1      32.910  -8.269 -22.347  0.00  0.00    -0.060 C 
ATOM      6  C   UNL     1      31.742  -7.335 -22.007  0.00  0.00    -0.021 C 
ATOM      7  C   UNL     1      34.103  -7.534 -22.973  0.00  0.00    -0.021 C 
ATOM      8  C   UNL     1      30.791  -6.933 -23.133  0.00  0.00    -0.002 C 
ATOM      9  C   UNL     1      33.897  -6.907 -24.348  0.00  0.00    -0.002 C 
ATOM     10  C   UNL     1      31.388  -6.518 -24.474  0.00  0.00    -0.000 C 
ATOM     11  C   UNL     1      32.770  -5.879 -24.423  0.00  0.00    -0.000 C 
ENDBRANCH   2   5
ENDBRANCH   1   2
BRANCH   1  12
ATOM     12  P   UNL     1      31.711 -11.537 -21.868  0.00  0.00    +0.329 P 
ATOM     13  O   UNL     1      31.715 -11.506 -20.367  0.00  0.00    -0.260 OA
BRANCH  12  14
ATOM     14  O   UNL     1      31.703 -13.012 -22.532  0.00  0.00    -0.325 OA
ATOM     15  H   UNL     1      31.360 -13.653 -21.892  0.00  0.00    +0.220 HD
ENDBRANCH  12  14
BRANCH  12  16
ATOM     16  O   UNL     1      30.416 -10.844 -22.547  0.00  0.00    -0.325 OA
ATOM     17  H   UNL     1      30.490  -9.879 -22.473  0.00  0.00    +0.220 HD
ENDBRANCH  12  16
ENDBRANCH   1  12
BRANCH   1  18
ATOM     18  P   UNL     1      33.864 -11.212 -24.203  0.00  0.00    +0.329 P 
ATOM     19  O   UNL     1      33.049 -11.009 -25.446  0.00  0.00    -0.260 OA
BRANCH  18  20
ATOM     20  O   UNL     1      35.267 -10.409 -24.176  0.00  0.00    -0.325 OA
ATOM     21  H   UNL     1      35.954 -10.971 -23.785  0.00  0.00    +0.220 HD
ENDBRANCH  18  20
BRANCH  18  22
ATOM     22  O   UNL     1      34.312 -12.738 -23.908  0.00  0.00    -0.325 OA
ATOM     23  H   UNL     1      34.476 -12.849 -22.959  0.00  0.00    +0.220 HD
ENDBRANCH  18  22
ENDBRANCH   1  18
TORSDOF 8
ENDMDL
