MODEL 1
REMARK VINA RESULT:      -9.1      0.000      0.000
REMARK  Name = 46937064
REMARK  16 active torsions:
REMARK  status: ('A' for Active; 'I' for Inactive)
REMARK    1  A    between atoms: C_2  and  O_13
REMARK    2  A    between atoms: C_3  and  N_7
REMARK    3  A    between atoms: C_4  and  O_11
REMARK    4  A    between atoms: C_5  and  O_25
REMARK    5  A    between atoms: C_6  and  C_34
REMARK    6  A    between atoms: O_13  and  C_15
REMARK    7  A    between atoms: C_17  and  O_21
REMARK    8  A    between atoms: C_18  and  O_23
REMARK    9  A    between atoms: O_25  and  C_26
REMARK   10  A    between atoms: C_26  and  C_27
REMARK   11  A    between atoms: C_27  and  C_28
REMARK   12  A    between atoms: C_28  and  C_29
REMARK   13  A    between atoms: C_29  and  C_30
REMARK   14  A    between atoms: C_30  and  C_31
REMARK   15  A    between atoms: C_31  and  C_32
REMARK   16  A    between atoms: C_34  and  O_35
REMARK                            x       y       z     vdW  Elec       q    Type
REMARK                         _______ _______ _______ _____ _____    ______ ____
ROOT
ATOM      1  O   UNL     1      32.614 -22.903 -16.862  0.00  0.00    -0.326 OA
ATOM      2  C   UNL     1      34.370 -23.398 -15.227  0.00  0.00    +0.157 C 
ATOM      3  C   UNL     1      33.316 -24.039 -14.313  0.00  0.00    -0.003 C 
ATOM      4  C   UNL     1      31.915 -23.483 -14.610  0.00  0.00    +0.123 C 
ATOM      5  C   UNL     1      33.919 -23.456 -16.692  0.00  0.00    +0.261 C 
ATOM      6  C   UNL     1      31.612 -23.595 -16.111  0.00  0.00    +0.172 C 
ENDROOT
BRANCH   3   7
ATOM      7  N   UNL     1      33.659 -23.840 -12.904  0.00  0.00    +0.385 N 
ATOM      8  H   UNL     1      32.808 -23.677 -12.367  0.00  0.00    -0.089 HD
ATOM      9  H   UNL     1      34.278 -23.034 -12.814  0.00  0.00    -0.089 HD
ATOM     10  H   UNL     1      34.132 -24.671 -12.547  0.00  0.00    -0.089 HD
ENDBRANCH   3   7
BRANCH   4  11
ATOM     11  O   UNL     1      31.825 -22.116 -14.203  0.00  0.00    -0.384 OA
ATOM     12  H   UNL     1      32.476 -21.942 -13.505  0.00  0.00    +0.210 HD
ENDBRANCH   4  11
BRANCH   2  13
ATOM     13  O   UNL     1      35.604 -24.106 -15.123  0.00  0.00    -0.330 OA
BRANCH  13  15
ATOM     14  O   UNL     1      37.938 -23.694 -15.040  0.00  0.00    -0.330 OA
ATOM     15  C   UNL     1      36.640 -23.273 -14.614  0.00  0.00    +0.238 C 
ATOM     16  C   UNL     1      36.552 -23.220 -13.090  0.00  0.00    +0.093 C 
ATOM     17  C   UNL     1      36.978 -24.552 -12.474  0.00  0.00    +0.145 C 
ATOM     18  C   UNL     1      38.351 -24.975 -13.003  0.00  0.00    +0.164 C 
ATOM     19  C   UNL     1      38.331 -24.979 -14.537  0.00  0.00    +0.147 C 
ATOM     20  C   UNL     1      39.691 -25.304 -15.145  0.00  0.00    +0.035 C 
BRANCH  17  21
ATOM     21  O   UNL     1      37.022 -24.447 -11.056  0.00  0.00    -0.382 OA
ATOM     22  H   UNL     1      36.305 -23.869 -10.753  0.00  0.00    +0.210 HD
ENDBRANCH  17  21
BRANCH  18  23
ATOM     23  O   UNL     1      39.329 -24.050 -12.525  0.00  0.00    -0.380 OA
ATOM     24  H   UNL     1      39.967 -24.517 -11.961  0.00  0.00    +0.211 HD
ENDBRANCH  18  23
ENDBRANCH  13  15
ENDBRANCH   2  13
BRANCH   5  25
ATOM     25  O   UNL     1      34.850 -22.756 -17.517  0.00  0.00    -0.329 OA
BRANCH  25  26
ATOM     26  C   UNL     1      34.456 -22.776 -18.883  0.00  0.00    +0.145 C 
BRANCH  26  27
ATOM     27  C   UNL     1      34.612 -21.377 -19.461  0.00  0.00    +0.032 C 
BRANCH  27  28
ATOM     28  C   UNL     1      33.268 -20.789 -19.886  0.00  0.00    +0.003 C 
BRANCH  28  29
ATOM     29  C   UNL     1      33.442 -19.756 -21.002  0.00  0.00    +0.000 C 
BRANCH  29  30
ATOM     30  C   UNL     1      34.892 -19.301 -21.190  0.00  0.00    +0.000 C 
BRANCH  30  31
ATOM     31  C   UNL     1      35.093 -18.399 -22.410  0.00  0.00    +0.000 C 
BRANCH  31  32
ATOM     32  C   UNL     1      34.871 -19.171 -23.711  0.00  0.00    +0.000 C 
ATOM     33  C   UNL     1      34.497 -18.240 -24.854  0.00  0.00    +0.000 C 
ENDBRANCH  31  32
ENDBRANCH  30  31
ENDBRANCH  29  30
ENDBRANCH  28  29
ENDBRANCH  27  28
ENDBRANCH  26  27
ENDBRANCH  25  26
ENDBRANCH   5  25
BRANCH   6  34
ATOM     34  C   UNL     1      30.263 -22.988 -16.478  0.00  0.00    +0.169 C 
BRANCH  34  35
ATOM     35  O   UNL     1      29.345 -23.260 -15.434  0.00  0.00    -0.379 OA
ATOM     36  H   UNL     1      29.773 -23.818 -14.765  0.00  0.00    +0.211 HD
ENDBRANCH  34  35
ENDBRANCH   6  34
TORSDOF 16
ENDMDL
MODEL 2
REMARK VINA RESULT:      -9.1      1.580      2.124
REMARK  Name = 46937064
REMARK  16 active torsions:
REMARK  status: ('A' for Active; 'I' for Inactive)
REMARK    1  A    between atoms: C_2  and  O_13
REMARK    2  A    between atoms: C_3  and  N_7
REMARK    3  A    between atoms: C_4  and  O_11
REMARK    4  A    between atoms: C_5  and  O_25
REMARK    5  A    between atoms: C_6  and  C_34
REMARK    6  A    between atoms: O_13  and  C_15
REMARK    7  A    between atoms: C_17  and  O_21
REMARK    8  A    between atoms: C_18  and  O_23
REMARK    9  A    between atoms: O_25  and  C_26
REMARK   10  A    between atoms: C_26  and  C_27
REMARK   11  A    between atoms: C_27  and  C_28
REMARK   12  A    between atoms: C_28  and  C_29
REMARK   13  A    between atoms: C_29  and  C_30
REMARK   14  A    between atoms: C_30  and  C_31
REMARK   15  A    between atoms: C_31  and  C_32
REMARK   16  A    between atoms: C_34  and  O_35
REMARK                            x       y       z     vdW  Elec       q    Type
REMARK                         _______ _______ _______ _____ _____    ______ ____
ROOT
ATOM      1  O   UNL     1      30.626 -22.840 -17.115  0.00  0.00    -0.326 OA
ATOM      2  C   UNL     1      32.275 -23.495 -15.426  0.00  0.00    +0.157 C 
ATOM      3  C   UNL     1      31.229 -24.417 -14.784  0.00  0.00    -0.003 C 
ATOM      4  C   UNL     1      29.803 -23.950 -15.118  0.00  0.00    +0.123 C 
ATOM      5  C   UNL     1      31.966 -23.285 -16.914  0.00  0.00    +0.261 C 
ATOM      6  C   UNL     1      29.650 -23.771 -16.635  0.00  0.00    +0.172 C 
ENDROOT
BRANCH   3   7
ATOM      7  N   UNL     1      31.419 -24.488 -13.334  0.00  0.00    +0.385 N 
ATOM      8  H   UNL     1      32.188 -23.876 -13.062  0.00  0.00    -0.089 HD
ATOM      9  H   UNL     1      31.637 -25.448 -13.066  0.00  0.00    -0.089 HD
ATOM     10  H   UNL     1      30.565 -24.190 -12.863  0.00  0.00    -0.089 HD
ENDBRANCH   3   7
BRANCH   4  11
ATOM     11  O   UNL     1      29.515 -22.716 -14.457  0.00  0.00    -0.384 OA
ATOM     12  H   UNL     1      28.585 -22.707 -14.179  0.00  0.00    +0.210 HD
ENDBRANCH   4  11
BRANCH   2  13
ATOM     13  O   UNL     1      33.571 -24.085 -15.330  0.00  0.00    -0.330 OA
BRANCH  13  15
ATOM     14  O   UNL     1      35.311 -22.488 -15.115  0.00  0.00    -0.330 OA
ATOM     15  C   UNL     1      34.406 -23.360 -14.433  0.00  0.00    +0.238 C 
ATOM     16  C   UNL     1      35.157 -24.336 -13.530  0.00  0.00    +0.093 C 
ATOM     17  C   UNL     1      36.230 -25.088 -14.316  0.00  0.00    +0.145 C 
ATOM     18  C   UNL     1      37.138 -24.107 -15.062  0.00  0.00    +0.164 C 
ATOM     19  C   UNL     1      36.282 -23.169 -15.923  0.00  0.00    +0.147 C 
ATOM     20  C   UNL     1      37.107 -22.100 -16.632  0.00  0.00    +0.035 C 
BRANCH  17  21
ATOM     21  O   UNL     1      37.010 -25.892 -13.439  0.00  0.00    -0.382 OA
ATOM     22  H   UNL     1      37.952 -25.727 -13.602  0.00  0.00    +0.210 HD
ENDBRANCH  17  21
BRANCH  18  23
ATOM     23  O   UNL     1      37.883 -23.354 -14.104  0.00  0.00    -0.380 OA
ATOM     24  H   UNL     1      38.379 -23.961 -13.531  0.00  0.00    +0.211 HD
ENDBRANCH  18  23
ENDBRANCH  13  15
ENDBRANCH   2  13
BRANCH   5  25
ATOM     25  O   UNL     1      32.877 -22.338 -17.473  0.00  0.00    -0.329 OA
BRANCH  25  26
ATOM     26  C   UNL     1      33.688 -22.925 -18.481  0.00  0.00    +0.145 C 
BRANCH  26  27
ATOM     27  C   UNL     1      33.958 -21.888 -19.563  0.00  0.00    +0.032 C 
BRANCH  27  28
ATOM     28  C   UNL     1      32.847 -20.841 -19.629  0.00  0.00    +0.003 C 
BRANCH  28  29
ATOM     29  C   UNL     1      33.115 -19.820 -20.737  0.00  0.00    +0.000 C 
BRANCH  29  30
ATOM     30  C   UNL     1      34.592 -19.714 -21.124  0.00  0.00    +0.000 C 
BRANCH  30  31
ATOM     31  C   UNL     1      35.001 -18.315 -21.591  0.00  0.00    +0.000 C 
BRANCH  31  32
ATOM     32  C   UNL     1      35.703 -18.367 -22.949  0.00  0.00    +0.000 C 
ATOM     33  C   UNL     1      34.843 -19.057 -23.995  0.00  0.00    +0.000 C 
ENDBRANCH  31  32
ENDBRANCH  30  31
ENDBRANCH  29  30
ENDBRANCH  28  29
ENDBRANCH  27  28
ENDBRANCH  26  27
ENDBRANCH  25  26
ENDBRANCH   5  25
BRANCH   6  34
ATOM     34  C   UNL     1      28.277 -23.235 -17.021  0.00  0.00    +0.169 C 
BRANCH  34  35
ATOM     35  O   UNL     1      28.326 -21.819 -17.015  0.00  0.00    -0.379 OA
ATOM     36  H   UNL     1      29.204 -21.524 -17.306  0.00  0.00    +0.211 HD
ENDBRANCH  34  35
ENDBRANCH   6  34
TORSDOF 16
ENDMDL
MODEL 3
REMARK VINA RESULT:      -8.4      1.482      2.317
REMARK  Name = 46937064
REMARK  16 active torsions:
REMARK  status: ('A' for Active; 'I' for Inactive)
REMARK    1  A    between atoms: C_2  and  O_13
REMARK    2  A    between atoms: C_3  and  N_7
REMARK    3  A    between atoms: C_4  and  O_11
REMARK    4  A    between atoms: C_5  and  O_25
REMARK    5  A    between atoms: C_6  and  C_34
REMARK    6  A    between atoms: O_13  and  C_15
REMARK    7  A    between atoms: C_17  and  O_21
REMARK    8  A    between atoms: C_18  and  O_23
REMARK    9  A    between atoms: O_25  and  C_26
REMARK   10  A    between atoms: C_26  and  C_27
REMARK   11  A    between atoms: C_27  and  C_28
REMARK   12  A    between atoms: C_28  and  C_29
REMARK   13  A    between atoms: C_29  and  C_30
REMARK   14  A    between atoms: C_30  and  C_31
REMARK   15  A    between atoms: C_31  and  C_32
REMARK   16  A    between atoms: C_34  and  O_35
REMARK                            x       y       z     vdW  Elec       q    Type
REMARK                         _______ _______ _______ _____ _____    ______ ____
ROOT
ATOM      1  O   UNL     1      31.643 -23.413 -16.746  0.00  0.00    -0.326 OA
ATOM      2  C   UNL     1      33.170 -22.960 -14.885  0.00  0.00    +0.157 C 
ATOM      3  C   UNL     1      32.117 -23.502 -13.909  0.00  0.00    -0.003 C 
ATOM      4  C   UNL     1      30.705 -23.398 -14.506  0.00  0.00    +0.123 C 
ATOM      5  C   UNL     1      32.981 -23.576 -16.278  0.00  0.00    +0.261 C 
ATOM      6  C   UNL     1      30.674 -24.041 -15.899  0.00  0.00    +0.172 C 
ENDROOT
BRANCH   3   7
ATOM      7  N   UNL     1      32.185 -22.798 -12.627  0.00  0.00    +0.385 N 
ATOM      8  H   UNL     1      32.309 -23.474 -11.874  0.00  0.00    -0.089 HD
ATOM      9  H   UNL     1      31.321 -22.277 -12.478  0.00  0.00    -0.089 HD
ATOM     10  H   UNL     1      32.974 -22.151 -12.635  0.00  0.00    -0.089 HD
ENDBRANCH   3   7
BRANCH   4  11
ATOM     11  O   UNL     1      30.304 -22.029 -14.601  0.00  0.00    -0.384 OA
ATOM     12  H   UNL     1      30.602 -21.549 -13.812  0.00  0.00    +0.210 HD
ENDBRANCH   4  11
BRANCH   2  13
ATOM     13  O   UNL     1      34.479 -23.303 -14.432  0.00  0.00    -0.330 OA
BRANCH  13  15
ATOM     14  O   UNL     1      34.606 -24.726 -12.540  0.00  0.00    -0.330 OA
ATOM     15  C   UNL     1      34.531 -24.647 -13.965  0.00  0.00    +0.238 C 
ATOM     16  C   UNL     1      35.706 -25.372 -14.619  0.00  0.00    +0.093 C 
ATOM     17  C   UNL     1      37.036 -24.863 -14.063  0.00  0.00    +0.145 C 
ATOM     18  C   UNL     1      37.039 -24.927 -12.534  0.00  0.00    +0.164 C 
ATOM     19  C   UNL     1      35.814 -24.184 -11.986  0.00  0.00    +0.147 C 
ATOM     20  C   UNL     1      35.695 -24.277 -10.468  0.00  0.00    +0.035 C 
BRANCH  17  21
ATOM     21  O   UNL     1      38.113 -25.637 -14.578  0.00  0.00    -0.382 OA
ATOM     22  H   UNL     1      37.787 -26.210 -15.290  0.00  0.00    +0.210 HD
ENDBRANCH  17  21
BRANCH  18  23
ATOM     23  O   UNL     1      37.005 -26.297 -12.133  0.00  0.00    -0.380 OA
ATOM     24  H   UNL     1      36.275 -26.749 -12.586  0.00  0.00    +0.211 HD
ENDBRANCH  18  23
ENDBRANCH  13  15
ENDBRANCH   2  13
BRANCH   5  25
ATOM     25  O   UNL     1      33.891 -22.980 -17.203  0.00  0.00    -0.329 OA
BRANCH  25  26
ATOM     26  C   UNL     1      33.221 -22.506 -18.363  0.00  0.00    +0.145 C 
BRANCH  26  27
ATOM     27  C   UNL     1      34.200 -22.498 -19.528  0.00  0.00    +0.032 C 
BRANCH  27  28
ATOM     28  C   UNL     1      35.392 -21.581 -19.257  0.00  0.00    +0.003 C 
BRANCH  28  29
ATOM     29  C   UNL     1      35.563 -20.549 -20.374  0.00  0.00    +0.000 C 
BRANCH  29  30
ATOM     30  C   UNL     1      34.250 -19.878 -20.789  0.00  0.00    +0.000 C 
BRANCH  30  31
ATOM     31  C   UNL     1      34.443 -18.718 -21.769  0.00  0.00    +0.000 C 
BRANCH  31  32
ATOM     32  C   UNL     1      34.803 -19.227 -23.165  0.00  0.00    +0.000 C 
ATOM     33  C   UNL     1      35.030 -18.079 -24.136  0.00  0.00    +0.000 C 
ENDBRANCH  31  32
ENDBRANCH  30  31
ENDBRANCH  29  30
ENDBRANCH  28  29
ENDBRANCH  27  28
ENDBRANCH  26  27
ENDBRANCH  25  26
ENDBRANCH   5  25
BRANCH   6  34
ATOM     34  C   UNL     1      29.316 -23.900 -16.575  0.00  0.00    +0.169 C 
BRANCH  34  35
ATOM     35  O   UNL     1      29.222 -22.602 -17.136  0.00  0.00    -0.379 OA
ATOM     36  H   UNL     1      28.457 -22.141 -16.758  0.00  0.00    +0.211 HD
ENDBRANCH  34  35
ENDBRANCH   6  34
TORSDOF 16
ENDMDL
MODEL 4
REMARK VINA RESULT:      -8.4      1.783      5.510
REMARK  Name = 46937064
REMARK  16 active torsions:
REMARK  status: ('A' for Active; 'I' for Inactive)
REMARK    1  A    between atoms: C_2  and  O_13
REMARK    2  A    between atoms: C_3  and  N_7
REMARK    3  A    between atoms: C_4  and  O_11
REMARK    4  A    between atoms: C_5  and  O_25
REMARK    5  A    between atoms: C_6  and  C_34
REMARK    6  A    between atoms: O_13  and  C_15
REMARK    7  A    between atoms: C_17  and  O_21
REMARK    8  A    between atoms: C_18  and  O_23
REMARK    9  A    between atoms: O_25  and  C_26
REMARK   10  A    between atoms: C_26  and  C_27
REMARK   11  A    between atoms: C_27  and  C_28
REMARK   12  A    between atoms: C_28  and  C_29
REMARK   13  A    between atoms: C_29  and  C_30
REMARK   14  A    between atoms: C_30  and  C_31
REMARK   15  A    between atoms: C_31  and  C_32
REMARK   16  A    between atoms: C_34  and  O_35
REMARK                            x       y       z     vdW  Elec       q    Type
REMARK                         _______ _______ _______ _____ _____    ______ ____
ROOT
ATOM      1  O   UNL     1      36.009 -22.863 -17.104  0.00  0.00    -0.326 OA
ATOM      2  C   UNL     1      34.195 -23.700 -15.686  0.00  0.00    +0.157 C 
ATOM      3  C   UNL     1      35.149 -23.688 -14.484  0.00  0.00    -0.003 C 
ATOM      4  C   UNL     1      36.614 -23.786 -14.940  0.00  0.00    +0.123 C 
ATOM      5  C   UNL     1      34.643 -22.677 -16.739  0.00  0.00    +0.261 C 
ATOM      6  C   UNL     1      36.907 -22.714 -15.999  0.00  0.00    +0.172 C 
ENDROOT
BRANCH   3   7
ATOM      7  N   UNL     1      34.828 -24.772 -13.554  0.00  0.00    +0.385 N 
ATOM      8  H   UNL     1      34.341 -24.391 -12.743  0.00  0.00    -0.089 HD
ATOM      9  H   UNL     1      35.689 -25.227 -13.250  0.00  0.00    -0.089 HD
ATOM     10  H   UNL     1      34.230 -25.454 -14.020  0.00  0.00    -0.089 HD
ENDBRANCH   3   7
BRANCH   4  11
ATOM     11  O   UNL     1      36.882 -25.081 -15.481  0.00  0.00    -0.384 OA
ATOM     12  H   UNL     1      36.821 -25.046 -16.449  0.00  0.00    +0.210 HD
ENDBRANCH   4  11
BRANCH   2  13
ATOM     13  O   UNL     1      32.877 -23.347 -15.269  0.00  0.00    -0.330 OA
BRANCH  13  15
ATOM     14  O   UNL     1      30.831 -23.963 -16.296  0.00  0.00    -0.330 OA
ATOM     15  C   UNL     1      31.953 -24.399 -15.523  0.00  0.00    +0.238 C 
ATOM     16  C   UNL     1      31.503 -25.016 -14.200  0.00  0.00    +0.093 C 
ATOM     17  C   UNL     1      30.588 -24.059 -13.437  0.00  0.00    +0.145 C 
ATOM     18  C   UNL     1      29.435 -23.591 -14.328  0.00  0.00    +0.164 C 
ATOM     19  C   UNL     1      29.997 -23.004 -15.630  0.00  0.00    +0.147 C 
ATOM     20  C   UNL     1      28.907 -22.595 -16.614  0.00  0.00    +0.035 C 
BRANCH  17  21
ATOM     21  O   UNL     1      30.069 -24.696 -12.275  0.00  0.00    -0.382 OA
ATOM     22  H   UNL     1      30.793 -24.881 -11.657  0.00  0.00    +0.210 HD
ENDBRANCH  17  21
BRANCH  18  23
ATOM     23  O   UNL     1      28.595 -24.709 -14.614  0.00  0.00    -0.380 OA
ATOM     24  H   UNL     1      28.020 -24.886 -13.852  0.00  0.00    +0.211 HD
ENDBRANCH  18  23
ENDBRANCH  13  15
ENDBRANCH   2  13
BRANCH   5  25
ATOM     25  O   UNL     1      33.816 -22.779 -17.899  0.00  0.00    -0.329 OA
BRANCH  25  26
ATOM     26  C   UNL     1      34.573 -22.634 -19.093  0.00  0.00    +0.145 C 
BRANCH  26  27
ATOM     27  C   UNL     1      34.533 -21.177 -19.530  0.00  0.00    +0.032 C 
BRANCH  27  28
ATOM     28  C   UNL     1      33.135 -20.763 -19.985  0.00  0.00    +0.003 C 
BRANCH  28  29
ATOM     29  C   UNL     1      33.196 -19.584 -20.960  0.00  0.00    +0.000 C 
BRANCH  29  30
ATOM     30  C   UNL     1      34.615 -19.257 -21.432  0.00  0.00    +0.000 C 
BRANCH  30  31
ATOM     31  C   UNL     1      34.790 -19.354 -22.949  0.00  0.00    +0.000 C 
BRANCH  31  32
ATOM     32  C   UNL     1      35.047 -17.979 -23.566  0.00  0.00    +0.000 C 
ATOM     33  C   UNL     1      34.552 -17.910 -25.002  0.00  0.00    +0.000 C 
ENDBRANCH  31  32
ENDBRANCH  30  31
ENDBRANCH  29  30
ENDBRANCH  28  29
ENDBRANCH  27  28
ENDBRANCH  26  27
ENDBRANCH  25  26
ENDBRANCH   5  25
BRANCH   6  34
ATOM     34  C   UNL     1      38.326 -22.810 -16.546  0.00  0.00    +0.169 C 
BRANCH  34  35
ATOM     35  O   UNL     1      39.077 -23.670 -15.705  0.00  0.00    -0.379 OA
ATOM     36  H   UNL     1      39.669 -24.215 -16.247  0.00  0.00    +0.211 HD
ENDBRANCH  34  35
ENDBRANCH   6  34
TORSDOF 16
ENDMDL
MODEL 5
REMARK VINA RESULT:      -7.8     12.294     17.002
REMARK  Name = 46937064
REMARK  16 active torsions:
REMARK  status: ('A' for Active; 'I' for Inactive)
REMARK    1  A    between atoms: C_2  and  O_13
REMARK    2  A    between atoms: C_3  and  N_7
REMARK    3  A    between atoms: C_4  and  O_11
REMARK    4  A    between atoms: C_5  and  O_25
REMARK    5  A    between atoms: C_6  and  C_34
REMARK    6  A    between atoms: O_13  and  C_15
REMARK    7  A    between atoms: C_17  and  O_21
REMARK    8  A    between atoms: C_18  and  O_23
REMARK    9  A    between atoms: O_25  and  C_26
REMARK   10  A    between atoms: C_26  and  C_27
REMARK   11  A    between atoms: C_27  and  C_28
REMARK   12  A    between atoms: C_28  and  C_29
REMARK   13  A    between atoms: C_29  and  C_30
REMARK   14  A    between atoms: C_30  and  C_31
REMARK   15  A    between atoms: C_31  and  C_32
REMARK   16  A    between atoms: C_34  and  O_35
REMARK                            x       y       z     vdW  Elec       q    Type
REMARK                         _______ _______ _______ _____ _____    ______ ____
ROOT
ATOM      1  O   UNL     1      32.888 -10.648 -23.282  0.00  0.00    -0.326 OA
ATOM      2  C   UNL     1      33.350  -8.297 -22.767  0.00  0.00    +0.157 C 
ATOM      3  C   UNL     1      34.027  -8.147 -24.137  0.00  0.00    -0.003 C 
ATOM      4  C   UNL     1      34.531  -9.502 -24.656  0.00  0.00    +0.123 C 
ATOM      5  C   UNL     1      32.318  -9.432 -22.799  0.00  0.00    +0.261 C 
ATOM      6  C   UNL     1      33.396 -10.536 -24.615  0.00  0.00    +0.172 C 
ENDROOT
BRANCH   3   7
ATOM      7  N   UNL     1      35.126  -7.182 -24.070  0.00  0.00    +0.385 N 
ATOM      8  H   UNL     1      35.468  -6.991 -25.012  0.00  0.00    -0.089 HD
ATOM      9  H   UNL     1      35.883  -7.566 -23.504  0.00  0.00    -0.089 HD
ATOM     10  H   UNL     1      34.794  -6.315 -23.648  0.00  0.00    -0.089 HD
ENDBRANCH   3   7
BRANCH   4  11
ATOM     11  O   UNL     1      35.628  -9.963 -23.865  0.00  0.00    -0.384 OA
ATOM     12  H   UNL     1      36.126  -9.201 -23.527  0.00  0.00    +0.210 HD
ENDBRANCH   4  11
BRANCH   2  13
ATOM     13  O   UNL     1      32.663  -7.094 -22.426  0.00  0.00    -0.330 OA
BRANCH  13  15
ATOM     14  O   UNL     1      31.826  -6.488 -24.560  0.00  0.00    -0.330 OA
ATOM     15  C   UNL     1      31.504  -6.912 -23.233  0.00  0.00    +0.238 C 
ATOM     16  C   UNL     1      30.558  -5.923 -22.554  0.00  0.00    +0.093 C 
ATOM     17  C   UNL     1      31.125  -4.504 -22.607  0.00  0.00    +0.145 C 
ATOM     18  C   UNL     1      31.494  -4.126 -24.043  0.00  0.00    +0.164 C 
ATOM     19  C   UNL     1      32.431  -5.190 -24.630  0.00  0.00    +0.147 C 
ATOM     20  C   UNL     1      32.775  -4.932 -26.094  0.00  0.00    +0.035 C 
BRANCH  17  21
ATOM     21  O   UNL     1      30.176  -3.576 -22.095  0.00  0.00    -0.382 OA
ATOM     22  H   UNL     1      29.693  -3.982 -21.358  0.00  0.00    +0.210 HD
ENDBRANCH  17  21
BRANCH  18  23
ATOM     23  O   UNL     1      30.296  -4.043 -24.817  0.00  0.00    -0.380 OA
ATOM     24  H   UNL     1      29.794  -4.868 -24.725  0.00  0.00    +0.211 HD
ENDBRANCH  18  23
ENDBRANCH  13  15
ENDBRANCH   2  13
BRANCH   5  25
ATOM     25  O   UNL     1      31.779  -9.638 -21.493  0.00  0.00    -0.329 OA
BRANCH  25  26
ATOM     26  C   UNL     1      31.211 -10.934 -21.361  0.00  0.00    +0.145 C 
BRANCH  26  27
ATOM     27  C   UNL     1      31.430 -11.425 -19.937  0.00  0.00    +0.032 C 
BRANCH  27  28
ATOM     28  C   UNL     1      32.180 -12.755 -19.908  0.00  0.00    +0.003 C 
BRANCH  28  29
ATOM     29  C   UNL     1      32.218 -13.401 -21.296  0.00  0.00    +0.000 C 
BRANCH  29  30
ATOM     30  C   UNL     1      32.604 -14.882 -21.268  0.00  0.00    +0.000 C 
BRANCH  30  31
ATOM     31  C   UNL     1      33.964 -15.144 -20.617  0.00  0.00    +0.000 C 
BRANCH  31  32
ATOM     32  C   UNL     1      34.706 -16.279 -21.323  0.00  0.00    +0.000 C 
ATOM     33  C   UNL     1      34.892 -15.987 -22.804  0.00  0.00    +0.000 C 
ENDBRANCH  31  32
ENDBRANCH  30  31
ENDBRANCH  29  30
ENDBRANCH  28  29
ENDBRANCH  27  28
ENDBRANCH  26  27
ENDBRANCH  25  26
ENDBRANCH   5  25
BRANCH   6  34
ATOM     34  C   UNL     1      33.857 -11.922 -25.048  0.00  0.00    +0.169 C 
BRANCH  34  35
ATOM     35  O   UNL     1      34.233 -12.654 -23.894  0.00  0.00    -0.379 OA
ATOM     36  H   UNL     1      34.719 -13.451 -24.160  0.00  0.00    +0.211 HD
ENDBRANCH  34  35
ENDBRANCH   6  34
TORSDOF 16
ENDMDL
MODEL 6
REMARK VINA RESULT:      -7.6      7.195     11.166
REMARK  Name = 46937064
REMARK  16 active torsions:
REMARK  status: ('A' for Active; 'I' for Inactive)
REMARK    1  A    between atoms: C_2  and  O_13
REMARK    2  A    between atoms: C_3  and  N_7
REMARK    3  A    between atoms: C_4  and  O_11
REMARK    4  A    between atoms: C_5  and  O_25
REMARK    5  A    between atoms: C_6  and  C_34
REMARK    6  A    between atoms: O_13  and  C_15
REMARK    7  A    between atoms: C_17  and  O_21
REMARK    8  A    between atoms: C_18  and  O_23
REMARK    9  A    between atoms: O_25  and  C_26
REMARK   10  A    between atoms: C_26  and  C_27
REMARK   11  A    between atoms: C_27  and  C_28
REMARK   12  A    between atoms: C_28  and  C_29
REMARK   13  A    between atoms: C_29  and  C_30
REMARK   14  A    between atoms: C_30  and  C_31
REMARK   15  A    between atoms: C_31  and  C_32
REMARK   16  A    between atoms: C_34  and  O_35
REMARK                            x       y       z     vdW  Elec       q    Type
REMARK                         _______ _______ _______ _____ _____    ______ ____
ROOT
ATOM      1  O   UNL     1      33.076 -13.954 -24.255  0.00  0.00    -0.326 OA
ATOM      2  C   UNL     1      33.798 -16.214 -23.646  0.00  0.00    +0.157 C 
ATOM      3  C   UNL     1      34.475 -16.351 -25.017  0.00  0.00    -0.003 C 
ATOM      4  C   UNL     1      33.832 -15.409 -26.047  0.00  0.00    +0.123 C 
ATOM      5  C   UNL     1      33.700 -14.738 -23.239  0.00  0.00    +0.261 C 
ATOM      6  C   UNL     1      33.790 -13.977 -25.496  0.00  0.00    +0.172 C 
ENDROOT
BRANCH   3   7
ATOM      7  N   UNL     1      34.423 -17.737 -25.486  0.00  0.00    +0.385 N 
ATOM      8  H   UNL     1      33.636 -17.850 -26.125  0.00  0.00    -0.089 HD
ATOM      9  H   UNL     1      34.307 -18.362 -24.689  0.00  0.00    -0.089 HD
ATOM     10  H   UNL     1      35.291 -17.964 -25.973  0.00  0.00    -0.089 HD
ENDBRANCH   3   7
BRANCH   4  11
ATOM     11  O   UNL     1      32.506 -15.842 -26.358  0.00  0.00    -0.384 OA
ATOM     12  H   UNL     1      32.545 -16.584 -26.982  0.00  0.00    +0.210 HD
ENDBRANCH   4  11
BRANCH   2  13
ATOM     13  O   UNL     1      34.568 -16.889 -22.651  0.00  0.00    -0.330 OA
BRANCH  13  15
ATOM     14  O   UNL     1      33.858 -19.139 -22.418  0.00  0.00    -0.330 OA
ATOM     15  C   UNL     1      34.804 -18.246 -23.010  0.00  0.00    +0.238 C 
ATOM     16  C   UNL     1      36.234 -18.633 -22.637  0.00  0.00    +0.093 C 
ATOM     17  C   UNL     1      36.388 -18.745 -21.121  0.00  0.00    +0.145 C 
ATOM     18  C   UNL     1      35.321 -19.674 -20.538  0.00  0.00    +0.164 C 
ATOM     19  C   UNL     1      33.931 -19.204 -20.986  0.00  0.00    +0.147 C 
ATOM     20  C   UNL     1      32.814 -20.132 -20.520  0.00  0.00    +0.035 C 
BRANCH  17  21
ATOM     21  O   UNL     1      37.683 -19.237 -20.793  0.00  0.00    -0.382 OA
ATOM     22  H   UNL     1      38.337 -18.531 -20.915  0.00  0.00    +0.210 HD
ENDBRANCH  17  21
BRANCH  18  23
ATOM     23  O   UNL     1      35.566 -21.002 -21.005  0.00  0.00    -0.380 OA
ATOM     24  H   UNL     1      34.841 -21.583 -20.724  0.00  0.00    +0.211 HD
ENDBRANCH  18  23
ENDBRANCH  13  15
ENDBRANCH   2  13
BRANCH   5  25
ATOM     25  O   UNL     1      32.968 -14.616 -22.019  0.00  0.00    -0.329 OA
BRANCH  25  26
ATOM     26  C   UNL     1      32.208 -13.416 -21.984  0.00  0.00    +0.145 C 
BRANCH  26  27
ATOM     27  C   UNL     1      32.170 -12.897 -20.554  0.00  0.00    +0.032 C 
BRANCH  27  28
ATOM     28  C   UNL     1      31.467 -11.545 -20.462  0.00  0.00    +0.003 C 
BRANCH  28  29
ATOM     29  C   UNL     1      31.315 -10.904 -21.843  0.00  0.00    +0.000 C 
BRANCH  29  30
ATOM     30  C   UNL     1      31.715  -9.426 -21.876  0.00  0.00    +0.000 C 
BRANCH  30  31
ATOM     31  C   UNL     1      32.925  -9.143 -22.769  0.00  0.00    +0.000 C 
BRANCH  31  32
ATOM     32  C   UNL     1      33.201 -10.313 -23.715  0.00  0.00    +0.000 C 
ATOM     33  C   UNL     1      34.554 -10.173 -24.395  0.00  0.00    +0.000 C 
ENDBRANCH  31  32
ENDBRANCH  30  31
ENDBRANCH  29  30
ENDBRANCH  28  29
ENDBRANCH  27  28
ENDBRANCH  26  27
ENDBRANCH  25  26
ENDBRANCH   5  25
BRANCH   6  34
ATOM     34  C   UNL     1      33.092 -13.009 -26.444  0.00  0.00    +0.169 C 
BRANCH  34  35
ATOM     35  O   UNL     1      33.472 -13.325 -27.772  0.00  0.00    -0.379 OA
ATOM     36  H   UNL     1      32.981 -14.107 -28.072  0.00  0.00    +0.211 HD
ENDBRANCH  34  35
ENDBRANCH   6  34
TORSDOF 16
ENDMDL
MODEL 7
REMARK VINA RESULT:      -7.5      8.594     12.294
REMARK  Name = 46937064
REMARK  16 active torsions:
REMARK  status: ('A' for Active; 'I' for Inactive)
REMARK    1  A    between atoms: C_2  and  O_13
REMARK    2  A    between atoms: C_3  and  N_7
REMARK    3  A    between atoms: C_4  and  O_11
REMARK    4  A    between atoms: C_5  and  O_25
REMARK    5  A    between atoms: C_6  and  C_34
REMARK    6  A    between atoms: O_13  and  C_15
REMARK    7  A    between atoms: C_17  and  O_21
REMARK    8  A    between atoms: C_18  and  O_23
REMARK    9  A    between atoms: O_25  and  C_26
REMARK   10  A    between atoms: C_26  and  C_27
REMARK   11  A    between atoms: C_27  and  C_28
REMARK   12  A    between atoms: C_28  and  C_29
REMARK   13  A    between atoms: C_29  and  C_30
REMARK   14  A    between atoms: C_30  and  C_31
REMARK   15  A    between atoms: C_31  and  C_32
REMARK   16  A    between atoms: C_34  and  O_35
REMARK                            x       y       z     vdW  Elec       q    Type
REMARK                         _______ _______ _______ _____ _____    ______ ____
ROOT
ATOM      1  O   UNL     1      32.669 -11.696 -22.862  0.00  0.00    -0.326 OA
ATOM      2  C   UNL     1      33.248 -14.069 -22.664  0.00  0.00    +0.157 C 
ATOM      3  C   UNL     1      32.101 -14.249 -21.659  0.00  0.00    -0.003 C 
ATOM      4  C   UNL     1      31.754 -12.918 -20.973  0.00  0.00    +0.123 C 
ATOM      5  C   UNL     1      32.965 -12.883 -23.596  0.00  0.00    +0.261 C 
ATOM      6  C   UNL     1      31.513 -11.829 -22.028  0.00  0.00    +0.172 C 
ENDROOT
BRANCH   3   7
ATOM      7  N   UNL     1      32.438 -15.268 -20.664  0.00  0.00    +0.385 N 
ATOM      8  H   UNL     1      33.159 -15.884 -21.038  0.00  0.00    -0.089 HD
ATOM      9  H   UNL     1      31.606 -15.815 -20.441  0.00  0.00    -0.089 HD
ATOM     10  H   UNL     1      32.783 -14.816 -19.817  0.00  0.00    -0.089 HD
ENDBRANCH   3   7
BRANCH   4  11
ATOM     11  O   UNL     1      32.813 -12.517 -20.101  0.00  0.00    -0.384 OA
ATOM     12  H   UNL     1      33.166 -13.294 -19.640  0.00  0.00    +0.210 HD
ENDBRANCH   4  11
BRANCH   2  13
ATOM     13  O   UNL     1      33.377 -15.237 -23.473  0.00  0.00    -0.330 OA
BRANCH  13  15
ATOM     14  O   UNL     1      34.910 -16.663 -24.587  0.00  0.00    -0.330 OA
ATOM     15  C   UNL     1      34.743 -15.599 -23.647  0.00  0.00    +0.238 C 
ATOM     16  C   UNL     1      35.353 -15.961 -22.293  0.00  0.00    +0.093 C 
ATOM     17  C   UNL     1      34.804 -17.294 -21.789  0.00  0.00    +0.145 C 
ATOM     18  C   UNL     1      34.966 -18.381 -22.854  0.00  0.00    +0.164 C 
ATOM     19  C   UNL     1      34.334 -17.909 -24.170  0.00  0.00    +0.147 C 
ATOM     20  C   UNL     1      34.532 -18.902 -25.311  0.00  0.00    +0.035 C 
BRANCH  17  21
ATOM     21  O   UNL     1      35.477 -17.685 -20.598  0.00  0.00    -0.382 OA
ATOM     22  H   UNL     1      34.855 -18.139 -20.009  0.00  0.00    +0.210 HD
ENDBRANCH  17  21
BRANCH  18  23
ATOM     23  O   UNL     1      36.359 -18.635 -23.039  0.00  0.00    -0.380 OA
ATOM     24  H   UNL     1      36.565 -18.637 -23.988  0.00  0.00    +0.211 HD
ENDBRANCH  18  23
ENDBRANCH  13  15
ENDBRANCH   2  13
BRANCH   5  25
ATOM     25  O   UNL     1      34.088 -12.655 -24.449  0.00  0.00    -0.329 OA
BRANCH  25  26
ATOM     26  C   UNL     1      33.799 -11.681 -25.443  0.00  0.00    +0.145 C 
BRANCH  26  27
ATOM     27  C   UNL     1      34.943 -10.679 -25.499  0.00  0.00    +0.032 C 
BRANCH  27  28
ATOM     28  C   UNL     1      34.988  -9.804 -24.248  0.00  0.00    +0.003 C 
BRANCH  28  29
ATOM     29  C   UNL     1      34.732  -8.335 -24.589  0.00  0.00    +0.000 C 
BRANCH  29  30
ATOM     30  C   UNL     1      34.722  -7.417 -23.364  0.00  0.00    +0.000 C 
BRANCH  30  31
ATOM     31  C   UNL     1      33.513  -7.633 -22.451  0.00  0.00    +0.000 C 
BRANCH  31  32
ATOM     32  C   UNL     1      32.374  -6.676 -22.806  0.00  0.00    +0.000 C 
ATOM     33  C   UNL     1      31.271  -7.383 -23.577  0.00  0.00    +0.000 C 
ENDBRANCH  31  32
ENDBRANCH  30  31
ENDBRANCH  29  30
ENDBRANCH  28  29
ENDBRANCH  27  28
ENDBRANCH  26  27
ENDBRANCH  25  26
ENDBRANCH   5  25
BRANCH   6  34
ATOM     34  C   UNL     1      31.240 -10.466 -21.404  0.00  0.00    +0.169 C 
BRANCH  34  35
ATOM     35  O   UNL     1      30.774 -10.661 -20.079  0.00  0.00    -0.379 OA
ATOM     36  H   UNL     1      29.937 -11.152 -20.100  0.00  0.00    +0.211 HD
ENDBRANCH  34  35
ENDBRANCH   6  34
TORSDOF 16
ENDMDL
MODEL 8
REMARK VINA RESULT:      -7.5      9.384     14.238
REMARK  Name = 46937064
REMARK  16 active torsions:
REMARK  status: ('A' for Active; 'I' for Inactive)
REMARK    1  A    between atoms: C_2  and  O_13
REMARK    2  A    between atoms: C_3  and  N_7
REMARK    3  A    between atoms: C_4  and  O_11
REMARK    4  A    between atoms: C_5  and  O_25
REMARK    5  A    between atoms: C_6  and  C_34
REMARK    6  A    between atoms: O_13  and  C_15
REMARK    7  A    between atoms: C_17  and  O_21
REMARK    8  A    between atoms: C_18  and  O_23
REMARK    9  A    between atoms: O_25  and  C_26
REMARK   10  A    between atoms: C_26  and  C_27
REMARK   11  A    between atoms: C_27  and  C_28
REMARK   12  A    between atoms: C_28  and  C_29
REMARK   13  A    between atoms: C_29  and  C_30
REMARK   14  A    between atoms: C_30  and  C_31
REMARK   15  A    between atoms: C_31  and  C_32
REMARK   16  A    between atoms: C_34  and  O_35
REMARK                            x       y       z     vdW  Elec       q    Type
REMARK                         _______ _______ _______ _____ _____    ______ ____
ROOT
ATOM      1  O   UNL     1      33.042 -14.407 -24.549  0.00  0.00    -0.326 OA
ATOM      2  C   UNL     1      33.998 -12.189 -24.137  0.00  0.00    +0.157 C 
ATOM      3  C   UNL     1      33.634 -11.783 -25.572  0.00  0.00    -0.003 C 
ATOM      4  C   UNL     1      33.517 -13.016 -26.483  0.00  0.00    +0.123 C 
ATOM      5  C   UNL     1      33.069 -13.305 -23.642  0.00  0.00    +0.261 C 
ATOM      6  C   UNL     1      32.570 -14.046 -25.852  0.00  0.00    +0.172 C 
ENDROOT
BRANCH   3   7
ATOM      7  N   UNL     1      34.616 -10.839 -26.110  0.00  0.00    +0.385 N 
ATOM      8  H   UNL     1      35.556 -11.153 -25.870  0.00  0.00    -0.089 HD
ATOM      9  H   UNL     1      34.454  -9.914 -25.711  0.00  0.00    -0.089 HD
ATOM     10  H   UNL     1      34.523 -10.792 -27.125  0.00  0.00    -0.089 HD
ENDBRANCH   3   7
BRANCH   4  11
ATOM     11  O   UNL     1      34.801 -13.607 -26.689  0.00  0.00    -0.384 OA
ATOM     12  H   UNL     1      35.483 -12.916 -26.668  0.00  0.00    +0.210 HD
ENDBRANCH   4  11
BRANCH   2  13
ATOM     13  O   UNL     1      33.844 -11.074 -23.259  0.00  0.00    -0.330 OA
BRANCH  13  15
ATOM     14  O   UNL     1      32.797  -9.106 -24.066  0.00  0.00    -0.330 OA
ATOM     15  C   UNL     1      32.611 -10.400 -23.488  0.00  0.00    +0.238 C 
ATOM     16  C   UNL     1      31.826 -10.312 -22.180  0.00  0.00    +0.093 C 
ATOM     17  C   UNL     1      32.480  -9.318 -21.220  0.00  0.00    +0.145 C 
ATOM     18  C   UNL     1      32.696  -7.968 -21.908  0.00  0.00    +0.164 C 
ATOM     19  C   UNL     1      33.478  -8.175 -23.212  0.00  0.00    +0.147 C 
ATOM     20  C   UNL     1      33.658  -6.885 -24.005  0.00  0.00    +0.035 C 
BRANCH  17  21
ATOM     21  O   UNL     1      31.668  -9.144 -20.065  0.00  0.00    -0.382 OA
ATOM     22  H   UNL     1      30.837  -9.632 -20.178  0.00  0.00    +0.210 HD
ENDBRANCH  17  21
BRANCH  18  23
ATOM     23  O   UNL     1      31.421  -7.386 -22.184  0.00  0.00    -0.380 OA
ATOM     24  H   UNL     1      31.288  -7.340 -23.145  0.00  0.00    +0.211 HD
ENDBRANCH  18  23
ENDBRANCH  13  15
ENDBRANCH   2  13
BRANCH   5  25
ATOM     25  O   UNL     1      33.489 -13.753 -22.353  0.00  0.00    -0.329 OA
BRANCH  25  26
ATOM     26  C   UNL     1      32.437 -14.414 -21.662  0.00  0.00    +0.145 C 
BRANCH  26  27
ATOM     27  C   UNL     1      33.032 -15.522 -20.804  0.00  0.00    +0.032 C 
BRANCH  27  28
ATOM     28  C   UNL     1      34.552 -15.588 -20.941  0.00  0.00    +0.003 C 
BRANCH  28  29
ATOM     29  C   UNL     1      35.039 -17.037 -21.013  0.00  0.00    +0.000 C 
BRANCH  29  30
ATOM     30  C   UNL     1      34.825 -17.685 -22.383  0.00  0.00    +0.000 C 
BRANCH  30  31
ATOM     31  C   UNL     1      34.470 -19.172 -22.305  0.00  0.00    +0.000 C 
BRANCH  31  32
ATOM     32  C   UNL     1      34.273 -19.618 -20.855  0.00  0.00    +0.000 C 
ATOM     33  C   UNL     1      32.842 -20.061 -20.597  0.00  0.00    +0.000 C 
ENDBRANCH  31  32
ENDBRANCH  30  31
ENDBRANCH  29  30
ENDBRANCH  28  29
ENDBRANCH  27  28
ENDBRANCH  26  27
ENDBRANCH  25  26
ENDBRANCH   5  25
BRANCH   6  34
ATOM     34  C   UNL     1      32.473 -15.326 -26.674  0.00  0.00    +0.169 C 
BRANCH  34  35
ATOM     35  O   UNL     1      33.531 -16.189 -26.293  0.00  0.00    -0.379 OA
ATOM     36  H   UNL     1      34.355 -15.680 -26.225  0.00  0.00    +0.211 HD
ENDBRANCH  34  35
ENDBRANCH   6  34
TORSDOF 16
ENDMDL
MODEL 9
REMARK VINA RESULT:      -7.4      1.741      2.367
REMARK  Name = 46937064
REMARK  16 active torsions:
REMARK  status: ('A' for Active; 'I' for Inactive)
REMARK    1  A    between atoms: C_2  and  O_13
REMARK    2  A    between atoms: C_3  and  N_7
REMARK    3  A    between atoms: C_4  and  O_11
REMARK    4  A    between atoms: C_5  and  O_25
REMARK    5  A    between atoms: C_6  and  C_34
REMARK    6  A    between atoms: O_13  and  C_15
REMARK    7  A    between atoms: C_17  and  O_21
REMARK    8  A    between atoms: C_18  and  O_23
REMARK    9  A    between atoms: O_25  and  C_26
REMARK   10  A    between atoms: C_26  and  C_27
REMARK   11  A    between atoms: C_27  and  C_28
REMARK   12  A    between atoms: C_28  and  C_29
REMARK   13  A    between atoms: C_29  and  C_30
REMARK   14  A    between atoms: C_30  and  C_31
REMARK   15  A    between atoms: C_31  and  C_32
REMARK   16  A    between atoms: C_34  and  O_35
REMARK                            x       y       z     vdW  Elec       q    Type
REMARK                         _______ _______ _______ _____ _____    ______ ____
ROOT
ATOM      1  O   UNL     1      33.980 -22.709 -16.605  0.00  0.00    -0.326 OA
ATOM      2  C   UNL     1      35.555 -22.839 -14.733  0.00  0.00    +0.157 C 
ATOM      3  C   UNL     1      34.669 -23.910 -14.082  0.00  0.00    -0.003 C 
ATOM      4  C   UNL     1      33.217 -23.799 -14.573  0.00  0.00    +0.123 C 
ATOM      5  C   UNL     1      35.357 -22.830 -16.255  0.00  0.00    +0.261 C 
ATOM      6  C   UNL     1      33.180 -23.787 -16.108  0.00  0.00    +0.172 C 
ENDROOT
BRANCH   3   7
ATOM      7  N   UNL     1      34.726 -23.815 -12.622  0.00  0.00    +0.385 N 
ATOM      8  H   UNL     1      33.786 -23.916 -12.239  0.00  0.00    -0.089 HD
ATOM      9  H   UNL     1      35.107 -22.908 -12.355  0.00  0.00    -0.089 HD
ATOM     10  H   UNL     1      35.323 -24.556 -12.255  0.00  0.00    -0.089 HD
ENDBRANCH   3   7
BRANCH   4  11
ATOM     11  O   UNL     1      32.610 -22.608 -14.070  0.00  0.00    -0.384 OA
ATOM     12  H   UNL     1      33.214 -21.858 -14.196  0.00  0.00    +0.210 HD
ENDBRANCH   4  11
BRANCH   2  13
ATOM     13  O   UNL     1      36.930 -23.119 -14.475  0.00  0.00    -0.330 OA
BRANCH  13  15
ATOM     14  O   UNL     1      37.023 -25.419 -15.046  0.00  0.00    -0.330 OA
ATOM     15  C   UNL     1      37.440 -24.093 -15.380  0.00  0.00    +0.238 C 
ATOM     16  C   UNL     1      38.964 -23.993 -15.434  0.00  0.00    +0.093 C 
ATOM     17  C   UNL     1      39.589 -24.506 -14.137  0.00  0.00    +0.145 C 
ATOM     18  C   UNL     1      39.069 -25.907 -13.806  0.00  0.00    +0.164 C 
ATOM     19  C   UNL     1      37.534 -25.896 -13.793  0.00  0.00    +0.147 C 
ATOM     20  C   UNL     1      36.935 -27.278 -13.559  0.00  0.00    +0.035 C 
BRANCH  17  21
ATOM     21  O   UNL     1      41.006 -24.535 -14.252  0.00  0.00    -0.382 OA
ATOM     22  H   UNL     1      41.350 -25.327 -13.811  0.00  0.00    +0.210 HD
ENDBRANCH  17  21
BRANCH  18  23
ATOM     23  O   UNL     1      39.546 -26.818 -14.798  0.00  0.00    -0.380 OA
ATOM     24  H   UNL     1      39.333 -27.727 -14.532  0.00  0.00    +0.211 HD
ENDBRANCH  18  23
ENDBRANCH  13  15
ENDBRANCH   2  13
BRANCH   5  25
ATOM     25  O   UNL     1      36.098 -21.756 -16.836  0.00  0.00    -0.329 OA
BRANCH  25  26
ATOM     26  C   UNL     1      36.578 -22.093 -18.130  0.00  0.00    +0.145 C 
BRANCH  26  27
ATOM     27  C   UNL     1      36.156 -21.008 -19.111  0.00  0.00    +0.032 C 
BRANCH  27  28
ATOM     28  C   UNL     1      35.140 -21.529 -20.126  0.00  0.00    +0.003 C 
BRANCH  28  29
ATOM     29  C   UNL     1      33.706 -21.256 -19.665  0.00  0.00    +0.000 C 
BRANCH  29  30
ATOM     30  C   UNL     1      33.031 -20.111 -20.425  0.00  0.00    +0.000 C 
BRANCH  30  31
ATOM     31  C   UNL     1      33.859 -19.589 -21.601  0.00  0.00    +0.000 C 
BRANCH  31  32
ATOM     32  C   UNL     1      34.453 -18.214 -21.292  0.00  0.00    +0.000 C 
ATOM     33  C   UNL     1      35.950 -18.180 -21.561  0.00  0.00    +0.000 C 
ENDBRANCH  31  32
ENDBRANCH  30  31
ENDBRANCH  29  30
ENDBRANCH  28  29
ENDBRANCH  27  28
ENDBRANCH  26  27
ENDBRANCH  25  26
ENDBRANCH   5  25
BRANCH   6  34
ATOM     34  C   UNL     1      31.770 -23.602 -16.654  0.00  0.00    +0.169 C 
BRANCH  34  35
ATOM     35  O   UNL     1      31.698 -22.343 -17.301  0.00  0.00    -0.379 OA
ATOM     36  H   UNL     1      30.848 -22.265 -17.764  0.00  0.00    +0.211 HD
ENDBRANCH  34  35
ENDBRANCH   6  34
TORSDOF 16
ENDMDL
