MODEL 1
REMARK VINA RESULT:      -5.0      0.000      0.000
REMARK  Name = 134856
REMARK  2 active torsions:
REMARK  status: ('A' for Active; 'I' for Inactive)
REMARK    1  A    between atoms: CA_1  and  C_7
REMARK    2  A    between atoms: C_7  and  O_8
REMARK                            x       y       z     vdW  Elec       q    Type
REMARK                         _______ _______ _______ _____ _____    ______ ____
ROOT
ATOM      1  CA  ALA A   1      38.813 -25.594 -14.414  0.00  0.00    +0.107 C 
ATOM      2  CB  ALA A   1      38.623 -25.627 -13.087  0.00  0.00    +0.056 C 
ATOM      3  N   ALA A   1      37.835 -25.785 -15.346  0.00  0.00    -0.370 N 
ATOM      4  C   ACE A   0      36.454 -26.016 -15.009  0.00  0.00    +0.122 C 
ATOM      5  H   ALA A   1      38.086 -25.763 -16.297  0.00  0.00    +0.160 HD
ENDROOT
BRANCH   1   7
ATOM      6  OXT ALA A   1      41.018 -24.619 -14.316  0.00  0.00    -0.244 OA
ATOM      7  C   ALA A   1      40.201 -25.326 -14.884  0.00  0.00    +0.349 C 
BRANCH   7   8
ATOM      8  O   ALA A   1      40.449 -25.978 -16.046  0.00  0.00    -0.476 OA
ATOM      9  H   ALA A   1      41.021 -26.720 -16.054  0.00  0.00    +0.295 HD
ENDBRANCH   7   8
ENDBRANCH   1   7
TORSDOF 2
ENDMDL
MODEL 2
REMARK VINA RESULT:      -4.6      9.769     10.849
REMARK  Name = 134856
REMARK  2 active torsions:
REMARK  status: ('A' for Active; 'I' for Inactive)
REMARK    1  A    between atoms: CA_1  and  C_7
REMARK    2  A    between atoms: C_7  and  O_8
REMARK                            x       y       z     vdW  Elec       q    Type
REMARK                         _______ _______ _______ _____ _____    ______ ____
ROOT
ATOM      1  CA  ALA A   1      29.303 -23.252 -16.361  0.00  0.00    +0.107 C 
ATOM      2  CB  ALA A   1      29.156 -24.149 -15.375  0.00  0.00    +0.056 C 
ATOM      3  N   ALA A   1      30.499 -22.766 -16.801  0.00  0.00    -0.370 N 
ATOM      4  C   ACE A   0      31.769 -23.189 -16.271  0.00  0.00    +0.122 C 
ATOM      5  H   ALA A   1      30.493 -22.091 -17.517  0.00  0.00    +0.160 HD
ENDROOT
BRANCH   1   7
ATOM      6  OXT ALA A   1      27.597 -21.636 -16.914  0.00  0.00    -0.244 OA
ATOM      7  C   ALA A   1      28.054 -22.765 -17.011  0.00  0.00    +0.349 C 
BRANCH   7   8
ATOM      8  O   ALA A   1      27.475 -23.750 -17.738  0.00  0.00    -0.476 OA
ATOM      9  H   ALA A   1      27.645 -23.817 -18.657  0.00  0.00    +0.295 HD
ENDBRANCH   7   8
ENDBRANCH   1   7
TORSDOF 2
ENDMDL
MODEL 3
REMARK VINA RESULT:      -4.5     11.364     12.106
REMARK  Name = 134856
REMARK  2 active torsions:
REMARK  status: ('A' for Active; 'I' for Inactive)
REMARK    1  A    between atoms: CA_1  and  C_7
REMARK    2  A    between atoms: C_7  and  O_8
REMARK                            x       y       z     vdW  Elec       q    Type
REMARK                         _______ _______ _______ _____ _____    ______ ____
ROOT
ATOM      1  CA  ALA A   1      41.440 -14.135 -16.524  0.00  0.00    +0.107 C 
ATOM      2  CB  ALA A   1      41.244 -14.363 -17.831  0.00  0.00    +0.056 C 
ATOM      3  N   ALA A   1      42.096 -13.054 -16.012  0.00  0.00    -0.370 N 
ATOM      4  C   ACE A   0      42.635 -11.996 -16.825  0.00  0.00    +0.122 C 
ATOM      5  H   ALA A   1      42.206 -12.995 -15.036  0.00  0.00    +0.160 HD
ENDROOT
BRANCH   1   7
ATOM      6  OXT ALA A   1      40.767 -16.341 -15.814  0.00  0.00    -0.244 OA
ATOM      7  C   ALA A   1      40.893 -15.149 -15.581  0.00  0.00    +0.349 C 
BRANCH   7   8
ATOM      8  O   ALA A   1      40.544 -14.573 -14.405  0.00  0.00    -0.476 OA
ATOM      9  H   ALA A   1      41.207 -14.291 -13.806  0.00  0.00    +0.295 HD
ENDBRANCH   7   8
ENDBRANCH   1   7
TORSDOF 2
ENDMDL
MODEL 4
REMARK VINA RESULT:      -4.4      4.140      4.684
REMARK  Name = 134856
REMARK  2 active torsions:
REMARK  status: ('A' for Active; 'I' for Inactive)
REMARK    1  A    between atoms: CA_1  and  C_7
REMARK    2  A    between atoms: C_7  and  O_8
REMARK                            x       y       z     vdW  Elec       q    Type
REMARK                         _______ _______ _______ _____ _____    ______ ____
ROOT
ATOM      1  CA  ALA A   1      36.668 -25.076 -12.373  0.00  0.00    +0.107 C 
ATOM      2  CB  ALA A   1      37.891 -24.582 -12.130  0.00  0.00    +0.056 C 
ATOM      3  N   ALA A   1      36.371 -25.968 -13.361  0.00  0.00    -0.370 N 
ATOM      4  C   ACE A   0      37.357 -26.519 -14.254  0.00  0.00    +0.122 C 
ATOM      5  H   ALA A   1      35.434 -26.250 -13.469  0.00  0.00    +0.160 HD
ENDROOT
BRANCH   1   7
ATOM      6  OXT ALA A   1      35.315 -25.042 -10.375  0.00  0.00    -0.244 OA
ATOM      7  C   ALA A   1      35.568 -24.604 -11.487  0.00  0.00    +0.349 C 
BRANCH   7   8
ATOM      8  O   ALA A   1      34.868 -23.606 -12.079  0.00  0.00    -0.476 OA
ATOM      9  H   ALA A   1      33.980 -23.749 -12.340  0.00  0.00    +0.295 HD
ENDBRANCH   7   8
ENDBRANCH   1   7
TORSDOF 2
ENDMDL
MODEL 5
REMARK VINA RESULT:      -4.4      2.720      3.114
REMARK  Name = 134856
REMARK  2 active torsions:
REMARK  status: ('A' for Active; 'I' for Inactive)
REMARK    1  A    between atoms: CA_1  and  C_7
REMARK    2  A    between atoms: C_7  and  O_8
REMARK                            x       y       z     vdW  Elec       q    Type
REMARK                         _______ _______ _______ _____ _____    ______ ____
ROOT
ATOM      1  CA  ALA A   1      36.560 -25.406 -14.926  0.00  0.00    +0.107 C 
ATOM      2  CB  ALA A   1      37.310 -24.294 -14.943  0.00  0.00    +0.056 C 
ATOM      3  N   ALA A   1      35.220 -25.437 -14.676  0.00  0.00    -0.370 N 
ATOM      4  C   ACE A   0      34.432 -24.258 -14.427  0.00  0.00    +0.122 C 
ATOM      5  H   ALA A   1      34.768 -26.311 -14.664  0.00  0.00    +0.160 HD
ENDROOT
BRANCH   1   7
ATOM      6  OXT ALA A   1      38.175 -27.157 -14.543  0.00  0.00    -0.244 OA
ATOM      7  C   ALA A   1      37.262 -26.689 -15.206  0.00  0.00    +0.349 C 
BRANCH   7   8
ATOM      8  O   ALA A   1      36.753 -27.285 -16.311  0.00  0.00    -0.476 OA
ATOM      9  H   ALA A   1      36.705 -26.813 -17.118  0.00  0.00    +0.295 HD
ENDBRANCH   7   8
ENDBRANCH   1   7
TORSDOF 2
ENDMDL
MODEL 6
REMARK VINA RESULT:      -4.4      8.090      8.922
REMARK  Name = 134856
REMARK  2 active torsions:
REMARK  status: ('A' for Active; 'I' for Inactive)
REMARK    1  A    between atoms: CA_1  and  C_7
REMARK    2  A    between atoms: C_7  and  O_8
REMARK                            x       y       z     vdW  Elec       q    Type
REMARK                         _______ _______ _______ _____ _____    ______ ____
ROOT
ATOM      1  CA  ALA A   1      34.098 -20.685 -20.059  0.00  0.00    +0.107 C 
ATOM      2  CB  ALA A   1      32.926 -20.184 -20.476  0.00  0.00    +0.056 C 
ATOM      3  N   ALA A   1      35.319 -20.145 -20.335  0.00  0.00    -0.370 N 
ATOM      4  C   ACE A   0      35.496 -18.932 -21.092  0.00  0.00    +0.122 C 
ATOM      5  H   ALA A   1      36.120 -20.607 -20.000  0.00  0.00    +0.160 HD
ENDROOT
BRANCH   1   7
ATOM      6  OXT ALA A   1      35.000 -22.586 -18.877  0.00  0.00    -0.244 OA
ATOM      7  C   ALA A   1      34.038 -21.925 -19.235  0.00  0.00    +0.349 C 
BRANCH   7   8
ATOM      8  O   ALA A   1      32.756 -22.236 -18.927  0.00  0.00    -0.476 OA
ATOM      9  H   ALA A   1      32.563 -23.028 -18.465  0.00  0.00    +0.295 HD
ENDBRANCH   7   8
ENDBRANCH   1   7
TORSDOF 2
ENDMDL
MODEL 7
REMARK VINA RESULT:      -4.3     12.379     12.954
REMARK  Name = 134856
REMARK  2 active torsions:
REMARK  status: ('A' for Active; 'I' for Inactive)
REMARK    1  A    between atoms: CA_1  and  C_7
REMARK    2  A    between atoms: C_7  and  O_8
REMARK                            x       y       z     vdW  Elec       q    Type
REMARK                         _______ _______ _______ _____ _____    ______ ____
ROOT
ATOM      1  CA  ALA A   1      34.749 -18.198 -23.914  0.00  0.00    +0.107 C 
ATOM      2  CB  ALA A   1      34.592 -19.277 -24.695  0.00  0.00    +0.056 C 
ATOM      3  N   ALA A   1      34.694 -18.208 -22.552  0.00  0.00    -0.370 N 
ATOM      4  C   ACE A   0      34.489 -19.404 -21.776  0.00  0.00    +0.122 C 
ATOM      5  H   ALA A   1      34.800 -17.354 -22.074  0.00  0.00    +0.160 HD
ENDROOT
BRANCH   1   7
ATOM      6  OXT ALA A   1      34.754 -16.666 -25.779  0.00  0.00    -0.244 OA
ATOM      7  C   ALA A   1      35.003 -16.904 -24.607  0.00  0.00    +0.349 C 
BRANCH   7   8
ATOM      8  O   ALA A   1      35.558 -16.006 -23.759  0.00  0.00    -0.476 OA
ATOM      9  H   ALA A   1      35.057 -15.273 -23.458  0.00  0.00    +0.295 HD
ENDBRANCH   7   8
ENDBRANCH   1   7
TORSDOF 2
ENDMDL
MODEL 8
REMARK VINA RESULT:      -4.2      2.814      3.523
REMARK  Name = 134856
REMARK  2 active torsions:
REMARK  status: ('A' for Active; 'I' for Inactive)
REMARK    1  A    between atoms: CA_1  and  C_7
REMARK    2  A    between atoms: C_7  and  O_8
REMARK                            x       y       z     vdW  Elec       q    Type
REMARK                         _______ _______ _______ _____ _____    ______ ____
ROOT
ATOM      1  CA  ALA A   1      38.337 -25.788 -13.550  0.00  0.00    +0.107 C 
ATOM      2  CB  ALA A   1      37.605 -26.456 -14.453  0.00  0.00    +0.056 C 
ATOM      3  N   ALA A   1      39.603 -25.328 -13.759  0.00  0.00    -0.370 N 
ATOM      4  C   ACE A   0      40.305 -25.480 -15.007  0.00  0.00    +0.122 C 
ATOM      5  H   ALA A   1      40.062 -24.869 -13.019  0.00  0.00    +0.160 HD
ENDROOT
BRANCH   1   7
ATOM      6  OXT ALA A   1      37.962 -24.614 -11.475  0.00  0.00    -0.244 OA
ATOM      7  C   ALA A   1      37.699 -25.540 -12.226  0.00  0.00    +0.349 C 
BRANCH   7   8
ATOM      8  O   ALA A   1      36.772 -26.489 -11.953  0.00  0.00    -0.476 OA
ATOM      9  H   ALA A   1      36.818 -26.972 -11.152  0.00  0.00    +0.295 HD
ENDBRANCH   7   8
ENDBRANCH   1   7
TORSDOF 2
ENDMDL
MODEL 9
REMARK VINA RESULT:      -4.2     10.159     10.788
REMARK  Name = 134856
REMARK  2 active torsions:
REMARK  status: ('A' for Active; 'I' for Inactive)
REMARK    1  A    between atoms: CA_1  and  C_7
REMARK    2  A    between atoms: C_7  and  O_8
REMARK                            x       y       z     vdW  Elec       q    Type
REMARK                         _______ _______ _______ _____ _____    ______ ____
ROOT
ATOM      1  CA  ALA A   1      41.591 -15.325 -17.200  0.00  0.00    +0.107 C 
ATOM      2  CB  ALA A   1      41.272 -14.302 -18.005  0.00  0.00    +0.056 C 
ATOM      3  N   ALA A   1      41.504 -15.303 -15.839  0.00  0.00    -0.370 N 
ATOM      4  C   ACE A   0      41.020 -14.169 -15.095  0.00  0.00    +0.122 C 
ATOM      5  H   ALA A   1      41.786 -16.103 -15.340  0.00  0.00    +0.160 HD
ENDROOT
BRANCH   1   7
ATOM      6  OXT ALA A   1      42.563 -16.635 -18.979  0.00  0.00    -0.244 OA
ATOM      7  C   ALA A   1      42.073 -16.570 -17.862  0.00  0.00    +0.349 C 
BRANCH   7   8
ATOM      8  O   ALA A   1      41.895 -17.643 -17.055  0.00  0.00    -0.476 OA
ATOM      9  H   ALA A   1      42.567 -17.893 -16.452  0.00  0.00    +0.295 HD
ENDBRANCH   7   8
ENDBRANCH   1   7
TORSDOF 2
ENDMDL
