MODEL 1
REMARK VINA RESULT:      -4.6      0.000      0.000
REMARK  Name = 13847
REMARK  7 active torsions:
REMARK  status: ('A' for Active; 'I' for Inactive)
REMARK    1  A    between atoms: O_1  and  C_2
REMARK    2  A    between atoms: O_1  and  C_7
REMARK    3  A    between atoms: C_2  and  C_3
REMARK    4  A    between atoms: C_3  and  O_4
REMARK    5  A    between atoms: O_4  and  C_5
REMARK    6  A    between atoms: C_7  and  C_8
REMARK    7  A    between atoms: C_8  and  O_9
REMARK                            x       y       z     vdW  Elec       q    Type
REMARK                         _______ _______ _______ _____ _____    ______ ____
ROOT
ATOM      1  O   UNL     1      32.034 -22.646 -17.859  0.00  0.00    -0.348 OA
ENDROOT
BRANCH   1   2
ATOM      2  C   UNL     1      33.420 -22.642 -18.173  0.00  0.00    +0.174 C 
BRANCH   2   3
ATOM      3  C   UNL     1      33.653 -21.752 -19.378  0.00  0.00    +0.174 C 
BRANCH   3   4
ATOM      4  O   UNL     1      32.578 -20.827 -19.488  0.00  0.00    -0.351 OA
BRANCH   4   5
ATOM      5  C   UNL     1      32.752 -19.953 -20.594  0.00  0.00    +0.142 C 
ATOM      6  C   UNL     1      34.233 -19.757 -20.838  0.00  0.00    +0.035 C 
ENDBRANCH   4   5
ENDBRANCH   3   4
ENDBRANCH   2   3
ENDBRANCH   1   2
BRANCH   1   7
ATOM      7  C   UNL     1      31.785 -23.270 -16.606  0.00  0.00    +0.174 C 
BRANCH   7   8
ATOM      8  C   UNL     1      30.509 -22.702 -16.016  0.00  0.00    +0.174 C 
BRANCH   8   9
ATOM      9  O   UNL     1      29.607 -22.392 -17.071  0.00  0.00    -0.348 OA
ATOM     10  C   UNL     1      28.415 -23.160 -16.980  0.00  0.00    +0.174 C 
ENDBRANCH   8   9
ENDBRANCH   7   8
ENDBRANCH   1   7
TORSDOF 7
ENDMDL
MODEL 2
REMARK VINA RESULT:      -4.6      5.374      8.813
REMARK  Name = 13847
REMARK  7 active torsions:
REMARK  status: ('A' for Active; 'I' for Inactive)
REMARK    1  A    between atoms: O_1  and  C_2
REMARK    2  A    between atoms: O_1  and  C_7
REMARK    3  A    between atoms: C_2  and  C_3
REMARK    4  A    between atoms: C_3  and  O_4
REMARK    5  A    between atoms: O_4  and  C_5
REMARK    6  A    between atoms: C_7  and  C_8
REMARK    7  A    between atoms: C_8  and  O_9
REMARK                            x       y       z     vdW  Elec       q    Type
REMARK                         _______ _______ _______ _____ _____    ______ ____
ROOT
ATOM      1  O   UNL     1      34.987 -15.374 -23.026  0.00  0.00    -0.348 OA
ENDROOT
BRANCH   1   2
ATOM      2  C   UNL     1      35.287 -16.724 -22.703  0.00  0.00    +0.174 C 
BRANCH   2   3
ATOM      3  C   UNL     1      34.763 -17.029 -21.312  0.00  0.00    +0.174 C 
BRANCH   3   4
ATOM      4  O   UNL     1      35.591 -18.018 -20.710  0.00  0.00    -0.351 OA
BRANCH   4   5
ATOM      5  C   UNL     1      35.289 -19.318 -21.199  0.00  0.00    +0.142 C 
ATOM      6  C   UNL     1      33.860 -19.661 -20.837  0.00  0.00    +0.035 C 
ENDBRANCH   4   5
ENDBRANCH   3   4
ENDBRANCH   2   3
ENDBRANCH   1   2
BRANCH   1   7
ATOM      7  C   UNL     1      34.018 -15.289 -24.063  0.00  0.00    +0.174 C 
BRANCH   7   8
ATOM      8  C   UNL     1      34.268 -16.398 -25.066  0.00  0.00    +0.174 C 
BRANCH   8   9
ATOM      9  O   UNL     1      33.639 -16.062 -26.296  0.00  0.00    -0.348 OA
ATOM     10  C   UNL     1      32.932 -14.832 -26.202  0.00  0.00    +0.174 C 
ENDBRANCH   8   9
ENDBRANCH   7   8
ENDBRANCH   1   7
TORSDOF 7
ENDMDL
MODEL 3
REMARK VINA RESULT:      -4.6      7.104      8.925
REMARK  Name = 13847
REMARK  7 active torsions:
REMARK  status: ('A' for Active; 'I' for Inactive)
REMARK    1  A    between atoms: O_1  and  C_2
REMARK    2  A    between atoms: O_1  and  C_7
REMARK    3  A    between atoms: C_2  and  C_3
REMARK    4  A    between atoms: C_3  and  O_4
REMARK    5  A    between atoms: O_4  and  C_5
REMARK    6  A    between atoms: C_7  and  C_8
REMARK    7  A    between atoms: C_8  and  O_9
REMARK                            x       y       z     vdW  Elec       q    Type
REMARK                         _______ _______ _______ _____ _____    ______ ____
ROOT
ATOM      1  O   UNL     1      35.174 -17.935 -23.598  0.00  0.00    -0.348 OA
ENDROOT
BRANCH   1   2
ATOM      2  C   UNL     1      35.208 -16.787 -22.762  0.00  0.00    +0.174 C 
BRANCH   2   3
ATOM      3  C   UNL     1      35.037 -17.219 -21.319  0.00  0.00    +0.174 C 
BRANCH   3   4
ATOM      4  O   UNL     1      35.032 -16.066 -20.485  0.00  0.00    -0.351 OA
BRANCH   4   5
ATOM      5  C   UNL     1      34.290 -15.005 -21.068  0.00  0.00    +0.142 C 
ATOM      6  C   UNL     1      32.914 -14.962 -20.439  0.00  0.00    +0.035 C 
ENDBRANCH   4   5
ENDBRANCH   3   4
ENDBRANCH   2   3
ENDBRANCH   1   2
BRANCH   1   7
ATOM      7  C   UNL     1      34.705 -17.617 -24.902  0.00  0.00    +0.174 C 
BRANCH   7   8
ATOM      8  C   UNL     1      34.104 -16.225 -24.886  0.00  0.00    +0.174 C 
BRANCH   8   9
ATOM      9  O   UNL     1      33.851 -15.813 -26.224  0.00  0.00    -0.348 OA
ATOM     10  C   UNL     1      32.909 -14.750 -26.273  0.00  0.00    +0.174 C 
ENDBRANCH   8   9
ENDBRANCH   7   8
ENDBRANCH   1   7
TORSDOF 7
ENDMDL
MODEL 4
REMARK VINA RESULT:      -4.5      3.190      5.507
REMARK  Name = 13847
REMARK  7 active torsions:
REMARK  status: ('A' for Active; 'I' for Inactive)
REMARK    1  A    between atoms: O_1  and  C_2
REMARK    2  A    between atoms: O_1  and  C_7
REMARK    3  A    between atoms: C_2  and  C_3
REMARK    4  A    between atoms: C_3  and  O_4
REMARK    5  A    between atoms: O_4  and  C_5
REMARK    6  A    between atoms: C_7  and  C_8
REMARK    7  A    between atoms: C_8  and  O_9
REMARK                            x       y       z     vdW  Elec       q    Type
REMARK                         _______ _______ _______ _____ _____    ______ ____
ROOT
ATOM      1  O   UNL     1      35.379 -18.789 -20.614  0.00  0.00    -0.348 OA
ENDROOT
BRANCH   1   2
ATOM      2  C   UNL     1      35.429 -18.326 -21.956  0.00  0.00    +0.174 C 
BRANCH   2   3
ATOM      3  C   UNL     1      35.009 -16.869 -21.993  0.00  0.00    +0.174 C 
BRANCH   3   4
ATOM      4  O   UNL     1      35.032 -16.345 -20.671  0.00  0.00    -0.351 OA
BRANCH   4   5
ATOM      5  C   UNL     1      34.466 -15.043 -20.616  0.00  0.00    +0.142 C 
ATOM      6  C   UNL     1      32.957 -15.162 -20.616  0.00  0.00    +0.035 C 
ENDBRANCH   4   5
ENDBRANCH   3   4
ENDBRANCH   2   3
ENDBRANCH   1   2
BRANCH   1   7
ATOM      7  C   UNL     1      34.786 -20.079 -20.530  0.00  0.00    +0.174 C 
BRANCH   7   8
ATOM      8  C   UNL     1      33.280 -19.938 -20.639  0.00  0.00    +0.174 C 
BRANCH   8   9
ATOM      9  O   UNL     1      32.665 -20.744 -19.641  0.00  0.00    -0.348 OA
ATOM     10  C   UNL     1      33.490 -21.841 -19.275  0.00  0.00    +0.174 C 
ENDBRANCH   8   9
ENDBRANCH   7   8
ENDBRANCH   1   7
TORSDOF 7
ENDMDL
MODEL 5
REMARK VINA RESULT:      -4.5      6.631      8.972
REMARK  Name = 13847
REMARK  7 active torsions:
REMARK  status: ('A' for Active; 'I' for Inactive)
REMARK    1  A    between atoms: O_1  and  C_2
REMARK    2  A    between atoms: O_1  and  C_7
REMARK    3  A    between atoms: C_2  and  C_3
REMARK    4  A    between atoms: C_3  and  O_4
REMARK    5  A    between atoms: O_4  and  C_5
REMARK    6  A    between atoms: C_7  and  C_8
REMARK    7  A    between atoms: C_8  and  O_9
REMARK                            x       y       z     vdW  Elec       q    Type
REMARK                         _______ _______ _______ _____ _____    ______ ____
ROOT
ATOM      1  O   UNL     1      35.002 -15.377 -23.187  0.00  0.00    -0.348 OA
ENDROOT
BRANCH   1   2
ATOM      2  C   UNL     1      33.886 -15.368 -24.065  0.00  0.00    +0.174 C 
BRANCH   2   3
ATOM      3  C   UNL     1      34.193 -16.241 -25.266  0.00  0.00    +0.174 C 
BRANCH   3   4
ATOM      4  O   UNL     1      33.629 -15.646 -26.429  0.00  0.00    -0.351 OA
BRANCH   4   5
ATOM      5  C   UNL     1      32.922 -14.455 -26.115  0.00  0.00    +0.142 C 
ATOM      6  C   UNL     1      33.284 -13.386 -27.124  0.00  0.00    +0.035 C 
ENDBRANCH   4   5
ENDBRANCH   3   4
ENDBRANCH   2   3
ENDBRANCH   1   2
BRANCH   1   7
ATOM      7  C   UNL     1      34.595 -15.328 -21.825  0.00  0.00    +0.174 C 
BRANCH   7   8
ATOM      8  C   UNL     1      34.236 -16.728 -21.366  0.00  0.00    +0.174 C 
BRANCH   8   9
ATOM      9  O   UNL     1      35.338 -17.280 -20.656  0.00  0.00    -0.348 OA
ATOM     10  C   UNL     1      35.827 -18.456 -21.284  0.00  0.00    +0.174 C 
ENDBRANCH   8   9
ENDBRANCH   7   8
ENDBRANCH   1   7
TORSDOF 7
ENDMDL
MODEL 6
REMARK VINA RESULT:      -4.4      5.514      7.135
REMARK  Name = 13847
REMARK  7 active torsions:
REMARK  status: ('A' for Active; 'I' for Inactive)
REMARK    1  A    between atoms: O_1  and  C_2
REMARK    2  A    between atoms: O_1  and  C_7
REMARK    3  A    between atoms: C_2  and  C_3
REMARK    4  A    between atoms: C_3  and  O_4
REMARK    5  A    between atoms: O_4  and  C_5
REMARK    6  A    between atoms: C_7  and  C_8
REMARK    7  A    between atoms: C_8  and  O_9
REMARK                            x       y       z     vdW  Elec       q    Type
REMARK                         _______ _______ _______ _____ _____    ______ ____
ROOT
ATOM      1  O   UNL     1      35.913 -25.788 -15.644  0.00  0.00    -0.348 OA
ENDROOT
BRANCH   1   2
ATOM      2  C   UNL     1      35.983 -24.617 -14.842  0.00  0.00    +0.174 C 
BRANCH   2   3
ATOM      3  C   UNL     1      34.872 -23.669 -15.253  0.00  0.00    +0.174 C 
BRANCH   3   4
ATOM      4  O   UNL     1      34.875 -23.535 -16.669  0.00  0.00    -0.351 OA
BRANCH   4   5
ATOM      5  C   UNL     1      33.566 -23.314 -17.174  0.00  0.00    +0.142 C 
ATOM      6  C   UNL     1      33.665 -22.603 -18.507  0.00  0.00    +0.035 C 
ENDBRANCH   4   5
ENDBRANCH   3   4
ENDBRANCH   2   3
ENDBRANCH   1   2
BRANCH   1   7
ATOM      7  C   UNL     1      36.886 -26.747 -15.251  0.00  0.00    +0.174 C 
BRANCH   7   8
ATOM      8  C   UNL     1      37.965 -26.055 -14.441  0.00  0.00    +0.174 C 
BRANCH   8   9
ATOM      9  O   UNL     1      39.221 -26.656 -14.731  0.00  0.00    -0.348 OA
ATOM     10  C   UNL     1      40.270 -25.697 -14.730  0.00  0.00    +0.174 C 
ENDBRANCH   8   9
ENDBRANCH   7   8
ENDBRANCH   1   7
TORSDOF 7
ENDMDL
MODEL 7
REMARK VINA RESULT:      -4.4      7.045      8.493
REMARK  Name = 13847
REMARK  7 active torsions:
REMARK  status: ('A' for Active; 'I' for Inactive)
REMARK    1  A    between atoms: O_1  and  C_2
REMARK    2  A    between atoms: O_1  and  C_7
REMARK    3  A    between atoms: C_2  and  C_3
REMARK    4  A    between atoms: C_3  and  O_4
REMARK    5  A    between atoms: O_4  and  C_5
REMARK    6  A    between atoms: C_7  and  C_8
REMARK    7  A    between atoms: C_8  and  O_9
REMARK                            x       y       z     vdW  Elec       q    Type
REMARK                         _______ _______ _______ _____ _____    ______ ____
ROOT
ATOM      1  O   UNL     1      35.554 -24.996 -14.152  0.00  0.00    -0.348 OA
ENDROOT
BRANCH   1   2
ATOM      2  C   UNL     1      36.737 -25.143 -14.923  0.00  0.00    +0.174 C 
BRANCH   2   3
ATOM      3  C   UNL     1      37.006 -26.620 -15.142  0.00  0.00    +0.174 C 
BRANCH   3   4
ATOM      4  O   UNL     1      38.271 -26.950 -14.581  0.00  0.00    -0.351 OA
BRANCH   4   5
ATOM      5  C   UNL     1      38.945 -25.796 -14.100  0.00  0.00    +0.142 C 
ATOM      6  C   UNL     1      40.386 -25.838 -14.563  0.00  0.00    +0.035 C 
ENDBRANCH   4   5
ENDBRANCH   3   4
ENDBRANCH   2   3
ENDBRANCH   1   2
BRANCH   1   7
ATOM      7  C   UNL     1      35.741 -24.083 -13.079  0.00  0.00    +0.174 C 
BRANCH   7   8
ATOM      8  C   UNL     1      36.081 -24.860 -11.822  0.00  0.00    +0.174 C 
BRANCH   8   9
ATOM      9  O   UNL     1      37.109 -24.175 -11.117  0.00  0.00    -0.348 OA
ATOM     10  C   UNL     1      37.462 -22.958 -11.760  0.00  0.00    +0.174 C 
ENDBRANCH   8   9
ENDBRANCH   7   8
ENDBRANCH   1   7
TORSDOF 7
ENDMDL
MODEL 8
REMARK VINA RESULT:      -4.3      3.139      4.261
REMARK  Name = 13847
REMARK  7 active torsions:
REMARK  status: ('A' for Active; 'I' for Inactive)
REMARK    1  A    between atoms: O_1  and  C_2
REMARK    2  A    between atoms: O_1  and  C_7
REMARK    3  A    between atoms: C_2  and  C_3
REMARK    4  A    between atoms: C_3  and  O_4
REMARK    5  A    between atoms: O_4  and  C_5
REMARK    6  A    between atoms: C_7  and  C_8
REMARK    7  A    between atoms: C_8  and  O_9
REMARK                            x       y       z     vdW  Elec       q    Type
REMARK                         _______ _______ _______ _____ _____    ______ ____
ROOT
ATOM      1  O   UNL     1      34.450 -23.768 -17.038  0.00  0.00    -0.348 OA
ENDROOT
BRANCH   1   2
ATOM      2  C   UNL     1      33.345 -23.146 -17.679  0.00  0.00    +0.174 C 
BRANCH   2   3
ATOM      3  C   UNL     1      33.825 -22.477 -18.953  0.00  0.00    +0.174 C 
BRANCH   3   4
ATOM      4  O   UNL     1      32.754 -21.728 -19.516  0.00  0.00    -0.351 OA
BRANCH   4   5
ATOM      5  C   UNL     1      33.231 -20.606 -20.246  0.00  0.00    +0.142 C 
ATOM      6  C   UNL     1      34.744 -20.611 -20.224  0.00  0.00    +0.035 C 
ENDBRANCH   4   5
ENDBRANCH   3   4
ENDBRANCH   2   3
ENDBRANCH   1   2
BRANCH   1   7
ATOM      7  C   UNL     1      34.459 -23.502 -15.641  0.00  0.00    +0.174 C 
BRANCH   7   8
ATOM      8  C   UNL     1      35.579 -24.293 -14.993  0.00  0.00    +0.174 C 
BRANCH   8   9
ATOM      9  O   UNL     1      35.696 -25.551 -15.648  0.00  0.00    -0.348 OA
ATOM     10  C   UNL     1      36.748 -26.330 -15.095  0.00  0.00    +0.174 C 
ENDBRANCH   8   9
ENDBRANCH   7   8
ENDBRANCH   1   7
TORSDOF 7
ENDMDL
MODEL 9
REMARK VINA RESULT:      -4.3      4.296      4.959
REMARK  Name = 13847
REMARK  7 active torsions:
REMARK  status: ('A' for Active; 'I' for Inactive)
REMARK    1  A    between atoms: O_1  and  C_2
REMARK    2  A    between atoms: O_1  and  C_7
REMARK    3  A    between atoms: C_2  and  C_3
REMARK    4  A    between atoms: C_3  and  O_4
REMARK    5  A    between atoms: O_4  and  C_5
REMARK    6  A    between atoms: C_7  and  C_8
REMARK    7  A    between atoms: C_8  and  O_9
REMARK                            x       y       z     vdW  Elec       q    Type
REMARK                         _______ _______ _______ _____ _____    ______ ____
ROOT
ATOM      1  O   UNL     1      35.629 -22.363 -18.030  0.00  0.00    -0.348 OA
ENDROOT
BRANCH   1   2
ATOM      2  C   UNL     1      35.266 -21.754 -19.261  0.00  0.00    +0.174 C 
BRANCH   2   3
ATOM      3  C   UNL     1      36.430 -20.921 -19.763  0.00  0.00    +0.174 C 
BRANCH   3   4
ATOM      4  O   UNL     1      35.928 -19.714 -20.327  0.00  0.00    -0.351 OA
BRANCH   4   5
ATOM      5  C   UNL     1      34.582 -19.860 -20.757  0.00  0.00    +0.142 C 
ATOM      6  C   UNL     1      34.455 -19.329 -22.168  0.00  0.00    +0.035 C 
ENDBRANCH   4   5
ENDBRANCH   3   4
ENDBRANCH   2   3
ENDBRANCH   1   2
BRANCH   1   7
ATOM      7  C   UNL     1      36.800 -21.772 -17.481  0.00  0.00    +0.174 C 
BRANCH   7   8
ATOM      8  C   UNL     1      37.024 -22.322 -16.086  0.00  0.00    +0.174 C 
BRANCH   8   9
ATOM      9  O   UNL     1      36.413 -23.602 -15.988  0.00  0.00    -0.348 OA
ATOM     10  C   UNL     1      37.095 -24.436 -15.061  0.00  0.00    +0.174 C 
ENDBRANCH   8   9
ENDBRANCH   7   8
ENDBRANCH   1   7
TORSDOF 7
ENDMDL
