MODEL 1
REMARK VINA RESULT:      -6.3      0.000      0.000
REMARK  Name = 8768
REMARK  3 active torsions:
REMARK  status: ('A' for Active; 'I' for Inactive)
REMARK    1  A    between atoms: C_1  and  C_12
REMARK    2  A    between atoms: C_2  and  O_7
REMARK    3  A    between atoms: C_4  and  O_9
REMARK                            x       y       z     vdW  Elec       q    Type
REMARK                         _______ _______ _______ _____ _____    ______ ____
ROOT
ATOM      1  C   UNL     1      35.196 -19.557 -21.002  0.00  0.00    +0.045 C 
ATOM      2  C   UNL     1      34.906 -21.427 -19.501  0.00  0.00    +0.168 C 
ATOM      3  C   UNL     1      35.743 -20.568 -20.211  0.00  0.00    +0.043 C 
ATOM      4  C   UNL     1      33.522 -21.278 -19.581  0.00  0.00    +0.167 C 
ATOM      5  C   UNL     1      33.812 -19.408 -21.083  0.00  0.00    +0.007 C 
ATOM      6  C   UNL     1      32.974 -20.267 -20.373  0.00  0.00    +0.040 C 
ENDROOT
BRANCH   2   7
ATOM      7  O   UNL     1      35.452 -22.410 -18.731  0.00  0.00    -0.503 OA
ATOM      8  H   UNL     1      35.085 -23.272 -18.742  0.00  0.00    +0.292 HD
ENDBRANCH   2   7
BRANCH   4   9
ATOM      9  O   UNL     1      32.694 -22.111 -18.892  0.00  0.00    -0.503 OA
ATOM     10  H   UNL     1      32.260 -21.807 -18.119  0.00  0.00    +0.292 HD
ENDBRANCH   4   9
BRANCH   1  12
ATOM     11  O   UNL     1      35.827 -18.284 -22.894  0.00  0.00    -0.283 OA
ATOM     12  C   UNL     1      36.069 -18.661 -21.744  0.00  0.00    +0.234 C 
ENDBRANCH   1  12
TORSDOF 3
ENDMDL
MODEL 2
REMARK VINA RESULT:      -6.1      2.724      5.488
REMARK  Name = 8768
REMARK  3 active torsions:
REMARK  status: ('A' for Active; 'I' for Inactive)
REMARK    1  A    between atoms: C_1  and  C_12
REMARK    2  A    between atoms: C_2  and  O_7
REMARK    3  A    between atoms: C_4  and  O_9
REMARK                            x       y       z     vdW  Elec       q    Type
REMARK                         _______ _______ _______ _____ _____    ______ ____
ROOT
ATOM      1  C   UNL     1      35.098 -18.654 -22.359  0.00  0.00    +0.045 C 
ATOM      2  C   UNL     1      34.963 -16.529 -23.500  0.00  0.00    +0.168 C 
ATOM      3  C   UNL     1      35.171 -17.261 -22.331  0.00  0.00    +0.043 C 
ATOM      4  C   UNL     1      34.682 -17.189 -24.696  0.00  0.00    +0.167 C 
ATOM      5  C   UNL     1      34.816 -19.314 -23.555  0.00  0.00    +0.007 C 
ATOM      6  C   UNL     1      34.608 -18.582 -24.724  0.00  0.00    +0.040 C 
ENDROOT
BRANCH   2   7
ATOM      7  O   UNL     1      35.038 -15.169 -23.461  0.00  0.00    -0.503 OA
ATOM      8  H   UNL     1      34.258 -14.655 -23.541  0.00  0.00    +0.292 HD
ENDBRANCH   2   7
BRANCH   4   9
ATOM      9  O   UNL     1      34.478 -16.484 -25.843  0.00  0.00    -0.503 OA
ATOM     10  H   UNL     1      35.209 -16.207 -26.360  0.00  0.00    +0.292 HD
ENDBRANCH   4   9
BRANCH   1  12
ATOM     11  O   UNL     1      36.286 -19.244 -20.400  0.00  0.00    -0.283 OA
ATOM     12  C   UNL     1      35.314 -19.418 -21.140  0.00  0.00    +0.234 C 
ENDBRANCH   1  12
TORSDOF 3
ENDMDL
MODEL 3
REMARK VINA RESULT:      -6.0      8.036      8.897
REMARK  Name = 8768
REMARK  3 active torsions:
REMARK  status: ('A' for Active; 'I' for Inactive)
REMARK    1  A    between atoms: C_1  and  C_12
REMARK    2  A    between atoms: C_2  and  O_7
REMARK    3  A    between atoms: C_4  and  O_9
REMARK                            x       y       z     vdW  Elec       q    Type
REMARK                         _______ _______ _______ _____ _____    ______ ____
ROOT
ATOM      1  C   UNL     1      37.231 -24.229 -13.140  0.00  0.00    +0.045 C 
ATOM      2  C   UNL     1      38.181 -26.051 -14.411  0.00  0.00    +0.168 C 
ATOM      3  C   UNL     1      38.301 -25.081 -13.417  0.00  0.00    +0.043 C 
ATOM      4  C   UNL     1      36.992 -26.170 -15.130  0.00  0.00    +0.167 C 
ATOM      5  C   UNL     1      36.043 -24.347 -13.860  0.00  0.00    +0.007 C 
ATOM      6  C   UNL     1      35.922 -25.317 -14.855  0.00  0.00    +0.040 C 
ENDROOT
BRANCH   2   7
ATOM      7  O   UNL     1      39.233 -26.878 -14.672  0.00  0.00    -0.503 OA
ATOM      8  H   UNL     1      39.592 -27.408 -13.988  0.00  0.00    +0.292 HD
ENDBRANCH   2   7
BRANCH   4   9
ATOM      9  O   UNL     1      36.863 -27.113 -16.104  0.00  0.00    -0.503 OA
ATOM     10  H   UNL     1      36.012 -27.412 -16.357  0.00  0.00    +0.292 HD
ENDBRANCH   4   9
BRANCH   1  12
ATOM     11  O   UNL     1      38.443 -22.864 -11.636  0.00  0.00    -0.283 OA
ATOM     12  C   UNL     1      37.357 -23.217 -12.104  0.00  0.00    +0.234 C 
ENDBRANCH   1  12
TORSDOF 3
ENDMDL
MODEL 4
REMARK VINA RESULT:      -6.0      1.326      3.797
REMARK  Name = 8768
REMARK  3 active torsions:
REMARK  status: ('A' for Active; 'I' for Inactive)
REMARK    1  A    between atoms: C_1  and  C_12
REMARK    2  A    between atoms: C_2  and  O_7
REMARK    3  A    between atoms: C_4  and  O_9
REMARK                            x       y       z     vdW  Elec       q    Type
REMARK                         _______ _______ _______ _____ _____    ______ ____
ROOT
ATOM      1  C   UNL     1      34.164 -21.360 -19.670  0.00  0.00    +0.045 C 
ATOM      2  C   UNL     1      35.696 -19.766 -20.643  0.00  0.00    +0.168 C 
ATOM      3  C   UNL     1      35.469 -20.923 -19.900  0.00  0.00    +0.043 C 
ATOM      4  C   UNL     1      34.619 -19.043 -21.157  0.00  0.00    +0.167 C 
ATOM      5  C   UNL     1      33.087 -20.637 -20.182  0.00  0.00    +0.007 C 
ATOM      6  C   UNL     1      33.314 -19.479 -20.926  0.00  0.00    +0.040 C 
ENDROOT
BRANCH   2   7
ATOM      7  O   UNL     1      36.975 -19.350 -20.862  0.00  0.00    -0.503 OA
ATOM      8  H   UNL     1      37.322 -18.628 -20.376  0.00  0.00    +0.292 HD
ENDBRANCH   2   7
BRANCH   4   9
ATOM      9  O   UNL     1      34.829 -17.912 -21.884  0.00  0.00    -0.503 OA
ATOM     10  H   UNL     1      34.662 -17.910 -22.807  0.00  0.00    +0.292 HD
ENDBRANCH   4   9
BRANCH   1  12
ATOM     11  O   UNL     1      33.943 -23.698 -19.386  0.00  0.00    -0.283 OA
ATOM     12  C   UNL     1      33.927 -22.566 -18.893  0.00  0.00    +0.234 C 
ENDBRANCH   1  12
TORSDOF 3
ENDMDL
MODEL 5
REMARK VINA RESULT:      -6.0      0.808      2.126
REMARK  Name = 8768
REMARK  3 active torsions:
REMARK  status: ('A' for Active; 'I' for Inactive)
REMARK    1  A    between atoms: C_1  and  C_12
REMARK    2  A    between atoms: C_2  and  O_7
REMARK    3  A    between atoms: C_4  and  O_9
REMARK                            x       y       z     vdW  Elec       q    Type
REMARK                         _______ _______ _______ _____ _____    ______ ____
ROOT
ATOM      1  C   UNL     1      34.596 -19.870 -20.932  0.00  0.00    +0.045 C 
ATOM      2  C   UNL     1      33.680 -21.508 -19.410  0.00  0.00    +0.168 C 
ATOM      3  C   UNL     1      33.493 -20.514 -20.370  0.00  0.00    +0.043 C 
ATOM      4  C   UNL     1      34.970 -21.858 -19.011  0.00  0.00    +0.167 C 
ATOM      5  C   UNL     1      35.885 -20.220 -20.532  0.00  0.00    +0.007 C 
ATOM      6  C   UNL     1      36.073 -21.214 -19.572  0.00  0.00    +0.040 C 
ENDROOT
BRANCH   2   7
ATOM      7  O   UNL     1      32.595 -22.130 -18.869  0.00  0.00    -0.503 OA
ATOM      8  H   UNL     1      32.253 -21.843 -18.046  0.00  0.00    +0.292 HD
ENDBRANCH   2   7
BRANCH   4   9
ATOM      9  O   UNL     1      35.165 -22.827 -18.074  0.00  0.00    -0.503 OA
ATOM     10  H   UNL     1      35.467 -22.597 -17.217  0.00  0.00    +0.292 HD
ENDBRANCH   4   9
BRANCH   1  12
ATOM     11  O   UNL     1      35.174 -18.653 -22.877  0.00  0.00    -0.283 OA
ATOM     12  C   UNL     1      34.400 -18.833 -21.932  0.00  0.00    +0.234 C 
ENDBRANCH   1  12
TORSDOF 3
ENDMDL
MODEL 6
REMARK VINA RESULT:      -5.9      7.069      8.251
REMARK  Name = 8768
REMARK  3 active torsions:
REMARK  status: ('A' for Active; 'I' for Inactive)
REMARK    1  A    between atoms: C_1  and  C_12
REMARK    2  A    between atoms: C_2  and  O_7
REMARK    3  A    between atoms: C_4  and  O_9
REMARK                            x       y       z     vdW  Elec       q    Type
REMARK                         _______ _______ _______ _____ _____    ______ ____
ROOT
ATOM      1  C   UNL     1      29.378 -23.951 -15.932  0.00  0.00    +0.045 C 
ATOM      2  C   UNL     1      30.427 -24.346 -13.792  0.00  0.00    +0.168 C 
ATOM      3  C   UNL     1      29.404 -24.609 -14.702  0.00  0.00    +0.043 C 
ATOM      4  C   UNL     1      31.424 -23.424 -14.110  0.00  0.00    +0.167 C 
ATOM      5  C   UNL     1      30.374 -23.029 -16.250  0.00  0.00    +0.007 C 
ATOM      6  C   UNL     1      31.397 -22.765 -15.340  0.00  0.00    +0.040 C 
ENDROOT
BRANCH   2   7
ATOM      7  O   UNL     1      30.442 -24.996 -12.594  0.00  0.00    -0.503 OA
ATOM      8  H   UNL     1      31.259 -25.237 -12.203  0.00  0.00    +0.292 HD
ENDBRANCH   2   7
BRANCH   4   9
ATOM      9  O   UNL     1      32.428 -23.159 -13.229  0.00  0.00    -0.503 OA
ATOM     10  H   UNL     1      32.663 -22.272 -13.040  0.00  0.00    +0.292 HD
ENDBRANCH   4   9
BRANCH   1  12
ATOM     11  O   UNL     1      27.942 -23.412 -17.733  0.00  0.00    -0.283 OA
ATOM     12  C   UNL     1      28.310 -24.225 -16.881  0.00  0.00    +0.234 C 
ENDBRANCH   1  12
TORSDOF 3
ENDMDL
MODEL 7
REMARK VINA RESULT:      -5.9      3.538      4.924
REMARK  Name = 8768
REMARK  3 active torsions:
REMARK  status: ('A' for Active; 'I' for Inactive)
REMARK    1  A    between atoms: C_1  and  C_12
REMARK    2  A    between atoms: C_2  and  O_7
REMARK    3  A    between atoms: C_4  and  O_9
REMARK                            x       y       z     vdW  Elec       q    Type
REMARK                         _______ _______ _______ _____ _____    ______ ____
ROOT
ATOM      1  C   UNL     1      34.407 -16.389 -23.851  0.00  0.00    +0.045 C 
ATOM      2  C   UNL     1      34.932 -16.469 -21.494  0.00  0.00    +0.168 C 
ATOM      3  C   UNL     1      34.416 -15.784 -22.593  0.00  0.00    +0.043 C 
ATOM      4  C   UNL     1      35.441 -17.758 -21.651  0.00  0.00    +0.167 C 
ATOM      5  C   UNL     1      34.917 -17.677 -24.008  0.00  0.00    +0.007 C 
ATOM      6  C   UNL     1      35.433 -18.363 -22.908  0.00  0.00    +0.040 C 
ENDROOT
BRANCH   2   7
ATOM      7  O   UNL     1      34.934 -15.869 -20.270  0.00  0.00    -0.503 OA
ATOM      8  H   UNL     1      35.665 -15.981 -19.696  0.00  0.00    +0.292 HD
ENDBRANCH   2   7
BRANCH   4   9
ATOM      9  O   UNL     1      35.948 -18.437 -20.584  0.00  0.00    -0.503 OA
ATOM     10  H   UNL     1      36.567 -19.127 -20.719  0.00  0.00    +0.292 HD
ENDBRANCH   4   9
BRANCH   1  12
ATOM     11  O   UNL     1      33.988 -16.077 -26.158  0.00  0.00    -0.283 OA
ATOM     12  C   UNL     1      33.870 -15.674 -24.997  0.00  0.00    +0.234 C 
ENDBRANCH   1  12
TORSDOF 3
ENDMDL
MODEL 8
REMARK VINA RESULT:      -5.8      3.717      4.905
REMARK  Name = 8768
REMARK  3 active torsions:
REMARK  status: ('A' for Active; 'I' for Inactive)
REMARK    1  A    between atoms: C_1  and  C_12
REMARK    2  A    between atoms: C_2  and  O_7
REMARK    3  A    between atoms: C_4  and  O_9
REMARK                            x       y       z     vdW  Elec       q    Type
REMARK                         _______ _______ _______ _____ _____    ______ ____
ROOT
ATOM      1  C   UNL     1      34.720 -16.642 -23.831  0.00  0.00    +0.045 C 
ATOM      2  C   UNL     1      35.204 -17.320 -21.563  0.00  0.00    +0.168 C 
ATOM      3  C   UNL     1      35.147 -17.613 -22.925  0.00  0.00    +0.043 C 
ATOM      4  C   UNL     1      34.834 -16.055 -21.106  0.00  0.00    +0.167 C 
ATOM      5  C   UNL     1      34.349 -15.378 -23.374  0.00  0.00    +0.007 C 
ATOM      6  C   UNL     1      34.406 -15.083 -22.012  0.00  0.00    +0.040 C 
ENDROOT
BRANCH   2   7
ATOM      7  O   UNL     1      35.624 -18.276 -20.687  0.00  0.00    -0.503 OA
ATOM      8  H   UNL     1      35.684 -19.169 -20.963  0.00  0.00    +0.292 HD
ENDBRANCH   2   7
BRANCH   4   9
ATOM      9  O   UNL     1      34.887 -15.756 -19.778  0.00  0.00    -0.503 OA
ATOM     10  H   UNL     1      34.274 -16.146 -19.185  0.00  0.00    +0.292 HD
ENDBRANCH   4   9
BRANCH   1  12
ATOM     11  O   UNL     1      34.168 -16.183 -26.085  0.00  0.00    -0.283 OA
ATOM     12  C   UNL     1      34.659 -16.949 -25.250  0.00  0.00    +0.234 C 
ENDBRANCH   1  12
TORSDOF 3
ENDMDL
MODEL 9
REMARK VINA RESULT:      -5.8      8.848      9.956
REMARK  Name = 8768
REMARK  3 active torsions:
REMARK  status: ('A' for Active; 'I' for Inactive)
REMARK    1  A    between atoms: C_1  and  C_12
REMARK    2  A    between atoms: C_2  and  O_7
REMARK    3  A    between atoms: C_4  and  O_9
REMARK                            x       y       z     vdW  Elec       q    Type
REMARK                         _______ _______ _______ _____ _____    ______ ____
ROOT
ATOM      1  C   UNL     1      41.235 -14.431 -15.834  0.00  0.00    +0.045 C 
ATOM      2  C   UNL     1      41.731 -16.520 -16.942  0.00  0.00    +0.168 C 
ATOM      3  C   UNL     1      41.334 -15.822 -15.802  0.00  0.00    +0.043 C 
ATOM      4  C   UNL     1      42.031 -15.827 -18.115  0.00  0.00    +0.167 C 
ATOM      5  C   UNL     1      41.536 -13.738 -17.006  0.00  0.00    +0.007 C 
ATOM      6  C   UNL     1      41.933 -14.435 -18.147  0.00  0.00    +0.040 C 
ENDROOT
BRANCH   2   7
ATOM      7  O   UNL     1      41.824 -17.879 -16.899  0.00  0.00    -0.503 OA
ATOM      8  H   UNL     1      42.321 -18.293 -16.221  0.00  0.00    +0.292 HD
ENDBRANCH   2   7
BRANCH   4   9
ATOM      9  O   UNL     1      42.420 -16.497 -19.235  0.00  0.00    -0.503 OA
ATOM     10  H   UNL     1      42.283 -17.422 -19.299  0.00  0.00    +0.292 HD
ENDBRANCH   4   9
BRANCH   1  12
ATOM     11  O   UNL     1      40.919 -14.166 -13.505  0.00  0.00    -0.283 OA
ATOM     12  C   UNL     1      40.822 -13.704 -14.645  0.00  0.00    +0.234 C 
ENDBRANCH   1  12
TORSDOF 3
ENDMDL
