MODEL 1
REMARK VINA RESULT:      -9.8      0.000      0.000
REMARK  Name = 3299
REMARK  4 active torsions:
REMARK  status: ('A' for Active; 'I' for Inactive)
REMARK    1  A    between atoms: C_6  and  C_16
REMARK    2  A    between atoms: C_7  and  C_23
REMARK    3  A    between atoms: C_23  and  O_24
REMARK    4  A    between atoms: O_24  and  C_25
REMARK                            x       y       z     vdW  Elec       q    Type
REMARK                         _______ _______ _______ _____ _____    ______ ____
ROOT
ATOM      1 CL   UNL     1      38.687 -26.159 -14.625  0.00  0.00    -0.082 Cl
ATOM      2  O   UNL     1      31.485 -22.957 -12.852  0.00  0.00    -0.272 OA
ATOM      3  N   UNL     1      33.664 -23.629 -12.734  0.00  0.00    -0.282 N 
ATOM      4  N   UNL     1      32.991 -23.659 -15.675  0.00  0.00    -0.252 NA
ATOM      5  C   UNL     1      35.137 -24.289 -14.631  0.00  0.00    +0.032 C 
ATOM      6  C   UNL     1      34.280 -23.647 -15.673  0.00  0.00    +0.080 C 
ATOM      7  C   UNL     1      32.289 -24.367 -14.626  0.00  0.00    +0.277 C 
ATOM      8  C   UNL     1      34.853 -24.176 -13.261  0.00  0.00    +0.052 C 
ATOM      9  C   UNL     1      32.433 -23.565 -13.352  0.00  0.00    +0.260 C 
ATOM     10  C   UNL     1      36.318 -24.925 -15.044  0.00  0.00    +0.014 C 
ATOM     11  C   UNL     1      35.809 -24.606 -12.327  0.00  0.00    +0.016 C 
ATOM     12  C   UNL     1      37.237 -25.391 -14.105  0.00  0.00    +0.058 C 
ATOM     13  C   UNL     1      36.990 -25.217 -12.748  0.00  0.00    +0.013 C 
ATOM     14  H   UNL     1      33.720 -23.252 -11.826  0.00  0.00    +0.155 HD
ENDROOT
BRANCH   6  16
ATOM     15  F   UNL     1      33.075 -23.305 -18.203  0.00  0.00    -0.204 F 
ATOM     16  C   UNL     1      34.940 -22.906 -16.787  0.00  0.00    +0.045 C 
ATOM     17  C   UNL     1      34.291 -22.775 -18.008  0.00  0.00    +0.142 C 
ATOM     18  C   UNL     1      36.200 -22.355 -16.587  0.00  0.00    +0.004 C 
ATOM     19  C   UNL     1      34.910 -22.080 -19.046  0.00  0.00    +0.030 C 
ATOM     20  C   UNL     1      36.819 -21.661 -17.626  0.00  0.00    +0.000 C 
ATOM     21  C   UNL     1      36.175 -21.522 -18.855  0.00  0.00    +0.002 C 
ENDBRANCH   6  16
BRANCH   7  23
ATOM     22  O   UNL     1      30.099 -25.353 -14.745  0.00  0.00    -0.247 OA
ATOM     23  C   UNL     1      30.876 -24.477 -15.102  0.00  0.00    +0.349 C 
BRANCH  23  24
ATOM     24  O   UNL     1      30.608 -23.465 -15.976  0.00  0.00    -0.447 OA
BRANCH  24  25
ATOM     25  C   UNL     1      29.366 -22.786 -15.770  0.00  0.00    +0.209 C 
ATOM     26  C   UNL     1      28.405 -23.168 -16.875  0.00  0.00    +0.051 C 
ENDBRANCH  24  25
ENDBRANCH  23  24
ENDBRANCH   7  23
TORSDOF 4
ENDMDL
MODEL 2
REMARK VINA RESULT:      -9.4      3.453      6.091
REMARK  Name = 3299
REMARK  4 active torsions:
REMARK  status: ('A' for Active; 'I' for Inactive)
REMARK    1  A    between atoms: C_6  and  C_16
REMARK    2  A    between atoms: C_7  and  C_23
REMARK    3  A    between atoms: C_23  and  O_24
REMARK    4  A    between atoms: O_24  and  C_25
REMARK                            x       y       z     vdW  Elec       q    Type
REMARK                         _______ _______ _______ _____ _____    ______ ____
ROOT
ATOM      1 CL   UNL     1      33.593 -21.625 -20.316  0.00  0.00    -0.082 Cl
ATOM      2  O   UNL     1      38.347 -23.703 -14.125  0.00  0.00    -0.272 OA
ATOM      3  N   UNL     1      37.399 -22.566 -15.863  0.00  0.00    -0.282 N 
ATOM      4  N   UNL     1      35.328 -24.597 -15.030  0.00  0.00    -0.252 NA
ATOM      5  C   UNL     1      35.157 -22.965 -16.873  0.00  0.00    +0.032 C 
ATOM      6  C   UNL     1      34.640 -23.743 -15.707  0.00  0.00    +0.080 C 
ATOM      7  C   UNL     1      36.695 -24.873 -15.420  0.00  0.00    +0.277 C 
ATOM      8  C   UNL     1      36.423 -22.358 -16.861  0.00  0.00    +0.052 C 
ATOM      9  C   UNL     1      37.533 -23.671 -15.049  0.00  0.00    +0.260 C 
ATOM     10  C   UNL     1      34.295 -22.748 -17.960  0.00  0.00    +0.014 C 
ATOM     11  C   UNL     1      36.761 -21.460 -17.885  0.00  0.00    +0.016 C 
ATOM     12  C   UNL     1      34.663 -21.890 -18.996  0.00  0.00    +0.058 C 
ATOM     13  C   UNL     1      35.889 -21.234 -18.950  0.00  0.00    +0.013 C 
ATOM     14  H   UNL     1      38.055 -21.844 -15.735  0.00  0.00    +0.155 HD
ENDROOT
BRANCH   6  16
ATOM     15  F   UNL     1      33.903 -23.696 -12.984  0.00  0.00    -0.204 F 
ATOM     16  C   UNL     1      33.237 -23.511 -15.256  0.00  0.00    +0.045 C 
ATOM     17  C   UNL     1      32.943 -23.500 -13.899  0.00  0.00    +0.142 C 
ATOM     18  C   UNL     1      32.241 -23.307 -16.203  0.00  0.00    +0.004 C 
ATOM     19  C   UNL     1      31.631 -23.280 -13.481  0.00  0.00    +0.030 C 
ATOM     20  C   UNL     1      30.929 -23.088 -15.784  0.00  0.00    +0.000 C 
ATOM     21  C   UNL     1      30.623 -23.074 -14.424  0.00  0.00    +0.002 C 
ENDBRANCH   6  16
BRANCH   7  23
ATOM     22  O   UNL     1      37.917 -26.913 -15.062  0.00  0.00    -0.247 OA
ATOM     23  C   UNL     1      37.073 -26.114 -14.677  0.00  0.00    +0.349 C 
BRANCH  23  24
ATOM     24  O   UNL     1      36.339 -26.203 -13.532  0.00  0.00    -0.447 OA
BRANCH  24  25
ATOM     25  C   UNL     1      37.072 -26.032 -12.315  0.00  0.00    +0.209 C 
ATOM     26  C   UNL     1      36.482 -24.872 -11.543  0.00  0.00    +0.051 C 
ENDBRANCH  24  25
ENDBRANCH  23  24
ENDBRANCH   7  23
TORSDOF 4
ENDMDL
MODEL 3
REMARK VINA RESULT:      -9.0      1.146      1.439
REMARK  Name = 3299
REMARK  4 active torsions:
REMARK  status: ('A' for Active; 'I' for Inactive)
REMARK    1  A    between atoms: C_6  and  C_16
REMARK    2  A    between atoms: C_7  and  C_23
REMARK    3  A    between atoms: C_23  and  O_24
REMARK    4  A    between atoms: O_24  and  C_25
REMARK                            x       y       z     vdW  Elec       q    Type
REMARK                         _______ _______ _______ _____ _____    ______ ____
ROOT
ATOM      1 CL   UNL     1      37.934 -26.268 -14.677  0.00  0.00    -0.082 Cl
ATOM      2  O   UNL     1      30.960 -22.252 -13.979  0.00  0.00    -0.272 OA
ATOM      3  N   UNL     1      32.995 -23.187 -13.532  0.00  0.00    -0.282 N 
ATOM      4  N   UNL     1      32.828 -23.069 -16.543  0.00  0.00    -0.252 NA
ATOM      5  C   UNL     1      34.679 -23.979 -15.188  0.00  0.00    +0.032 C 
ATOM      6  C   UNL     1      34.090 -23.214 -16.328  0.00  0.00    +0.080 C 
ATOM      7  C   UNL     1      31.881 -23.708 -15.655  0.00  0.00    +0.277 C 
ATOM      8  C   UNL     1      34.183 -23.863 -13.879  0.00  0.00    +0.052 C 
ATOM      9  C   UNL     1      31.901 -22.959 -14.341  0.00  0.00    +0.260 C 
ATOM     10  C   UNL     1      35.831 -24.745 -15.427  0.00  0.00    +0.014 C 
ATOM     11  C   UNL     1      34.911 -24.427 -12.820  0.00  0.00    +0.016 C 
ATOM     12  C   UNL     1      36.517 -25.341 -14.370  0.00  0.00    +0.058 C 
ATOM     13  C   UNL     1      36.067 -25.168 -13.066  0.00  0.00    +0.013 C 
ATOM     14  H   UNL     1      32.940 -22.840 -12.613  0.00  0.00    +0.155 HD
ENDROOT
BRANCH   6  16
ATOM     15  F   UNL     1      33.514 -22.961 -19.080  0.00  0.00    -0.204 F 
ATOM     16  C   UNL     1      35.011 -22.535 -17.286  0.00  0.00    +0.045 C 
ATOM     17  C   UNL     1      34.666 -22.445 -18.628  0.00  0.00    +0.142 C 
ATOM     18  C   UNL     1      36.205 -21.998 -16.820  0.00  0.00    +0.004 C 
ATOM     19  C   UNL     1      35.528 -21.807 -19.519  0.00  0.00    +0.030 C 
ATOM     20  C   UNL     1      37.067 -21.361 -17.712  0.00  0.00    +0.000 C 
ATOM     21  C   UNL     1      36.729 -21.265 -19.061  0.00  0.00    +0.002 C 
ENDBRANCH   6  16
BRANCH   7  23
ATOM     22  O   UNL     1      30.171 -22.651 -16.974  0.00  0.00    -0.247 OA
ATOM     23  C   UNL     1      30.566 -23.634 -16.361  0.00  0.00    +0.349 C 
BRANCH  23  24
ATOM     24  O   UNL     1      29.899 -24.815 -16.210  0.00  0.00    -0.447 OA
BRANCH  24  25
ATOM     25  C   UNL     1      28.697 -24.748 -15.436  0.00  0.00    +0.209 C 
ATOM     26  C   UNL     1      28.893 -25.524 -14.152  0.00  0.00    +0.051 C 
ENDBRANCH  24  25
ENDBRANCH  23  24
ENDBRANCH   7  23
TORSDOF 4
ENDMDL
MODEL 4
REMARK VINA RESULT:      -8.6     15.090     17.134
REMARK  Name = 3299
REMARK  4 active torsions:
REMARK  status: ('A' for Active; 'I' for Inactive)
REMARK    1  A    between atoms: C_6  and  C_16
REMARK    2  A    between atoms: C_7  and  C_23
REMARK    3  A    between atoms: C_23  and  O_24
REMARK    4  A    between atoms: O_24  and  C_25
REMARK                            x       y       z     vdW  Elec       q    Type
REMARK                         _______ _______ _______ _____ _____    ______ ____
ROOT
ATOM      1 CL   UNL     1      31.513 -13.631 -20.884  0.00  0.00    -0.082 Cl
ATOM      2  O   UNL     1      32.285  -5.594 -20.613  0.00  0.00    -0.272 OA
ATOM      3  N   UNL     1      32.312  -7.810 -20.061  0.00  0.00    -0.282 N 
ATOM      4  N   UNL     1      32.174  -7.753 -23.075  0.00  0.00    -0.252 NA
ATOM      5  C   UNL     1      32.200  -9.747 -21.622  0.00  0.00    +0.032 C 
ATOM      6  C   UNL     1      32.581  -8.950 -22.826  0.00  0.00    +0.080 C 
ATOM      7  C   UNL     1      31.250  -7.115 -22.160  0.00  0.00    +0.277 C 
ATOM      8  C   UNL     1      32.175  -9.187 -20.335  0.00  0.00    +0.052 C 
ATOM      9  C   UNL     1      32.015  -6.760 -20.905  0.00  0.00    +0.260 C 
ATOM     10  C   UNL     1      31.972 -11.123 -21.783  0.00  0.00    +0.014 C 
ATOM     11  C   UNL     1      32.029 -10.032 -19.224  0.00  0.00    +0.016 C 
ATOM     12  C   UNL     1      31.780 -11.944 -20.673  0.00  0.00    +0.058 C 
ATOM     13  C   UNL     1      31.825 -11.402 -19.393  0.00  0.00    +0.013 C 
ATOM     14  H   UNL     1      32.658  -7.573 -19.170  0.00  0.00    +0.155 HD
ENDROOT
BRANCH   6  16
ATOM     15  F   UNL     1      35.018  -7.721 -23.545  0.00  0.00    -0.204 F 
ATOM     16  C   UNL     1      33.526  -9.550 -23.813  0.00  0.00    +0.045 C 
ATOM     17  C   UNL     1      34.709  -8.892 -24.122  0.00  0.00    +0.142 C 
ATOM     18  C   UNL     1      33.208 -10.763 -24.411  0.00  0.00    +0.004 C 
ATOM     19  C   UNL     1      35.590  -9.457 -25.043  0.00  0.00    +0.030 C 
ATOM     20  C   UNL     1      34.090 -11.327 -25.333  0.00  0.00    +0.000 C 
ATOM     21  C   UNL     1      35.281 -10.674 -25.649  0.00  0.00    +0.002 C 
ENDBRANCH   6  16
BRANCH   7  23
ATOM     22  O   UNL     1      30.078  -5.026 -22.372  0.00  0.00    -0.247 OA
ATOM     23  C   UNL     1      30.727  -5.923 -22.895  0.00  0.00    +0.349 C 
BRANCH  23  24
ATOM     24  O   UNL     1      31.083  -6.004 -24.209  0.00  0.00    -0.447 OA
BRANCH  24  25
ATOM     25  C   UNL     1      31.584  -4.794 -24.786  0.00  0.00    +0.209 C 
ATOM     26  C   UNL     1      32.754  -5.124 -25.686  0.00  0.00    +0.051 C 
ENDBRANCH  24  25
ENDBRANCH  23  24
ENDBRANCH   7  23
TORSDOF 4
ENDMDL
MODEL 5
REMARK VINA RESULT:      -8.5     10.907     13.460
REMARK  Name = 3299
REMARK  4 active torsions:
REMARK  status: ('A' for Active; 'I' for Inactive)
REMARK    1  A    between atoms: C_6  and  C_16
REMARK    2  A    between atoms: C_7  and  C_23
REMARK    3  A    between atoms: C_23  and  O_24
REMARK    4  A    between atoms: O_24  and  C_25
REMARK                            x       y       z     vdW  Elec       q    Type
REMARK                         _______ _______ _______ _____ _____    ______ ____
ROOT
ATOM      1 CL   UNL     1      32.593  -8.347 -22.829  0.00  0.00    -0.082 Cl
ATOM      2  O   UNL     1      32.124 -16.101 -20.614  0.00  0.00    -0.272 OA
ATOM      3  N   UNL     1      31.632 -13.901 -20.979  0.00  0.00    -0.282 N 
ATOM      4  N   UNL     1      33.928 -14.512 -22.839  0.00  0.00    -0.252 NA
ATOM      5  C   UNL     1      32.786 -12.344 -22.543  0.00  0.00    +0.032 C 
ATOM      6  C   UNL     1      33.431 -13.433 -23.338  0.00  0.00    +0.080 C 
ATOM      7  C   UNL     1      33.911 -14.701 -21.404  0.00  0.00    +0.277 C 
ATOM      8  C   UNL     1      31.882 -12.616 -21.504  0.00  0.00    +0.052 C 
ATOM      9  C   UNL     1      32.484 -14.986 -20.993  0.00  0.00    +0.260 C 
ATOM     10  C   UNL     1      33.016 -11.015 -22.932  0.00  0.00    +0.014 C 
ATOM     11  C   UNL     1      31.144 -11.560 -20.947  0.00  0.00    +0.016 C 
ATOM     12  C   UNL     1      32.310  -9.970 -22.336  0.00  0.00    +0.058 C 
ATOM     13  C   UNL     1      31.363 -10.245 -21.355  0.00  0.00    +0.013 C 
ATOM     14  H   UNL     1      30.753 -14.039 -20.557  0.00  0.00    +0.155 HD
ENDROOT
BRANCH   6  16
ATOM     15  F   UNL     1      32.880 -15.579 -25.086  0.00  0.00    -0.204 F 
ATOM     16  C   UNL     1      33.487 -13.298 -24.823  0.00  0.00    +0.045 C 
ATOM     17  C   UNL     1      33.204 -14.396 -25.625  0.00  0.00    +0.142 C 
ATOM     18  C   UNL     1      33.822 -12.072 -25.384  0.00  0.00    +0.004 C 
ATOM     19  C   UNL     1      33.256 -14.265 -27.013  0.00  0.00    +0.030 C 
ATOM     20  C   UNL     1      33.874 -11.943 -26.772  0.00  0.00    +0.000 C 
ATOM     21  C   UNL     1      33.591 -13.039 -27.587  0.00  0.00    +0.002 C 
ENDBRANCH   6  16
BRANCH   7  23
ATOM     22  O   UNL     1      35.182 -16.210 -20.029  0.00  0.00    -0.247 OA
ATOM     23  C   UNL     1      34.843 -15.842 -21.146  0.00  0.00    +0.349 C 
BRANCH  23  24
ATOM     24  O   UNL     1      35.239 -16.385 -22.332  0.00  0.00    -0.447 OA
BRANCH  24  25
ATOM     25  C   UNL     1      35.368 -17.810 -22.344  0.00  0.00    +0.209 C 
ATOM     26  C   UNL     1      34.916 -18.335 -23.689  0.00  0.00    +0.051 C 
ENDBRANCH  24  25
ENDBRANCH  23  24
ENDBRANCH   7  23
TORSDOF 4
ENDMDL
MODEL 6
REMARK VINA RESULT:      -8.3     14.320     16.913
REMARK  Name = 3299
REMARK  4 active torsions:
REMARK  status: ('A' for Active; 'I' for Inactive)
REMARK    1  A    between atoms: C_6  and  C_16
REMARK    2  A    between atoms: C_7  and  C_23
REMARK    3  A    between atoms: C_23  and  O_24
REMARK    4  A    between atoms: O_24  and  C_25
REMARK                            x       y       z     vdW  Elec       q    Type
REMARK                         _______ _______ _______ _____ _____    ______ ____
ROOT
ATOM      1 CL   UNL     1      30.165  -5.346 -22.735  0.00  0.00    -0.082 Cl
ATOM      2  O   UNL     1      35.960 -10.444 -25.122  0.00  0.00    -0.272 OA
ATOM      3  N   UNL     1      34.835  -8.562 -24.483  0.00  0.00    -0.282 N 
ATOM      4  N   UNL     1      33.121 -10.860 -23.541  0.00  0.00    -0.252 NA
ATOM      5  C   UNL     1      32.642  -8.451 -23.307  0.00  0.00    +0.032 C 
ATOM      6  C   UNL     1      32.687  -9.869 -22.841  0.00  0.00    +0.080 C 
ATOM      7  C   UNL     1      33.573 -10.625 -24.895  0.00  0.00    +0.277 C 
ATOM      8  C   UNL     1      33.712  -7.859 -23.996  0.00  0.00    +0.052 C 
ATOM      9  C   UNL     1      34.897  -9.898 -24.820  0.00  0.00    +0.260 C 
ATOM     10  C   UNL     1      31.537  -7.666 -22.939  0.00  0.00    +0.014 C 
ATOM     11  C   UNL     1      33.705  -6.472 -24.210  0.00  0.00    +0.016 C 
ATOM     12  C   UNL     1      31.521  -6.297 -23.201  0.00  0.00    +0.058 C 
ATOM     13  C   UNL     1      32.612  -5.698 -23.821  0.00  0.00    +0.013 C 
ATOM     14  H   UNL     1      35.664  -8.042 -24.593  0.00  0.00    +0.155 HD
ENDROOT
BRANCH   6  16
ATOM     15  F   UNL     1      31.607 -12.376 -22.122  0.00  0.00    -0.204 F 
ATOM     16  C   UNL     1      32.229 -10.183 -21.456  0.00  0.00    +0.045 C 
ATOM     17  C   UNL     1      31.707 -11.438 -21.170  0.00  0.00    +0.142 C 
ATOM     18  C   UNL     1      32.333  -9.212 -20.467  0.00  0.00    +0.004 C 
ATOM     19  C   UNL     1      31.283 -11.727 -19.874  0.00  0.00    +0.030 C 
ATOM     20  C   UNL     1      31.907  -9.503 -19.171  0.00  0.00    +0.000 C 
ATOM     21  C   UNL     1      31.382 -10.760 -18.874  0.00  0.00    +0.002 C 
ENDBRANCH   6  16
BRANCH   7  23
ATOM     22  O   UNL     1      33.691 -12.179 -26.726  0.00  0.00    -0.247 OA
ATOM     23  C   UNL     1      33.674 -11.980 -25.519  0.00  0.00    +0.349 C 
BRANCH  23  24
ATOM     24  O   UNL     1      33.740 -12.929 -24.541  0.00  0.00    -0.447 OA
BRANCH  24  25
ATOM     25  C   UNL     1      33.092 -14.168 -24.842  0.00  0.00    +0.209 C 
ATOM     26  C   UNL     1      33.805 -15.287 -24.113  0.00  0.00    +0.051 C 
ENDBRANCH  24  25
ENDBRANCH  23  24
ENDBRANCH   7  23
TORSDOF 4
ENDMDL
MODEL 7
REMARK VINA RESULT:      -8.3      2.037      4.426
REMARK  Name = 3299
REMARK  4 active torsions:
REMARK  status: ('A' for Active; 'I' for Inactive)
REMARK    1  A    between atoms: C_6  and  C_16
REMARK    2  A    between atoms: C_7  and  C_23
REMARK    3  A    between atoms: C_23  and  O_24
REMARK    4  A    between atoms: O_24  and  C_25
REMARK                            x       y       z     vdW  Elec       q    Type
REMARK                         _______ _______ _______ _____ _____    ______ ____
ROOT
ATOM      1 CL   UNL     1      37.931 -20.954 -17.146  0.00  0.00    -0.082 Cl
ATOM      2  O   UNL     1      30.677 -24.472 -16.629  0.00  0.00    -0.272 OA
ATOM      3  N   UNL     1      32.639 -23.622 -17.431  0.00  0.00    -0.282 N 
ATOM      4  N   UNL     1      33.098 -24.002 -14.472  0.00  0.00    -0.252 NA
ATOM      5  C   UNL     1      34.688 -23.084 -16.121  0.00  0.00    +0.032 C 
ATOM      6  C   UNL     1      34.294 -23.912 -14.942  0.00  0.00    +0.080 C 
ATOM      7  C   UNL     1      32.038 -23.230 -15.085  0.00  0.00    +0.277 C 
ATOM      8  C   UNL     1      33.922 -23.051 -17.298  0.00  0.00    +0.052 C 
ATOM      9  C   UNL     1      31.724 -23.857 -16.425  0.00  0.00    +0.260 C 
ATOM     10  C   UNL     1      35.920 -22.412 -16.078  0.00  0.00    +0.014 C 
ATOM     11  C   UNL     1      34.453 -22.438 -18.442  0.00  0.00    +0.016 C 
ATOM     12  C   UNL     1      36.414 -21.765 -17.209  0.00  0.00    +0.058 C 
ATOM     13  C   UNL     1      35.689 -21.791 -18.396  0.00  0.00    +0.013 C 
ATOM     14  H   UNL     1      32.366 -23.880 -18.341  0.00  0.00    +0.155 HD
ENDROOT
BRANCH   6  16
ATOM     15  F   UNL     1      35.004 -23.530 -12.237  0.00  0.00    -0.204 F 
ATOM     16  C   UNL     1      35.340 -24.729 -14.260  0.00  0.00    +0.045 C 
ATOM     17  C   UNL     1      35.640 -24.488 -12.925  0.00  0.00    +0.142 C 
ATOM     18  C   UNL     1      36.001 -25.723 -14.971  0.00  0.00    +0.004 C 
ATOM     19  C   UNL     1      36.617 -25.255 -12.291  0.00  0.00    +0.030 C 
ATOM     20  C   UNL     1      36.978 -26.489 -14.335  0.00  0.00    +0.000 C 
ATOM     21  C   UNL     1      37.286 -26.256 -12.995  0.00  0.00    +0.002 C 
ENDBRANCH   6  16
BRANCH   7  23
ATOM     22  O   UNL     1      30.874 -24.010 -13.131  0.00  0.00    -0.247 OA
ATOM     23  C   UNL     1      30.898 -23.289 -14.120  0.00  0.00    +0.349 C 
BRANCH  23  24
ATOM     24  O   UNL     1      29.917 -22.430 -14.518  0.00  0.00    -0.447 OA
BRANCH  24  25
ATOM     25  C   UNL     1      28.638 -23.024 -14.759  0.00  0.00    +0.209 C 
ATOM     26  C   UNL     1      27.997 -22.349 -15.952  0.00  0.00    +0.051 C 
ENDBRANCH  24  25
ENDBRANCH  23  24
ENDBRANCH   7  23
TORSDOF 4
ENDMDL
MODEL 8
REMARK VINA RESULT:      -8.0     11.806     14.512
REMARK  Name = 3299
REMARK  4 active torsions:
REMARK  status: ('A' for Active; 'I' for Inactive)
REMARK    1  A    between atoms: C_6  and  C_16
REMARK    2  A    between atoms: C_7  and  C_23
REMARK    3  A    between atoms: C_23  and  O_24
REMARK    4  A    between atoms: O_24  and  C_25
REMARK                            x       y       z     vdW  Elec       q    Type
REMARK                         _______ _______ _______ _____ _____    ______ ____
ROOT
ATOM      1 CL   UNL     1      30.377 -10.737 -19.806  0.00  0.00    -0.082 Cl
ATOM      2  O   UNL     1      34.969 -11.342 -26.425  0.00  0.00    -0.272 OA
ATOM      3  N   UNL     1      34.012 -10.589 -24.493  0.00  0.00    -0.282 N 
ATOM      4  N   UNL     1      33.428 -13.549 -24.557  0.00  0.00    -0.252 NA
ATOM      5  C   UNL     1      32.725 -11.929 -22.834  0.00  0.00    +0.032 C 
ATOM      6  C   UNL     1      33.241 -13.244 -23.319  0.00  0.00    +0.080 C 
ATOM      7  C   UNL     1      33.091 -12.585 -25.582  0.00  0.00    +0.277 C 
ATOM      8  C   UNL     1      33.183 -10.709 -23.357  0.00  0.00    +0.052 C 
ATOM      9  C   UNL     1      34.126 -11.483 -25.538  0.00  0.00    +0.260 C 
ATOM     10  C   UNL     1      31.837 -11.925 -21.746  0.00  0.00    +0.014 C 
ATOM     11  C   UNL     1      32.831  -9.513 -22.713  0.00  0.00    +0.016 C 
ATOM     12  C   UNL     1      31.457 -10.726 -21.146  0.00  0.00    +0.058 C 
ATOM     13  C   UNL     1      31.966  -9.522 -21.619  0.00  0.00    +0.013 C 
ATOM     14  H   UNL     1      34.569  -9.780 -24.545  0.00  0.00    +0.155 HD
ENDROOT
BRANCH   6  16
ATOM     15  F   UNL     1      35.224 -15.196 -23.792  0.00  0.00    -0.204 F 
ATOM     16  C   UNL     1      33.602 -14.286 -22.314  0.00  0.00    +0.045 C 
ATOM     17  C   UNL     1      34.589 -15.217 -22.612  0.00  0.00    +0.142 C 
ATOM     18  C   UNL     1      32.946 -14.310 -21.090  0.00  0.00    +0.004 C 
ATOM     19  C   UNL     1      34.925 -16.188 -21.669  0.00  0.00    +0.030 C 
ATOM     20  C   UNL     1      33.283 -15.282 -20.148  0.00  0.00    +0.000 C 
ATOM     21  C   UNL     1      34.272 -16.221 -20.437  0.00  0.00    +0.002 C 
ENDBRANCH   6  16
BRANCH   7  23
ATOM     22  O   UNL     1      32.603 -12.949 -27.908  0.00  0.00    -0.247 OA
ATOM     23  C   UNL     1      33.097 -13.354 -26.864  0.00  0.00    +0.349 C 
BRANCH  23  24
ATOM     24  O   UNL     1      33.727 -14.549 -26.677  0.00  0.00    -0.447 OA
BRANCH  24  25
ATOM     25  C   UNL     1      32.866 -15.674 -26.479  0.00  0.00    +0.209 C 
ATOM     26  C   UNL     1      33.641 -16.772 -25.783  0.00  0.00    +0.051 C 
ENDBRANCH  24  25
ENDBRANCH  23  24
ENDBRANCH   7  23
TORSDOF 4
ENDMDL
MODEL 9
REMARK VINA RESULT:      -7.8     11.975     14.214
REMARK  Name = 3299
REMARK  4 active torsions:
REMARK  status: ('A' for Active; 'I' for Inactive)
REMARK    1  A    between atoms: C_6  and  C_16
REMARK    2  A    between atoms: C_7  and  C_23
REMARK    3  A    between atoms: C_23  and  O_24
REMARK    4  A    between atoms: O_24  and  C_25
REMARK                            x       y       z     vdW  Elec       q    Type
REMARK                         _______ _______ _______ _____ _____    ______ ____
ROOT
ATOM      1 CL   UNL     1      35.687 -18.326 -22.224  0.00  0.00    -0.082 Cl
ATOM      2  O   UNL     1      32.701 -13.064 -27.578  0.00  0.00    -0.272 OA
ATOM      3  N   UNL     1      33.206 -14.988 -26.456  0.00  0.00    -0.282 N 
ATOM      4  N   UNL     1      33.753 -12.765 -24.490  0.00  0.00    -0.252 NA
ATOM      5  C   UNL     1      34.069 -15.186 -24.128  0.00  0.00    +0.032 C 
ATOM      6  C   UNL     1      33.660 -13.804 -23.733  0.00  0.00    +0.080 C 
ATOM      7  C   UNL     1      34.325 -12.902 -25.813  0.00  0.00    +0.277 C 
ATOM      8  C   UNL     1      33.756 -15.725 -25.386  0.00  0.00    +0.052 C 
ATOM      9  C   UNL     1      33.321 -13.631 -26.677  0.00  0.00    +0.260 C 
ATOM     10  C   UNL     1      34.688 -15.995 -23.162  0.00  0.00    +0.014 C 
ATOM     11  C   UNL     1      33.968 -17.093 -25.615  0.00  0.00    +0.016 C 
ATOM     12  C   UNL     1      34.938 -17.342 -23.421  0.00  0.00    +0.058 C 
ATOM     13  C   UNL     1      34.563 -17.895 -24.641  0.00  0.00    +0.013 C 
ATOM     14  H   UNL     1      32.685 -15.498 -27.117  0.00  0.00    +0.155 HD
ENDROOT
BRANCH   6  16
ATOM     15  F   UNL     1      32.196 -11.488 -23.056  0.00  0.00    -0.204 F 
ATOM     16  C   UNL     1      33.068 -13.592 -22.380  0.00  0.00    +0.045 C 
ATOM     17  C   UNL     1      32.358 -12.428 -22.114  0.00  0.00    +0.142 C 
ATOM     18  C   UNL     1      33.234 -14.565 -21.403  0.00  0.00    +0.004 C 
ATOM     19  C   UNL     1      31.805 -12.235 -20.849  0.00  0.00    +0.030 C 
ATOM     20  C   UNL     1      32.681 -14.370 -20.137  0.00  0.00    +0.000 C 
ATOM     21  C   UNL     1      31.966 -13.205 -19.860  0.00  0.00    +0.002 C 
ENDBRANCH   6  16
BRANCH   7  23
ATOM     22  O   UNL     1      35.173 -11.227 -27.314  0.00  0.00    -0.247 OA
ATOM     23  C   UNL     1      34.599 -11.506 -26.270  0.00  0.00    +0.349 C 
BRANCH  23  24
ATOM     24  O   UNL     1      34.115 -10.621 -25.352  0.00  0.00    -0.447 OA
BRANCH  24  25
ATOM     25  C   UNL     1      35.074  -9.701 -24.819  0.00  0.00    +0.209 C 
ATOM     26  C   UNL     1      34.400  -8.836 -23.776  0.00  0.00    +0.051 C 
ENDBRANCH  24  25
ENDBRANCH  23  24
ENDBRANCH   7  23
TORSDOF 4
ENDMDL
