MODEL 1
REMARK VINA RESULT:      -8.7      0.000      0.000
REMARK  Name = 6256
REMARK  5 active torsions:
REMARK  status: ('A' for Active; 'I' for Inactive)
REMARK    1  A    between atoms: N_3  and  C1*_11
REMARK    2  A    between atoms: C_7  and  C_23
REMARK    3  A    between atoms: C3*_12  and  O3*_15
REMARK    4  A    between atoms: C4*_14  and  C5*_17
REMARK    5  A    between atoms: C5*_17  and  O5*_18
REMARK                            x       y       z     vdW  Elec       q    Type
REMARK                         _______ _______ _______ _____ _____    ______ ____
ROOT
ATOM      1  O   UNL     1      34.434 -22.987 -18.367  0.00  0.00    -0.252 OA
ATOM      2  O   UNL     1      30.037 -22.507 -17.112  0.00  0.00    -0.270 OA
ATOM      3  N   UNL     1      33.867 -23.468 -16.155  0.00  0.00    -0.219 N 
ATOM      4  N   UNL     1      32.244 -22.751 -17.728  0.00  0.00    -0.236 N 
ATOM      5  C   UNL     1      32.853 -23.530 -15.207  0.00  0.00    +0.080 C 
ATOM      6  C   UNL     1      33.584 -23.066 -17.477  0.00  0.00    +0.315 C 
ATOM      7  C   UNL     1      31.571 -23.228 -15.450  0.00  0.00    +0.140 C 
ATOM      8  C   UNL     1      31.195 -22.796 -16.822  0.00  0.00    +0.258 C 
ATOM      9  H   UNL     1      32.023 -22.468 -18.644  0.00  0.00    +0.159 HD
ENDROOT
BRANCH   3  11
ATOM     10  O4* UNL     1      35.135 -24.790 -14.699  0.00  0.00    -0.335 OA
ATOM     11  C1* UNL     1      35.198 -23.819 -15.754  0.00  0.00    +0.202 C 
ATOM     12  C3* UNL     1      36.878 -23.267 -14.185  0.00  0.00    +0.144 C 
ATOM     13  C2* UNL     1      35.990 -22.632 -15.231  0.00  0.00    +0.083 C 
ATOM     14  C4* UNL     1      36.008 -24.385 -13.627  0.00  0.00    +0.173 C 
BRANCH  12  15
ATOM     15  O3* UNL     1      38.036 -23.818 -14.808  0.00  0.00    -0.382 OA
ATOM     16  H3* UNL     1      38.832 -23.478 -14.369  0.00  0.00    +0.210 HD
ENDBRANCH  12  15
BRANCH  14  17
ATOM     17  C5* UNL     1      35.140 -23.934 -12.460  0.00  0.00    +0.169 C 
BRANCH  17  18
ATOM     18  O5* UNL     1      34.856 -25.056 -11.640  0.00  0.00    -0.379 OA
ATOM     19  H5* UNL     1      35.625 -25.648 -11.625  0.00  0.00    +0.211 HD
ENDBRANCH  17  18
ENDBRANCH  14  17
ENDBRANCH   3  11
BRANCH   7  23
ATOM     20  F   UNL     1      29.707 -24.381 -14.611  0.00  0.00    -0.166 F 
ATOM     21  F   UNL     1      31.016 -23.394 -13.175  0.00  0.00    -0.166 F 
ATOM     22  F   UNL     1      29.706 -22.206 -14.450  0.00  0.00    -0.166 F 
ATOM     23  C   UNL     1      30.494 -23.302 -14.416  0.00  0.00    +0.424 C 
ENDBRANCH   7  23
TORSDOF 5
ENDMDL
MODEL 2
REMARK VINA RESULT:      -8.6      1.240      1.926
REMARK  Name = 6256
REMARK  5 active torsions:
REMARK  status: ('A' for Active; 'I' for Inactive)
REMARK    1  A    between atoms: N_3  and  C1*_11
REMARK    2  A    between atoms: C_7  and  C_23
REMARK    3  A    between atoms: C3*_12  and  O3*_15
REMARK    4  A    between atoms: C4*_14  and  C5*_17
REMARK    5  A    between atoms: C5*_17  and  O5*_18
REMARK                            x       y       z     vdW  Elec       q    Type
REMARK                         _______ _______ _______ _____ _____    ______ ____
ROOT
ATOM      1  O   UNL     1      34.955 -22.823 -17.880  0.00  0.00    -0.252 OA
ATOM      2  O   UNL     1      30.434 -22.993 -17.057  0.00  0.00    -0.270 OA
ATOM      3  N   UNL     1      34.254 -23.165 -15.680  0.00  0.00    -0.219 N 
ATOM      4  N   UNL     1      32.703 -22.909 -17.456  0.00  0.00    -0.236 N 
ATOM      5  C   UNL     1      33.173 -23.306 -14.819  0.00  0.00    +0.080 C 
ATOM      6  C   UNL     1      34.044 -22.957 -17.060  0.00  0.00    +0.315 C 
ATOM      7  C   UNL     1      31.890 -23.260 -15.201  0.00  0.00    +0.140 C 
ATOM      8  C   UNL     1      31.589 -23.044 -16.641  0.00  0.00    +0.258 C 
ATOM      9  H   UNL     1      32.532 -22.764 -18.414  0.00  0.00    +0.159 HD
ENDROOT
BRANCH   3  11
ATOM     10  O4* UNL     1      36.347 -24.194 -15.872  0.00  0.00    -0.335 OA
ATOM     11  C1* UNL     1      35.576 -23.235 -15.132  0.00  0.00    +0.202 C 
ATOM     12  C3* UNL     1      36.887 -24.440 -13.576  0.00  0.00    +0.144 C 
ATOM     13  C2* UNL     1      35.590 -23.670 -13.676  0.00  0.00    +0.083 C 
ATOM     14  C4* UNL     1      37.014 -25.079 -14.953  0.00  0.00    +0.173 C 
BRANCH  12  15
ATOM     15  O3* UNL     1      37.967 -23.536 -13.359  0.00  0.00    -0.382 OA
ATOM     16  H3* UNL     1      38.484 -23.829 -12.592  0.00  0.00    +0.210 HD
ENDBRANCH  12  15
BRANCH  14  17
ATOM     17  C5* UNL     1      36.338 -26.442 -15.038  0.00  0.00    +0.169 C 
BRANCH  17  18
ATOM     18  O5* UNL     1      36.819 -27.120 -16.187  0.00  0.00    -0.379 OA
ATOM     19  H5* UNL     1      37.624 -27.611 -15.959  0.00  0.00    +0.211 HD
ENDBRANCH  17  18
ENDBRANCH  14  17
ENDBRANCH   3  11
BRANCH   7  23
ATOM     20  F   UNL     1      29.822 -22.444 -14.449  0.00  0.00    -0.166 F 
ATOM     21  F   UNL     1      30.125 -24.603 -14.432  0.00  0.00    -0.166 F 
ATOM     22  F   UNL     1      31.149 -23.348 -12.973  0.00  0.00    -0.166 F 
ATOM     23  C   UNL     1      30.741 -23.414 -14.258  0.00  0.00    +0.424 C 
ENDBRANCH   7  23
TORSDOF 5
ENDMDL
MODEL 3
REMARK VINA RESULT:      -8.3      8.947     10.554
REMARK  Name = 6256
REMARK  5 active torsions:
REMARK  status: ('A' for Active; 'I' for Inactive)
REMARK    1  A    between atoms: N_3  and  C1*_11
REMARK    2  A    between atoms: C_7  and  C_23
REMARK    3  A    between atoms: C3*_12  and  O3*_15
REMARK    4  A    between atoms: C4*_14  and  C5*_17
REMARK    5  A    between atoms: C5*_17  and  O5*_18
REMARK                            x       y       z     vdW  Elec       q    Type
REMARK                         _______ _______ _______ _____ _____    ______ ____
ROOT
ATOM      1  O   UNL     1      34.744 -18.225 -25.626  0.00  0.00    -0.252 OA
ATOM      2  O   UNL     1      32.816 -14.055 -25.439  0.00  0.00    -0.270 OA
ATOM      3  N   UNL     1      34.654 -17.151 -23.556  0.00  0.00    -0.219 N 
ATOM      4  N   UNL     1      33.786 -16.144 -25.519  0.00  0.00    -0.236 N 
ATOM      5  C   UNL     1      34.261 -16.016 -22.858  0.00  0.00    +0.080 C 
ATOM      6  C   UNL     1      34.421 -17.250 -24.944  0.00  0.00    +0.315 C 
ATOM      7  C   UNL     1      33.653 -14.960 -23.411  0.00  0.00    +0.140 C 
ATOM      8  C   UNL     1      33.373 -14.990 -24.871  0.00  0.00    +0.258 C 
ATOM      9  H   UNL     1      33.613 -16.190 -26.487  0.00  0.00    +0.159 HD
ENDROOT
BRANCH   3  11
ATOM     10  O4* UNL     1      34.429 -19.349 -22.787  0.00  0.00    -0.335 OA
ATOM     11  C1* UNL     1      35.298 -18.208 -22.834  0.00  0.00    +0.202 C 
ATOM     12  C3* UNL     1      35.481 -19.146 -20.671  0.00  0.00    +0.144 C 
ATOM     13  C2* UNL     1      35.627 -17.829 -21.399  0.00  0.00    +0.083 C 
ATOM     14  C4* UNL     1      34.359 -19.838 -21.433  0.00  0.00    +0.173 C 
BRANCH  12  15
ATOM     15  O3* UNL     1      36.686 -19.898 -20.791  0.00  0.00    -0.382 OA
ATOM     16  H3* UNL     1      36.803 -20.447 -20.000  0.00  0.00    +0.210 HD
ENDBRANCH  12  15
BRANCH  14  17
ATOM     17  C5* UNL     1      32.977 -19.506 -20.885  0.00  0.00    +0.169 C 
BRANCH  17  18
ATOM     18  O5* UNL     1      32.639 -20.456 -19.888  0.00  0.00    -0.379 OA
ATOM     19  H5* UNL     1      31.688 -20.641 -19.928  0.00  0.00    +0.211 HD
ENDBRANCH  17  18
ENDBRANCH  14  17
ENDBRANCH   3  11
BRANCH   7  23
ATOM     20  F   UNL     1      31.903 -13.559 -22.715  0.00  0.00    -0.166 F 
ATOM     21  F   UNL     1      33.563 -13.865 -21.336  0.00  0.00    -0.166 F 
ATOM     22  F   UNL     1      33.838 -12.636 -23.115  0.00  0.00    -0.166 F 
ATOM     23  C   UNL     1      33.237 -13.748 -22.640  0.00  0.00    +0.424 C 
ENDBRANCH   7  23
TORSDOF 5
ENDMDL
MODEL 4
REMARK VINA RESULT:      -8.3      3.630      4.604
REMARK  Name = 6256
REMARK  5 active torsions:
REMARK  status: ('A' for Active; 'I' for Inactive)
REMARK    1  A    between atoms: N_3  and  C1*_11
REMARK    2  A    between atoms: C_7  and  C_23
REMARK    3  A    between atoms: C3*_12  and  O3*_15
REMARK    4  A    between atoms: C4*_14  and  C5*_17
REMARK    5  A    between atoms: C5*_17  and  O5*_18
REMARK                            x       y       z     vdW  Elec       q    Type
REMARK                         _______ _______ _______ _____ _____    ______ ____
ROOT
ATOM      1  O   UNL     1      31.951 -23.734 -15.984  0.00  0.00    -0.252 OA
ATOM      2  O   UNL     1      32.921 -21.728 -20.007  0.00  0.00    -0.270 OA
ATOM      3  N   UNL     1      34.171 -23.157 -16.414  0.00  0.00    -0.219 N 
ATOM      4  N   UNL     1      32.448 -22.734 -17.987  0.00  0.00    -0.236 N 
ATOM      5  C   UNL     1      35.067 -22.593 -17.315  0.00  0.00    +0.080 C 
ATOM      6  C   UNL     1      32.800 -23.246 -16.734  0.00  0.00    +0.315 C 
ATOM      7  C   UNL     1      34.727 -22.104 -18.514  0.00  0.00    +0.140 C 
ATOM      8  C   UNL     1      33.298 -22.161 -18.921  0.00  0.00    +0.258 C 
ATOM      9  H   UNL     1      31.496 -22.784 -18.232  0.00  0.00    +0.159 HD
ENDROOT
BRANCH   3  11
ATOM     10  O4* UNL     1      35.724 -22.777 -14.706  0.00  0.00    -0.335 OA
ATOM     11  C1* UNL     1      34.676 -23.643 -15.164  0.00  0.00    +0.202 C 
ATOM     12  C3* UNL     1      36.370 -25.011 -14.243  0.00  0.00    +0.144 C 
ATOM     13  C2* UNL     1      35.257 -25.044 -15.265  0.00  0.00    +0.083 C 
ATOM     14  C4* UNL     1      36.860 -23.571 -14.314  0.00  0.00    +0.173 C 
BRANCH  12  15
ATOM     15  O3* UNL     1      35.841 -25.281 -12.947  0.00  0.00    -0.382 OA
ATOM     16  H3* UNL     1      35.163 -24.621 -12.732  0.00  0.00    +0.210 HD
ENDBRANCH  12  15
BRANCH  14  17
ATOM     17  C5* UNL     1      37.956 -23.367 -15.353  0.00  0.00    +0.169 C 
BRANCH  17  18
ATOM     18  O5* UNL     1      38.918 -24.399 -15.211  0.00  0.00    -0.379 OA
ATOM     19  H5* UNL     1      39.358 -24.315 -14.351  0.00  0.00    +0.211 HD
ENDBRANCH  17  18
ENDBRANCH  14  17
ENDBRANCH   3  11
BRANCH   7  23
ATOM     20  F   UNL     1      36.925 -21.378 -18.900  0.00  0.00    -0.166 F 
ATOM     21  F   UNL     1      35.843 -22.263 -20.573  0.00  0.00    -0.166 F 
ATOM     22  F   UNL     1      35.312 -20.271 -19.863  0.00  0.00    -0.166 F 
ATOM     23  C   UNL     1      35.707 -21.500 -19.468  0.00  0.00    +0.424 C 
ENDBRANCH   7  23
TORSDOF 5
ENDMDL
MODEL 5
REMARK VINA RESULT:      -8.2      2.823      3.852
REMARK  Name = 6256
REMARK  5 active torsions:
REMARK  status: ('A' for Active; 'I' for Inactive)
REMARK    1  A    between atoms: N_3  and  C1*_11
REMARK    2  A    between atoms: C_7  and  C_23
REMARK    3  A    between atoms: C3*_12  and  O3*_15
REMARK    4  A    between atoms: C4*_14  and  C5*_17
REMARK    5  A    between atoms: C5*_17  and  O5*_18
REMARK                            x       y       z     vdW  Elec       q    Type
REMARK                         _______ _______ _______ _____ _____    ______ ____
ROOT
ATOM      1  O   UNL     1      32.424 -24.559 -13.373  0.00  0.00    -0.252 OA
ATOM      2  O   UNL     1      31.133 -22.573 -17.315  0.00  0.00    -0.270 OA
ATOM      3  N   UNL     1      34.068 -24.128 -14.973  0.00  0.00    -0.219 N 
ATOM      4  N   UNL     1      31.793 -23.570 -15.344  0.00  0.00    -0.236 N 
ATOM      5  C   UNL     1      34.350 -23.614 -16.232  0.00  0.00    +0.080 C 
ATOM      6  C   UNL     1      32.746 -24.120 -14.479  0.00  0.00    +0.315 C 
ATOM      7  C   UNL     1      33.436 -23.088 -17.057  0.00  0.00    +0.140 C 
ATOM      8  C   UNL     1      32.020 -23.044 -16.607  0.00  0.00    +0.258 C 
ATOM      9  H   UNL     1      30.864 -23.554 -15.021  0.00  0.00    +0.159 HD
ENDROOT
BRANCH   3  11
ATOM     10  O4* UNL     1      36.064 -23.608 -13.868  0.00  0.00    -0.335 OA
ATOM     11  C1* UNL     1      35.147 -24.662 -14.196  0.00  0.00    +0.202 C 
ATOM     12  C3* UNL     1      37.334 -25.539 -14.399  0.00  0.00    +0.144 C 
ATOM     13  C2* UNL     1      35.934 -25.733 -14.935  0.00  0.00    +0.083 C 
ATOM     14  C4* UNL     1      37.407 -24.036 -14.164  0.00  0.00    +0.173 C 
BRANCH  12  15
ATOM     15  O3* UNL     1      37.475 -26.231 -13.161  0.00  0.00    -0.382 OA
ATOM     16  H3* UNL     1      38.403 -26.203 -12.880  0.00  0.00    +0.210 HD
ENDBRANCH  12  15
BRANCH  14  17
ATOM     17  C5* UNL     1      37.886 -23.267 -15.389  0.00  0.00    +0.169 C 
BRANCH  17  18
ATOM     18  O5* UNL     1      39.126 -23.808 -15.814  0.00  0.00    -0.379 OA
ATOM     19  H5* UNL     1      39.211 -24.717 -15.487  0.00  0.00    +0.211 HD
ENDBRANCH  17  18
ENDBRANCH  14  17
ENDBRANCH   3  11
BRANCH   7  23
ATOM     20  F   UNL     1      33.669 -23.497 -19.357  0.00  0.00    -0.166 F 
ATOM     21  F   UNL     1      32.914 -21.544 -18.748  0.00  0.00    -0.166 F 
ATOM     22  F   UNL     1      35.016 -22.042 -18.448  0.00  0.00    -0.166 F 
ATOM     23  C   UNL     1      33.761 -22.540 -18.409  0.00  0.00    +0.424 C 
ENDBRANCH   7  23
TORSDOF 5
ENDMDL
MODEL 6
REMARK VINA RESULT:      -8.1      1.906      2.626
REMARK  Name = 6256
REMARK  5 active torsions:
REMARK  status: ('A' for Active; 'I' for Inactive)
REMARK    1  A    between atoms: N_3  and  C1*_11
REMARK    2  A    between atoms: C_7  and  C_23
REMARK    3  A    between atoms: C3*_12  and  O3*_15
REMARK    4  A    between atoms: C4*_14  and  C5*_17
REMARK    5  A    between atoms: C5*_17  and  O5*_18
REMARK                            x       y       z     vdW  Elec       q    Type
REMARK                         _______ _______ _______ _____ _____    ______ ____
ROOT
ATOM      1  O   UNL     1      36.959 -22.610 -16.764  0.00  0.00    -0.252 OA
ATOM      2  O   UNL     1      32.422 -23.294 -17.059  0.00  0.00    -0.270 OA
ATOM      3  N   UNL     1      35.825 -23.280 -14.838  0.00  0.00    -0.219 N 
ATOM      4  N   UNL     1      34.695 -22.954 -16.898  0.00  0.00    -0.236 N 
ATOM      5  C   UNL     1      34.601 -23.624 -14.277  0.00  0.00    +0.080 C 
ATOM      6  C   UNL     1      35.909 -22.926 -16.201  0.00  0.00    +0.315 C 
ATOM      7  C   UNL     1      33.441 -23.650 -14.945  0.00  0.00    +0.140 C 
ATOM      8  C   UNL     1      33.450 -23.289 -16.388  0.00  0.00    +0.258 C 
ATOM      9  H   UNL     1      34.729 -22.710 -17.851  0.00  0.00    +0.159 HD
ENDROOT
BRANCH   3  11
ATOM     10  O4* UNL     1      37.721 -24.507 -14.228  0.00  0.00    -0.335 OA
ATOM     11  C1* UNL     1      36.988 -23.295 -14.001  0.00  0.00    +0.202 C 
ATOM     12  C3* UNL     1      37.763 -24.055 -11.901  0.00  0.00    +0.144 C 
ATOM     13  C2* UNL     1      36.651 -23.239 -12.520  0.00  0.00    +0.083 C 
ATOM     14  C4* UNL     1      38.048 -25.110 -12.961  0.00  0.00    +0.173 C 
BRANCH  12  15
ATOM     15  O3* UNL     1      38.913 -23.233 -11.711  0.00  0.00    -0.382 OA
ATOM     16  H3* UNL     1      39.560 -23.418 -12.410  0.00  0.00    +0.210 HD
ENDBRANCH  12  15
BRANCH  14  17
ATOM     17  C5* UNL     1      37.190 -26.358 -12.801  0.00  0.00    +0.169 C 
BRANCH  17  18
ATOM     18  O5* UNL     1      36.742 -26.773 -14.080  0.00  0.00    -0.379 OA
ATOM     19  H5* UNL     1      36.875 -27.729 -14.175  0.00  0.00    +0.211 HD
ENDBRANCH  17  18
ENDBRANCH  14  17
ENDBRANCH   3  11
BRANCH   7  23
ATOM     20  F   UNL     1      32.323 -24.760 -13.207  0.00  0.00    -0.166 F 
ATOM     21  F   UNL     1      31.430 -22.926 -13.974  0.00  0.00    -0.166 F 
ATOM     22  F   UNL     1      31.376 -24.747 -15.172  0.00  0.00    -0.166 F 
ATOM     23  C   UNL     1      32.135 -24.023 -14.322  0.00  0.00    +0.424 C 
ENDBRANCH   7  23
TORSDOF 5
ENDMDL
MODEL 7
REMARK VINA RESULT:      -8.0      7.105      9.373
REMARK  Name = 6256
REMARK  5 active torsions:
REMARK  status: ('A' for Active; 'I' for Inactive)
REMARK    1  A    between atoms: N_3  and  C1*_11
REMARK    2  A    between atoms: C_7  and  C_23
REMARK    3  A    between atoms: C3*_12  and  O3*_15
REMARK    4  A    between atoms: C4*_14  and  C5*_17
REMARK    5  A    between atoms: C5*_17  and  O5*_18
REMARK                            x       y       z     vdW  Elec       q    Type
REMARK                         _______ _______ _______ _____ _____    ______ ____
ROOT
ATOM      1  O   UNL     1      38.014 -18.644 -21.742  0.00  0.00    -0.252 OA
ATOM      2  O   UNL     1      35.532 -21.328 -18.952  0.00  0.00    -0.270 OA
ATOM      3  N   UNL     1      35.727 -18.843 -22.161  0.00  0.00    -0.219 N 
ATOM      4  N   UNL     1      36.765 -19.980 -20.358  0.00  0.00    -0.236 N 
ATOM      5  C   UNL     1      34.524 -19.416 -21.767  0.00  0.00    +0.080 C 
ATOM      6  C   UNL     1      36.913 -19.116 -21.448  0.00  0.00    +0.315 C 
ATOM      7  C   UNL     1      34.385 -20.242 -20.724  0.00  0.00    +0.140 C 
ATOM      8  C   UNL     1      35.591 -20.578 -19.922  0.00  0.00    +0.258 C 
ATOM      9  H   UNL     1      37.580 -20.186 -19.846  0.00  0.00    +0.159 HD
ENDROOT
BRANCH   3  11
ATOM     10  O4* UNL     1      35.729 -16.610 -22.860  0.00  0.00    -0.335 OA
ATOM     11  C1* UNL     1      35.728 -17.975 -23.302  0.00  0.00    +0.202 C 
ATOM     12  C3* UNL     1      34.278 -16.771 -24.729  0.00  0.00    +0.144 C 
ATOM     13  C2* UNL     1      34.509 -18.164 -24.190  0.00  0.00    +0.083 C 
ATOM     14  C4* UNL     1      34.714 -15.878 -23.575  0.00  0.00    +0.173 C 
BRANCH  12  15
ATOM     15  O3* UNL     1      35.118 -16.548 -25.860  0.00  0.00    -0.382 OA
ATOM     16  H3* UNL     1      34.815 -17.098 -26.600  0.00  0.00    +0.210 HD
ENDBRANCH  12  15
BRANCH  14  17
ATOM     17  C5* UNL     1      33.583 -15.572 -22.603  0.00  0.00    +0.169 C 
BRANCH  17  18
ATOM     18  O5* UNL     1      34.089 -15.625 -21.279  0.00  0.00    -0.379 OA
ATOM     19  H5* UNL     1      33.478 -16.128 -20.719  0.00  0.00    +0.211 HD
ENDBRANCH  17  18
ENDBRANCH  14  17
ENDBRANCH   3  11
BRANCH   7  23
ATOM     20  F   UNL     1      33.187 -22.186 -20.182  0.00  0.00    -0.166 F 
ATOM     21  F   UNL     1      32.660 -20.349 -19.134  0.00  0.00    -0.166 F 
ATOM     22  F   UNL     1      32.118 -20.601 -21.231  0.00  0.00    -0.166 F 
ATOM     23  C   UNL     1      33.080 -20.848 -20.316  0.00  0.00    +0.424 C 
ENDBRANCH   7  23
TORSDOF 5
ENDMDL
MODEL 8
REMARK VINA RESULT:      -7.8      9.606     11.580
REMARK  Name = 6256
REMARK  5 active torsions:
REMARK  status: ('A' for Active; 'I' for Inactive)
REMARK    1  A    between atoms: N_3  and  C1*_11
REMARK    2  A    between atoms: C_7  and  C_23
REMARK    3  A    between atoms: C3*_12  and  O3*_15
REMARK    4  A    between atoms: C4*_14  and  C5*_17
REMARK    5  A    between atoms: C5*_17  and  O5*_18
REMARK                            x       y       z     vdW  Elec       q    Type
REMARK                         _______ _______ _______ _____ _____    ______ ____
ROOT
ATOM      1  O   UNL     1      33.920 -15.762 -26.260  0.00  0.00    -0.252 OA
ATOM      2  O   UNL     1      34.956 -19.854 -24.438  0.00  0.00    -0.270 OA
ATOM      3  N   UNL     1      34.334 -15.867 -23.966  0.00  0.00    -0.219 N 
ATOM      4  N   UNL     1      34.437 -17.797 -25.338  0.00  0.00    -0.236 N 
ATOM      5  C   UNL     1      34.662 -16.676 -22.885  0.00  0.00    +0.080 C 
ATOM      6  C   UNL     1      34.209 -16.419 -25.258  0.00  0.00    +0.315 C 
ATOM      7  C   UNL     1      34.880 -17.994 -22.965  0.00  0.00    +0.140 C 
ATOM      8  C   UNL     1      34.767 -18.649 -24.295  0.00  0.00    +0.258 C 
ATOM      9  H   UNL     1      34.355 -18.206 -26.230  0.00  0.00    +0.159 HD
ENDROOT
BRANCH   3  11
ATOM     10  O4* UNL     1      34.396 -14.171 -22.355  0.00  0.00    -0.335 OA
ATOM     11  C1* UNL     1      34.127 -14.468 -23.733  0.00  0.00    +0.202 C 
ATOM     12  C3* UNL     1      32.490 -12.921 -23.013  0.00  0.00    +0.144 C 
ATOM     13  C2* UNL     1      32.702 -14.025 -24.023  0.00  0.00    +0.083 C 
ATOM     14  C4* UNL     1      33.314 -13.384 -21.819  0.00  0.00    +0.173 C 
BRANCH  12  15
ATOM     15  O3* UNL     1      33.017 -11.697 -23.521  0.00  0.00    -0.382 OA
ATOM     16  H3* UNL     1      32.997 -11.715 -24.490  0.00  0.00    +0.210 HD
ENDBRANCH  12  15
BRANCH  14  17
ATOM     17  C5* UNL     1      32.524 -14.265 -20.859  0.00  0.00    +0.169 C 
BRANCH  17  18
ATOM     18  O5* UNL     1      33.421 -15.146 -20.203  0.00  0.00    -0.379 OA
ATOM     19  H5* UNL     1      32.923 -15.733 -19.613  0.00  0.00    +0.211 HD
ENDBRANCH  17  18
ENDBRANCH  14  17
ENDBRANCH   3  11
BRANCH   7  23
ATOM     20  F   UNL     1      36.550 -19.141 -21.780  0.00  0.00    -0.166 F 
ATOM     21  F   UNL     1      34.944 -18.220 -20.629  0.00  0.00    -0.166 F 
ATOM     22  F   UNL     1      34.551 -20.012 -21.806  0.00  0.00    -0.166 F 
ATOM     23  C   UNL     1      35.233 -18.847 -21.789  0.00  0.00    +0.424 C 
ENDBRANCH   7  23
TORSDOF 5
ENDMDL
MODEL 9
REMARK VINA RESULT:      -7.8      2.974      5.400
REMARK  Name = 6256
REMARK  5 active torsions:
REMARK  status: ('A' for Active; 'I' for Inactive)
REMARK    1  A    between atoms: N_3  and  C1*_11
REMARK    2  A    between atoms: C_7  and  C_23
REMARK    3  A    between atoms: C3*_12  and  O3*_15
REMARK    4  A    between atoms: C4*_14  and  C5*_17
REMARK    5  A    between atoms: C5*_17  and  O5*_18
REMARK                            x       y       z     vdW  Elec       q    Type
REMARK                         _______ _______ _______ _____ _____    ______ ____
ROOT
ATOM      1  O   UNL     1      35.845 -22.496 -17.233  0.00  0.00    -0.252 OA
ATOM      2  O   UNL     1      38.647 -24.473 -14.170  0.00  0.00    -0.270 OA
ATOM      3  N   UNL     1      34.914 -23.277 -15.241  0.00  0.00    -0.219 N 
ATOM      4  N   UNL     1      37.231 -23.485 -15.698  0.00  0.00    -0.236 N 
ATOM      5  C   UNL     1      35.146 -23.902 -14.022  0.00  0.00    +0.080 C 
ATOM      6  C   UNL     1      35.978 -23.044 -16.137  0.00  0.00    +0.315 C 
ATOM      7  C   UNL     1      36.346 -24.323 -13.604  0.00  0.00    +0.140 C 
ATOM      8  C   UNL     1      37.518 -24.112 -14.494  0.00  0.00    +0.258 C 
ATOM      9  H   UNL     1      37.989 -23.333 -16.306  0.00  0.00    +0.159 HD
ENDROOT
BRANCH   3  11
ATOM     10  O4* UNL     1      32.770 -22.926 -14.372  0.00  0.00    -0.335 OA
ATOM     11  C1* UNL     1      33.574 -22.879 -15.559  0.00  0.00    +0.202 C 
ATOM     12  C3* UNL     1      31.465 -23.757 -16.169  0.00  0.00    +0.144 C 
ATOM     13  C2* UNL     1      32.917 -23.786 -16.588  0.00  0.00    +0.083 C 
ATOM     14  C4* UNL     1      31.546 -23.631 -14.654  0.00  0.00    +0.173 C 
BRANCH  12  15
ATOM     15  O3* UNL     1      30.829 -22.605 -16.719  0.00  0.00    -0.382 OA
ATOM     16  H3* UNL     1      29.971 -22.473 -16.286  0.00  0.00    +0.210 HD
ENDBRANCH  12  15
BRANCH  14  17
ATOM     17  C5* UNL     1      31.609 -24.981 -13.950  0.00  0.00    +0.169 C 
BRANCH  17  18
ATOM     18  O5* UNL     1      30.681 -24.982 -12.878  0.00  0.00    -0.379 OA
ATOM     19  H5* UNL     1      29.791 -25.157 -13.221  0.00  0.00    +0.211 HD
ENDBRANCH  17  18
ENDBRANCH  14  17
ENDBRANCH   3  11
BRANCH   7  23
ATOM     20  F   UNL     1      36.948 -26.280 -12.457  0.00  0.00    -0.166 F 
ATOM     21  F   UNL     1      37.548 -24.373 -11.588  0.00  0.00    -0.166 F 
ATOM     22  F   UNL     1      35.456 -24.985 -11.533  0.00  0.00    -0.166 F 
ATOM     23  C   UNL     1      36.575 -24.994 -12.288  0.00  0.00    +0.424 C 
ENDBRANCH   7  23
TORSDOF 5
ENDMDL
