MODEL 1
REMARK VINA RESULT:     -10.6      0.000      0.000
REMARK  Name = 15118984
REMARK  11 active torsions:
REMARK  status: ('A' for Active; 'I' for Inactive)
REMARK    1  A    between atoms: C_1  and  C_4
REMARK    2  A    between atoms: C_1  and  N_13
REMARK    3  A    between atoms: C_1  and  C_24
REMARK    4  A    between atoms: N_3  and  C_6
REMARK    5  A    between atoms: C_6  and  C_9
REMARK    6  A    between atoms: C_9  and  C_11
REMARK    7  A    between atoms: C_14  and  O_16
REMARK    8  A    between atoms: O_16  and  C_17
REMARK    9  A    between atoms: C_17  and  C_18
REMARK   10  A    between atoms: C_24  and  C_25
REMARK   11  A    between atoms: C_30  and  O_31
REMARK                            x       y       z     vdW  Elec       q    Type
REMARK                         _______ _______ _______ _____ _____    ______ ____
ROOT
ATOM      1  C   UNL     1      33.340 -23.898 -13.949  0.00  0.00    +0.155 C 
ENDROOT
BRANCH   1   4
ATOM      2  O   UNL     1      34.665 -24.137 -11.934  0.00  0.00    -0.273 OA
ATOM      3  N   UNL     1      35.474 -25.047 -13.909  0.00  0.00    -0.298 N 
ATOM      4  C   UNL     1      34.543 -24.366 -13.137  0.00  0.00    +0.241 C 
ATOM      5  H   UNL     1      35.290 -25.184 -14.865  0.00  0.00    +0.150 HD
BRANCH   3   6
ATOM      6  C   UNL     1      36.703 -25.560 -13.353  0.00  0.00    +0.132 C 
ATOM      7  C   UNL     1      37.224 -26.752 -14.136  0.00  0.00    +0.029 C 
BRANCH   6   9
ATOM      8  O   UNL     1      38.176 -23.964 -14.409  0.00  0.00    -0.291 OA
ATOM      9  C   UNL     1      37.714 -24.425 -13.366  0.00  0.00    +0.204 C 
BRANCH   9  11
ATOM     10  F   UNL     1      37.541 -22.754 -11.698  0.00  0.00    -0.226 F 
ATOM     11  C   UNL     1      38.170 -23.916 -12.023  0.00  0.00    +0.259 C 
ENDBRANCH   9  11
ENDBRANCH   6   9
ENDBRANCH   3   6
ENDBRANCH   1   4
BRANCH   1  13
ATOM     12  O   UNL     1      35.307 -22.237 -15.294  0.00  0.00    -0.226 OA
ATOM     13  N   UNL     1      33.738 -23.941 -15.357  0.00  0.00    -0.264 N 
ATOM     14  C   UNL     1      34.682 -23.107 -15.892  0.00  0.00    +0.402 C 
ATOM     15  H   UNL     1      33.307 -24.601 -15.947  0.00  0.00    +0.153 HD
BRANCH  14  16
ATOM     16  O   UNL     1      34.829 -23.392 -17.219  0.00  0.00    -0.430 OA
BRANCH  16  17
ATOM     17  C   UNL     1      33.721 -23.049 -18.059  0.00  0.00    +0.237 C 
BRANCH  17  18
ATOM     18  C   UNL     1      34.144 -21.970 -19.012  0.00  0.00    +0.021 C 
ATOM     19  C   UNL     1      35.496 -21.773 -19.274  0.00  0.00    -0.001 C 
ATOM     20  C   UNL     1      33.181 -21.176 -19.625  0.00  0.00    -0.001 C 
ATOM     21  C   UNL     1      35.889 -20.771 -20.159  0.00  0.00    -0.000 C 
ATOM     22  C   UNL     1      33.575 -20.173 -20.511  0.00  0.00    -0.000 C 
ATOM     23  C   UNL     1      34.929 -19.970 -20.778  0.00  0.00    -0.000 C 
ENDBRANCH  17  18
ENDBRANCH  16  17
ENDBRANCH  14  16
ENDBRANCH   1  13
BRANCH   1  24
ATOM     24  C   UNL     1      32.135 -24.822 -13.718  0.00  0.00    +0.055 C 
BRANCH  24  25
ATOM     25  C   UNL     1      30.890 -24.352 -14.433  0.00  0.00    -0.020 C 
ATOM     26  C   UNL     1      30.629 -22.993 -14.514  0.00  0.00    -0.001 C 
ATOM     27  C   UNL     1      30.035 -25.286 -14.993  0.00  0.00    -0.001 C 
ATOM     28  C   UNL     1      29.480 -22.558 -15.174  0.00  0.00    +0.036 C 
ATOM     29  C   UNL     1      28.886 -24.851 -15.653  0.00  0.00    +0.036 C 
ATOM     30  C   UNL     1      28.608 -23.487 -15.744  0.00  0.00    +0.134 C 
BRANCH  30  31
ATOM     31  O   UNL     1      27.488 -23.062 -16.388  0.00  0.00    -0.506 OA
ATOM     32  H   UNL     1      27.142 -22.209 -16.214  0.00  0.00    +0.292 HD
ENDBRANCH  30  31
ENDBRANCH  24  25
ENDBRANCH   1  24
TORSDOF 11
ENDMDL
MODEL 2
REMARK VINA RESULT:     -10.2      1.680      2.199
REMARK  Name = 15118984
REMARK  11 active torsions:
REMARK  status: ('A' for Active; 'I' for Inactive)
REMARK    1  A    between atoms: C_1  and  C_4
REMARK    2  A    between atoms: C_1  and  N_13
REMARK    3  A    between atoms: C_1  and  C_24
REMARK    4  A    between atoms: N_3  and  C_6
REMARK    5  A    between atoms: C_6  and  C_9
REMARK    6  A    between atoms: C_9  and  C_11
REMARK    7  A    between atoms: C_14  and  O_16
REMARK    8  A    between atoms: O_16  and  C_17
REMARK    9  A    between atoms: C_17  and  C_18
REMARK   10  A    between atoms: C_24  and  C_25
REMARK   11  A    between atoms: C_30  and  O_31
REMARK                            x       y       z     vdW  Elec       q    Type
REMARK                         _______ _______ _______ _____ _____    ______ ____
ROOT
ATOM      1  C   UNL     1      32.848 -23.525 -15.409  0.00  0.00    +0.155 C 
ENDROOT
BRANCH   1   4
ATOM      2  O   UNL     1      34.013 -23.859 -13.310  0.00  0.00    -0.273 OA
ATOM      3  N   UNL     1      35.157 -24.253 -15.289  0.00  0.00    -0.298 N 
ATOM      4  C   UNL     1      34.045 -23.897 -14.539  0.00  0.00    +0.241 C 
ATOM      5  H   UNL     1      35.090 -24.255 -16.270  0.00  0.00    +0.150 HD
BRANCH   3   6
ATOM      6  C   UNL     1      36.411 -24.619 -14.674  0.00  0.00    +0.132 C 
ATOM      7  C   UNL     1      36.762 -26.074 -14.931  0.00  0.00    +0.029 C 
BRANCH   6   9
ATOM      8  O   UNL     1      38.668 -23.805 -14.940  0.00  0.00    -0.291 OA
ATOM      9  C   UNL     1      37.480 -23.701 -15.242  0.00  0.00    +0.204 C 
BRANCH   9  11
ATOM     10  F   UNL     1      37.836 -21.532 -16.124  0.00  0.00    -0.226 F 
ATOM     11  C   UNL     1      37.006 -22.609 -16.168  0.00  0.00    +0.259 C 
ENDBRANCH   9  11
ENDBRANCH   6   9
ENDBRANCH   3   6
ENDBRANCH   1   4
BRANCH   1  13
ATOM     12  O   UNL     1      31.698 -22.094 -17.660  0.00  0.00    -0.226 OA
ATOM     13  N   UNL     1      33.324 -23.499 -16.793  0.00  0.00    -0.264 N 
ATOM     14  C   UNL     1      32.703 -22.787 -17.783  0.00  0.00    +0.402 C 
ATOM     15  H   UNL     1      34.128 -24.019 -17.022  0.00  0.00    +0.153 HD
BRANCH  14  16
ATOM     16  O   UNL     1      33.382 -22.966 -18.954  0.00  0.00    -0.430 OA
BRANCH  16  17
ATOM     17  C   UNL     1      34.697 -22.402 -19.007  0.00  0.00    +0.237 C 
BRANCH  17  18
ATOM     18  C   UNL     1      34.663 -21.156 -19.841  0.00  0.00    +0.021 C 
ATOM     19  C   UNL     1      33.439 -20.606 -20.209  0.00  0.00    -0.001 C 
ATOM     20  C   UNL     1      35.855 -20.561 -20.241  0.00  0.00    -0.001 C 
ATOM     21  C   UNL     1      33.407 -19.448 -20.985  0.00  0.00    -0.000 C 
ATOM     22  C   UNL     1      35.823 -19.402 -21.017  0.00  0.00    -0.000 C 
ATOM     23  C   UNL     1      34.599 -18.846 -21.389  0.00  0.00    -0.000 C 
ENDBRANCH  17  18
ENDBRANCH  16  17
ENDBRANCH  14  16
ENDBRANCH   1  13
BRANCH   1  24
ATOM     24  C   UNL     1      31.725 -24.562 -15.261  0.00  0.00    +0.055 C 
BRANCH  24  25
ATOM     25  C   UNL     1      30.350 -23.967 -15.450  0.00  0.00    -0.020 C 
ATOM     26  C   UNL     1      30.052 -22.749 -14.860  0.00  0.00    -0.001 C 
ATOM     27  C   UNL     1      29.414 -24.650 -16.208  0.00  0.00    -0.001 C 
ATOM     28  C   UNL     1      28.782 -22.199 -15.035  0.00  0.00    +0.036 C 
ATOM     29  C   UNL     1      28.144 -24.100 -16.383  0.00  0.00    +0.036 C 
ATOM     30  C   UNL     1      27.828 -22.874 -15.797  0.00  0.00    +0.134 C 
BRANCH  30  31
ATOM     31  O   UNL     1      26.590 -22.337 -15.967  0.00  0.00    -0.506 OA
ATOM     32  H   UNL     1      25.964 -22.766 -16.517  0.00  0.00    +0.292 HD
ENDBRANCH  30  31
ENDBRANCH  24  25
ENDBRANCH   1  24
TORSDOF 11
ENDMDL
MODEL 3
REMARK VINA RESULT:     -10.1      1.341      2.054
REMARK  Name = 15118984
REMARK  11 active torsions:
REMARK  status: ('A' for Active; 'I' for Inactive)
REMARK    1  A    between atoms: C_1  and  C_4
REMARK    2  A    between atoms: C_1  and  N_13
REMARK    3  A    between atoms: C_1  and  C_24
REMARK    4  A    between atoms: N_3  and  C_6
REMARK    5  A    between atoms: C_6  and  C_9
REMARK    6  A    between atoms: C_9  and  C_11
REMARK    7  A    between atoms: C_14  and  O_16
REMARK    8  A    between atoms: O_16  and  C_17
REMARK    9  A    between atoms: C_17  and  C_18
REMARK   10  A    between atoms: C_24  and  C_25
REMARK   11  A    between atoms: C_30  and  O_31
REMARK                            x       y       z     vdW  Elec       q    Type
REMARK                         _______ _______ _______ _____ _____    ______ ____
ROOT
ATOM      1  C   UNL     1      33.485 -23.636 -14.742  0.00  0.00    +0.155 C 
ENDROOT
BRANCH   1   4
ATOM      2  O   UNL     1      35.277 -25.265 -14.816  0.00  0.00    -0.273 OA
ATOM      3  N   UNL     1      35.467 -23.472 -13.357  0.00  0.00    -0.298 N 
ATOM      4  C   UNL     1      34.832 -24.224 -14.334  0.00  0.00    +0.241 C 
ATOM      5  H   UNL     1      35.034 -22.651 -13.031  0.00  0.00    +0.150 HD
BRANCH   3   6
ATOM      6  C   UNL     1      36.744 -23.855 -12.803  0.00  0.00    +0.132 C 
ATOM      7  C   UNL     1      37.310 -22.780 -11.892  0.00  0.00    +0.029 C 
BRANCH   6   9
ATOM      8  O   UNL     1      35.728 -25.253 -11.117  0.00  0.00    -0.291 OA
ATOM      9  C   UNL     1      36.536 -25.152 -12.040  0.00  0.00    +0.204 C 
BRANCH   9  11
ATOM     10  F   UNL     1      38.419 -25.912 -13.258  0.00  0.00    -0.226 F 
ATOM     11  C   UNL     1      37.410 -26.314 -12.437  0.00  0.00    +0.259 C 
ENDBRANCH   9  11
ENDBRANCH   6   9
ENDBRANCH   3   6
ENDBRANCH   1   4
BRANCH   1  13
ATOM     12  O   UNL     1      35.550 -22.372 -16.348  0.00  0.00    -0.226 OA
ATOM     13  N   UNL     1      33.518 -23.476 -16.197  0.00  0.00    -0.264 N 
ATOM     14  C   UNL     1      34.546 -22.860 -16.857  0.00  0.00    +0.402 C 
ATOM     15  H   UNL     1      32.765 -23.828 -16.725  0.00  0.00    +0.153 HD
BRANCH  14  16
ATOM     16  O   UNL     1      34.284 -22.869 -18.198  0.00  0.00    -0.430 OA
BRANCH  16  17
ATOM     17  C   UNL     1      35.293 -22.294 -19.036  0.00  0.00    +0.237 C 
BRANCH  17  18
ATOM     18  C   UNL     1      34.701 -21.147 -19.800  0.00  0.00    +0.021 C 
ATOM     19  C   UNL     1      33.320 -20.978 -19.828  0.00  0.00    -0.001 C 
ATOM     20  C   UNL     1      35.536 -20.263 -20.473  0.00  0.00    -0.001 C 
ATOM     21  C   UNL     1      32.769 -19.912 -20.537  0.00  0.00    -0.000 C 
ATOM     22  C   UNL     1      34.985 -19.196 -21.183  0.00  0.00    -0.000 C 
ATOM     23  C   UNL     1      33.601 -19.020 -21.215  0.00  0.00    -0.000 C 
ENDBRANCH  17  18
ENDBRANCH  16  17
ENDBRANCH  14  16
ENDBRANCH   1  13
BRANCH   1  24
ATOM     24  C   UNL     1      32.337 -24.576 -14.345  0.00  0.00    +0.055 C 
BRANCH  24  25
ATOM     25  C   UNL     1      30.995 -24.113 -14.861  0.00  0.00    -0.020 C 
ATOM     26  C   UNL     1      30.630 -22.786 -14.703  0.00  0.00    -0.001 C 
ATOM     27  C   UNL     1      30.157 -25.023 -15.481  0.00  0.00    -0.001 C 
ATOM     28  C   UNL     1      29.392 -22.358 -15.179  0.00  0.00    +0.036 C 
ATOM     29  C   UNL     1      28.918 -24.595 -15.958  0.00  0.00    +0.036 C 
ATOM     30  C   UNL     1      28.535 -23.262 -15.808  0.00  0.00    +0.134 C 
BRANCH  30  31
ATOM     31  O   UNL     1      27.327 -22.844 -16.273  0.00  0.00    -0.506 OA
ATOM     32  H   UNL     1      27.282 -22.261 -17.004  0.00  0.00    +0.292 HD
ENDBRANCH  30  31
ENDBRANCH  24  25
ENDBRANCH   1  24
TORSDOF 11
ENDMDL
MODEL 4
REMARK VINA RESULT:      -9.8      2.805      7.315
REMARK  Name = 15118984
REMARK  11 active torsions:
REMARK  status: ('A' for Active; 'I' for Inactive)
REMARK    1  A    between atoms: C_1  and  C_4
REMARK    2  A    between atoms: C_1  and  N_13
REMARK    3  A    between atoms: C_1  and  C_24
REMARK    4  A    between atoms: N_3  and  C_6
REMARK    5  A    between atoms: C_6  and  C_9
REMARK    6  A    between atoms: C_9  and  C_11
REMARK    7  A    between atoms: C_14  and  O_16
REMARK    8  A    between atoms: O_16  and  C_17
REMARK    9  A    between atoms: C_17  and  C_18
REMARK   10  A    between atoms: C_24  and  C_25
REMARK   11  A    between atoms: C_30  and  O_31
REMARK                            x       y       z     vdW  Elec       q    Type
REMARK                         _______ _______ _______ _____ _____    ______ ____
ROOT
ATOM      1  C   UNL     1      34.893 -22.178 -17.751  0.00  0.00    +0.155 C 
ENDROOT
BRANCH   1   4
ATOM      2  O   UNL     1      33.370 -23.928 -18.453  0.00  0.00    -0.273 OA
ATOM      3  N   UNL     1      33.104 -23.007 -16.341  0.00  0.00    -0.298 N 
ATOM      4  C   UNL     1      33.722 -23.141 -17.575  0.00  0.00    +0.241 C 
ATOM      5  H   UNL     1      33.457 -22.350 -15.700  0.00  0.00    +0.150 HD
BRANCH   3   6
ATOM      6  C   UNL     1      31.958 -23.801 -15.967  0.00  0.00    +0.132 C 
ATOM      7  C   UNL     1      32.055 -24.295 -14.534  0.00  0.00    +0.029 C 
BRANCH   6   9
ATOM      8  O   UNL     1      30.521 -22.287 -17.182  0.00  0.00    -0.291 OA
ATOM      9  C   UNL     1      30.725 -22.933 -16.154  0.00  0.00    +0.204 C 
BRANCH   9  11
ATOM     10  F   UNL     1      28.781 -21.955 -15.220  0.00  0.00    -0.226 F 
ATOM     11  C   UNL     1      29.772 -22.859 -14.988  0.00  0.00    +0.259 C 
ENDBRANCH   9  11
ENDBRANCH   6   9
ENDBRANCH   3   6
ENDBRANCH   1   4
BRANCH   1  13
ATOM     12  O   UNL     1      37.307 -20.750 -16.995  0.00  0.00    -0.226 OA
ATOM     13  N   UNL     1      35.939 -22.613 -16.825  0.00  0.00    -0.264 N 
ATOM     14  C   UNL     1      37.043 -21.857 -16.538  0.00  0.00    +0.402 C 
ATOM     15  H   UNL     1      35.845 -23.491 -16.389  0.00  0.00    +0.153 HD
BRANCH  14  16
ATOM     16  O   UNL     1      37.827 -22.534 -15.646  0.00  0.00    -0.430 OA
BRANCH  16  17
ATOM     17  C   UNL     1      37.397 -23.859 -15.315  0.00  0.00    +0.237 C 
BRANCH  17  18
ATOM     18  C   UNL     1      36.863 -23.864 -13.913  0.00  0.00    +0.021 C 
ATOM     19  C   UNL     1      37.551 -23.187 -12.911  0.00  0.00    -0.001 C 
ATOM     20  C   UNL     1      35.686 -24.547 -13.626  0.00  0.00    -0.001 C 
ATOM     21  C   UNL     1      37.055 -23.192 -11.608  0.00  0.00    -0.000 C 
ATOM     22  C   UNL     1      35.190 -24.552 -12.322  0.00  0.00    -0.000 C 
ATOM     23  C   UNL     1      35.875 -23.875 -11.313  0.00  0.00    -0.000 C 
ENDBRANCH  17  18
ENDBRANCH  16  17
ENDBRANCH  14  16
ENDBRANCH   1  13
BRANCH   1  24
ATOM     24  C   UNL     1      35.419 -22.220 -19.193  0.00  0.00    +0.055 C 
BRANCH  24  25
ATOM     25  C   UNL     1      35.136 -20.948 -19.957  0.00  0.00    -0.020 C 
ATOM     26  C   UNL     1      36.194 -20.156 -20.371  0.00  0.00    -0.001 C 
ATOM     27  C   UNL     1      33.823 -20.599 -20.229  0.00  0.00    -0.001 C 
ATOM     28  C   UNL     1      35.933 -18.983 -21.077  0.00  0.00    +0.036 C 
ATOM     29  C   UNL     1      33.562 -19.425 -20.935  0.00  0.00    +0.036 C 
ATOM     30  C   UNL     1      34.616 -18.617 -21.360  0.00  0.00    +0.134 C 
BRANCH  30  31
ATOM     31  O   UNL     1      34.361 -17.471 -22.049  0.00  0.00    -0.506 OA
ATOM     32  H   UNL     1      35.058 -17.022 -22.485  0.00  0.00    +0.292 HD
ENDBRANCH  30  31
ENDBRANCH  24  25
ENDBRANCH   1  24
TORSDOF 11
ENDMDL
MODEL 5
REMARK VINA RESULT:      -9.8      7.391     11.082
REMARK  Name = 15118984
REMARK  11 active torsions:
REMARK  status: ('A' for Active; 'I' for Inactive)
REMARK    1  A    between atoms: C_1  and  C_4
REMARK    2  A    between atoms: C_1  and  N_13
REMARK    3  A    between atoms: C_1  and  C_24
REMARK    4  A    between atoms: N_3  and  C_6
REMARK    5  A    between atoms: C_6  and  C_9
REMARK    6  A    between atoms: C_9  and  C_11
REMARK    7  A    between atoms: C_14  and  O_16
REMARK    8  A    between atoms: O_16  and  C_17
REMARK    9  A    between atoms: C_17  and  C_18
REMARK   10  A    between atoms: C_24  and  C_25
REMARK   11  A    between atoms: C_30  and  O_31
REMARK                            x       y       z     vdW  Elec       q    Type
REMARK                         _______ _______ _______ _____ _____    ______ ____
ROOT
ATOM      1  C   UNL     1      34.217 -17.729 -21.281  0.00  0.00    +0.155 C 
ENDROOT
BRANCH   1   4
ATOM      2  O   UNL     1      36.124 -17.677 -22.776  0.00  0.00    -0.273 OA
ATOM      3  N   UNL     1      34.118 -16.769 -23.505  0.00  0.00    -0.298 N 
ATOM      4  C   UNL     1      34.938 -17.408 -22.586  0.00  0.00    +0.241 C 
ATOM      5  H   UNL     1      33.179 -16.595 -23.265  0.00  0.00    +0.150 HD
BRANCH   3   6
ATOM      6  C   UNL     1      34.597 -16.350 -24.800  0.00  0.00    +0.132 C 
ATOM      7  C   UNL     1      34.903 -17.534 -25.700  0.00  0.00    +0.029 C 
BRANCH   6   9
ATOM      8  O   UNL     1      32.913 -15.789 -26.437  0.00  0.00    -0.291 OA
ATOM      9  C   UNL     1      33.523 -15.469 -25.417  0.00  0.00    +0.204 C 
BRANCH   9  11
ATOM     10  F   UNL     1      34.354 -13.743 -24.025  0.00  0.00    -0.226 F 
ATOM     11  C   UNL     1      33.270 -14.145 -24.743  0.00  0.00    +0.259 C 
ENDBRANCH   9  11
ENDBRANCH   6   9
ENDBRANCH   3   6
ENDBRANCH   1   4
BRANCH   1  13
ATOM     12  O   UNL     1      34.942 -15.158 -20.138  0.00  0.00    -0.226 OA
ATOM     13  N   UNL     1      33.337 -16.595 -20.995  0.00  0.00    -0.264 N 
ATOM     14  C   UNL     1      33.785 -15.421 -20.452  0.00  0.00    +0.402 C 
ATOM     15  H   UNL     1      32.379 -16.680 -21.202  0.00  0.00    +0.153 HD
BRANCH  14  16
ATOM     16  O   UNL     1      32.730 -14.565 -20.307  0.00  0.00    -0.430 OA
BRANCH  16  17
ATOM     17  C   UNL     1      32.250 -13.955 -21.510  0.00  0.00    +0.237 C 
BRANCH  17  18
ATOM     18  C   UNL     1      32.023 -12.493 -21.261  0.00  0.00    +0.021 C 
ATOM     19  C   UNL     1      31.800 -12.041 -19.964  0.00  0.00    -0.001 C 
ATOM     20  C   UNL     1      32.036 -11.602 -22.328  0.00  0.00    -0.001 C 
ATOM     21  C   UNL     1      31.589 -10.683 -19.732  0.00  0.00    -0.000 C 
ATOM     22  C   UNL     1      31.824 -10.243 -22.096  0.00  0.00    -0.000 C 
ATOM     23  C   UNL     1      31.600  -9.783 -20.798  0.00  0.00    -0.000 C 
ENDBRANCH  17  18
ENDBRANCH  16  17
ENDBRANCH  14  16
ENDBRANCH   1  13
BRANCH   1  24
ATOM     24  C   UNL     1      33.386 -19.013 -21.420  0.00  0.00    +0.055 C 
BRANCH  24  25
ATOM     25  C   UNL     1      33.821 -20.098 -20.463  0.00  0.00    -0.020 C 
ATOM     26  C   UNL     1      32.860 -20.807 -19.762  0.00  0.00    -0.001 C 
ATOM     27  C   UNL     1      35.171 -20.363 -20.307  0.00  0.00    -0.001 C 
ATOM     28  C   UNL     1      33.260 -21.810 -18.879  0.00  0.00    +0.036 C 
ATOM     29  C   UNL     1      35.572 -21.365 -19.424  0.00  0.00    +0.036 C 
ATOM     30  C   UNL     1      34.617 -22.089 -18.710  0.00  0.00    +0.134 C 
BRANCH  30  31
ATOM     31  O   UNL     1      35.008 -23.067 -17.848  0.00  0.00    -0.506 OA
ATOM     32  H   UNL     1      34.816 -22.992 -16.934  0.00  0.00    +0.292 HD
ENDBRANCH  30  31
ENDBRANCH  24  25
ENDBRANCH   1  24
TORSDOF 11
ENDMDL
MODEL 6
REMARK VINA RESULT:      -9.7      8.058     12.120
REMARK  Name = 15118984
REMARK  11 active torsions:
REMARK  status: ('A' for Active; 'I' for Inactive)
REMARK    1  A    between atoms: C_1  and  C_4
REMARK    2  A    between atoms: C_1  and  N_13
REMARK    3  A    between atoms: C_1  and  C_24
REMARK    4  A    between atoms: N_3  and  C_6
REMARK    5  A    between atoms: C_6  and  C_9
REMARK    6  A    between atoms: C_9  and  C_11
REMARK    7  A    between atoms: C_14  and  O_16
REMARK    8  A    between atoms: O_16  and  C_17
REMARK    9  A    between atoms: C_17  and  C_18
REMARK   10  A    between atoms: C_24  and  C_25
REMARK   11  A    between atoms: C_30  and  O_31
REMARK                            x       y       z     vdW  Elec       q    Type
REMARK                         _______ _______ _______ _____ _____    ______ ____
ROOT
ATOM      1  C   UNL     1      34.553 -17.200 -22.554  0.00  0.00    +0.155 C 
ENDROOT
BRANCH   1   4
ATOM      2  O   UNL     1      35.185 -17.607 -24.858  0.00  0.00    -0.273 OA
ATOM      3  N   UNL     1      33.829 -15.786 -24.385  0.00  0.00    -0.298 N 
ATOM      4  C   UNL     1      34.566 -16.913 -24.052  0.00  0.00    +0.241 C 
ATOM      5  H   UNL     1      33.365 -15.293 -23.671  0.00  0.00    +0.150 HD
BRANCH   3   6
ATOM      6  C   UNL     1      33.722 -15.313 -25.744  0.00  0.00    +0.132 C 
ATOM      7  C   UNL     1      32.584 -15.988 -26.489  0.00  0.00    +0.029 C 
BRANCH   6   9
ATOM      8  O   UNL     1      33.603 -13.170 -24.638  0.00  0.00    -0.291 OA
ATOM      9  C   UNL     1      33.510 -13.810 -25.686  0.00  0.00    +0.204 C 
BRANCH   9  11
ATOM     10  F   UNL     1      34.109 -13.267 -27.911  0.00  0.00    -0.226 F 
ATOM     11  C   UNL     1      33.128 -13.133 -26.977  0.00  0.00    +0.259 C 
ENDBRANCH   9  11
ENDBRANCH   6   9
ENDBRANCH   3   6
ENDBRANCH   1   4
BRANCH   1  13
ATOM     12  O   UNL     1      35.036 -15.958 -19.973  0.00  0.00    -0.226 OA
ATOM     13  N   UNL     1      33.796 -16.118 -21.924  0.00  0.00    -0.264 N 
ATOM     14  C   UNL     1      34.111 -15.603 -20.696  0.00  0.00    +0.402 C 
ATOM     15  H   UNL     1      33.023 -15.743 -22.406  0.00  0.00    +0.153 HD
BRANCH  14  16
ATOM     16  O   UNL     1      33.223 -14.612 -20.386  0.00  0.00    -0.430 OA
BRANCH  16  17
ATOM     17  C   UNL     1      32.461 -14.090 -21.481  0.00  0.00    +0.237 C 
BRANCH  17  18
ATOM     18  C   UNL     1      32.067 -12.676 -21.175  0.00  0.00    +0.021 C 
ATOM     19  C   UNL     1      31.958 -12.262 -19.851  0.00  0.00    -0.001 C 
ATOM     20  C   UNL     1      31.814 -11.790 -22.216  0.00  0.00    -0.001 C 
ATOM     21  C   UNL     1      31.592 -10.948 -19.566  0.00  0.00    -0.000 C 
ATOM     22  C   UNL     1      31.448 -10.475 -21.931  0.00  0.00    -0.000 C 
ATOM     23  C   UNL     1      31.337 -10.053 -20.605  0.00  0.00    -0.000 C 
ENDBRANCH  17  18
ENDBRANCH  16  17
ENDBRANCH  14  16
ENDBRANCH   1  13
BRANCH   1  24
ATOM     24  C   UNL     1      33.878 -18.549 -22.264  0.00  0.00    +0.055 C 
BRANCH  24  25
ATOM     25  C   UNL     1      34.662 -19.400 -21.293  0.00  0.00    -0.020 C 
ATOM     26  C   UNL     1      34.008 -20.389 -20.578  0.00  0.00    -0.001 C 
ATOM     27  C   UNL     1      36.020 -19.175 -21.138  0.00  0.00    -0.001 C 
ATOM     28  C   UNL     1      34.732 -21.176 -19.682  0.00  0.00    +0.036 C 
ATOM     29  C   UNL     1      36.744 -19.961 -20.243  0.00  0.00    +0.036 C 
ATOM     30  C   UNL     1      36.100 -20.962 -19.515  0.00  0.00    +0.134 C 
BRANCH  30  31
ATOM     31  O   UNL     1      36.806 -21.730 -18.641  0.00  0.00    -0.506 OA
ATOM     32  H   UNL     1      37.335 -21.325 -17.982  0.00  0.00    +0.292 HD
ENDBRANCH  30  31
ENDBRANCH  24  25
ENDBRANCH   1  24
TORSDOF 11
ENDMDL
MODEL 7
REMARK VINA RESULT:      -9.7      2.083      3.368
REMARK  Name = 15118984
REMARK  11 active torsions:
REMARK  status: ('A' for Active; 'I' for Inactive)
REMARK    1  A    between atoms: C_1  and  C_4
REMARK    2  A    between atoms: C_1  and  N_13
REMARK    3  A    between atoms: C_1  and  C_24
REMARK    4  A    between atoms: N_3  and  C_6
REMARK    5  A    between atoms: C_6  and  C_9
REMARK    6  A    between atoms: C_9  and  C_11
REMARK    7  A    between atoms: C_14  and  O_16
REMARK    8  A    between atoms: O_16  and  C_17
REMARK    9  A    between atoms: C_17  and  C_18
REMARK   10  A    between atoms: C_24  and  C_25
REMARK   11  A    between atoms: C_30  and  O_31
REMARK                            x       y       z     vdW  Elec       q    Type
REMARK                         _______ _______ _______ _____ _____    ______ ____
ROOT
ATOM      1  C   UNL     1      35.923 -22.567 -15.697  0.00  0.00    +0.155 C 
ENDROOT
BRANCH   1   4
ATOM      2  O   UNL     1      38.239 -23.273 -15.601  0.00  0.00    -0.273 OA
ATOM      3  N   UNL     1      36.826 -23.866 -13.860  0.00  0.00    -0.298 N 
ATOM      4  C   UNL     1      37.130 -23.256 -15.068  0.00  0.00    +0.241 C 
ATOM      5  H   UNL     1      35.909 -23.798 -13.510  0.00  0.00    +0.150 HD
BRANCH   3   6
ATOM      6  C   UNL     1      37.811 -24.597 -13.100  0.00  0.00    +0.132 C 
ATOM      7  C   UNL     1      38.016 -24.002 -11.718  0.00  0.00    +0.029 C 
BRANCH   6   9
ATOM      8  O   UNL     1      36.960 -26.535 -11.938  0.00  0.00    -0.291 OA
ATOM      9  C   UNL     1      37.330 -26.035 -13.000  0.00  0.00    +0.204 C 
BRANCH   9  11
ATOM     10  F   UNL     1      36.214 -26.724 -14.971  0.00  0.00    -0.226 F 
ATOM     11  C   UNL     1      37.373 -26.849 -14.268  0.00  0.00    +0.259 C 
ENDBRANCH   9  11
ENDBRANCH   6   9
ENDBRANCH   3   6
ENDBRANCH   1   4
BRANCH   1  13
ATOM     12  O   UNL     1      35.347 -22.718 -18.540  0.00  0.00    -0.226 OA
ATOM     13  N   UNL     1      36.436 -21.705 -16.762  0.00  0.00    -0.264 N 
ATOM     14  C   UNL     1      36.099 -21.865 -18.079  0.00  0.00    +0.402 C 
ATOM     15  H   UNL     1      37.054 -20.978 -16.521  0.00  0.00    +0.153 HD
BRANCH  14  16
ATOM     16  O   UNL     1      36.738 -20.912 -18.822  0.00  0.00    -0.430 OA
BRANCH  16  17
ATOM     17  C   UNL     1      36.551 -20.994 -20.239  0.00  0.00    +0.237 C 
BRANCH  17  18
ATOM     18  C   UNL     1      35.653 -19.877 -20.681  0.00  0.00    +0.021 C 
ATOM     19  C   UNL     1      34.272 -20.048 -20.648  0.00  0.00    -0.001 C 
ATOM     20  C   UNL     1      36.207 -18.680 -21.120  0.00  0.00    -0.001 C 
ATOM     21  C   UNL     1      33.437 -19.010 -21.058  0.00  0.00    -0.000 C 
ATOM     22  C   UNL     1      35.371 -17.641 -21.531  0.00  0.00    -0.000 C 
ATOM     23  C   UNL     1      33.986 -17.806 -21.500  0.00  0.00    -0.000 C 
ENDBRANCH  17  18
ENDBRANCH  16  17
ENDBRANCH  14  16
ENDBRANCH   1  13
BRANCH   1  24
ATOM     24  C   UNL     1      34.951 -23.601 -16.283  0.00  0.00    +0.055 C 
BRANCH  24  25
ATOM     25  C   UNL     1      33.518 -23.360 -15.868  0.00  0.00    -0.020 C 
ATOM     26  C   UNL     1      33.203 -23.309 -14.520  0.00  0.00    -0.001 C 
ATOM     27  C   UNL     1      32.549 -23.194 -16.843  0.00  0.00    -0.001 C 
ATOM     28  C   UNL     1      31.881 -23.086 -14.137  0.00  0.00    +0.036 C 
ATOM     29  C   UNL     1      31.227 -22.970 -16.460  0.00  0.00    +0.036 C 
ATOM     30  C   UNL     1      30.892 -22.916 -15.107  0.00  0.00    +0.134 C 
BRANCH  30  31
ATOM     31  O   UNL     1      29.602 -22.698 -14.732  0.00  0.00    -0.506 OA
ATOM     32  H   UNL     1      29.215 -21.854 -14.854  0.00  0.00    +0.292 HD
ENDBRANCH  30  31
ENDBRANCH  24  25
ENDBRANCH   1  24
TORSDOF 11
ENDMDL
MODEL 8
REMARK VINA RESULT:      -9.6      2.724      6.354
REMARK  Name = 15118984
REMARK  11 active torsions:
REMARK  status: ('A' for Active; 'I' for Inactive)
REMARK    1  A    between atoms: C_1  and  C_4
REMARK    2  A    between atoms: C_1  and  N_13
REMARK    3  A    between atoms: C_1  and  C_24
REMARK    4  A    between atoms: N_3  and  C_6
REMARK    5  A    between atoms: C_6  and  C_9
REMARK    6  A    between atoms: C_9  and  C_11
REMARK    7  A    between atoms: C_14  and  O_16
REMARK    8  A    between atoms: O_16  and  C_17
REMARK    9  A    between atoms: C_17  and  C_18
REMARK   10  A    between atoms: C_24  and  C_25
REMARK   11  A    between atoms: C_30  and  O_31
REMARK                            x       y       z     vdW  Elec       q    Type
REMARK                         _______ _______ _______ _____ _____    ______ ____
ROOT
ATOM      1  C   UNL     1      33.696 -23.991 -15.460  0.00  0.00    +0.155 C 
ENDROOT
BRANCH   1   4
ATOM      2  O   UNL     1      31.864 -23.067 -14.170  0.00  0.00    -0.273 OA
ATOM      3  N   UNL     1      31.369 -24.409 -15.996  0.00  0.00    -0.298 N 
ATOM      4  C   UNL     1      32.226 -23.753 -15.125  0.00  0.00    +0.241 C 
ATOM      5  H   UNL     1      31.751 -24.935 -16.734  0.00  0.00    +0.150 HD
BRANCH   3   6
ATOM      6  C   UNL     1      29.934 -24.344 -15.854  0.00  0.00    +0.132 C 
ATOM      7  C   UNL     1      29.489 -24.694 -14.445  0.00  0.00    +0.029 C 
BRANCH   6   9
ATOM      8  O   UNL     1      30.021 -22.304 -17.143  0.00  0.00    -0.291 OA
ATOM      9  C   UNL     1      29.506 -22.932 -16.218  0.00  0.00    +0.204 C 
BRANCH   9  11
ATOM     10  F   UNL     1      27.196 -22.602 -15.815  0.00  0.00    -0.226 F 
ATOM     11  C   UNL     1      28.442 -22.308 -15.352  0.00  0.00    +0.259 C 
ENDBRANCH   9  11
ENDBRANCH   6   9
ENDBRANCH   3   6
ENDBRANCH   1   4
BRANCH   1  13
ATOM     12  O   UNL     1      33.577 -24.124 -18.359  0.00  0.00    -0.226 OA
ATOM     13  N   UNL     1      34.082 -22.957 -16.421  0.00  0.00    -0.264 N 
ATOM     14  C   UNL     1      33.985 -23.124 -17.776  0.00  0.00    +0.402 C 
ATOM     15  H   UNL     1      34.428 -22.102 -16.077  0.00  0.00    +0.153 HD
BRANCH  14  16
ATOM     16  O   UNL     1      34.420 -21.988 -18.398  0.00  0.00    -0.430 OA
BRANCH  16  17
ATOM     17  C   UNL     1      33.657 -21.565 -19.533  0.00  0.00    +0.237 C 
BRANCH  17  18
ATOM     18  C   UNL     1      34.409 -20.487 -20.255  0.00  0.00    +0.021 C 
ATOM     19  C   UNL     1      33.712 -19.539 -20.998  0.00  0.00    -0.001 C 
ATOM     20  C   UNL     1      35.797 -20.443 -20.177  0.00  0.00    -0.001 C 
ATOM     21  C   UNL     1      34.411 -18.536 -21.668  0.00  0.00    -0.000 C 
ATOM     22  C   UNL     1      36.496 -19.441 -20.848  0.00  0.00    -0.000 C 
ATOM     23  C   UNL     1      35.803 -18.487 -21.594  0.00  0.00    -0.000 C 
ENDBRANCH  17  18
ENDBRANCH  16  17
ENDBRANCH  14  16
ENDBRANCH   1  13
BRANCH   1  24
ATOM     24  C   UNL     1      34.565 -23.883 -14.198  0.00  0.00    +0.055 C 
BRANCH  24  25
ATOM     25  C   UNL     1      35.871 -24.632 -14.322  0.00  0.00    -0.020 C 
ATOM     26  C   UNL     1      35.918 -25.792 -15.079  0.00  0.00    -0.001 C 
ATOM     27  C   UNL     1      36.995 -24.146 -13.676  0.00  0.00    -0.001 C 
ATOM     28  C   UNL     1      37.123 -26.483 -15.193  0.00  0.00    +0.036 C 
ATOM     29  C   UNL     1      38.201 -24.838 -13.790  0.00  0.00    +0.036 C 
ATOM     30  C   UNL     1      38.265 -26.007 -14.550  0.00  0.00    +0.134 C 
BRANCH  30  31
ATOM     31  O   UNL     1      39.441 -26.682 -14.662  0.00  0.00    -0.506 OA
ATOM     32  H   UNL     1      40.063 -26.435 -15.317  0.00  0.00    +0.292 HD
ENDBRANCH  30  31
ENDBRANCH  24  25
ENDBRANCH   1  24
TORSDOF 11
ENDMDL
MODEL 9
REMARK VINA RESULT:      -9.5      9.205     12.838
REMARK  Name = 15118984
REMARK  11 active torsions:
REMARK  status: ('A' for Active; 'I' for Inactive)
REMARK    1  A    between atoms: C_1  and  C_4
REMARK    2  A    between atoms: C_1  and  N_13
REMARK    3  A    between atoms: C_1  and  C_24
REMARK    4  A    between atoms: N_3  and  C_6
REMARK    5  A    between atoms: C_6  and  C_9
REMARK    6  A    between atoms: C_9  and  C_11
REMARK    7  A    between atoms: C_14  and  O_16
REMARK    8  A    between atoms: O_16  and  C_17
REMARK    9  A    between atoms: C_17  and  C_18
REMARK   10  A    between atoms: C_24  and  C_25
REMARK   11  A    between atoms: C_30  and  O_31
REMARK                            x       y       z     vdW  Elec       q    Type
REMARK                         _______ _______ _______ _____ _____    ______ ____
ROOT
ATOM      1  C   UNL     1      33.516 -14.881 -21.942  0.00  0.00    +0.155 C 
ENDROOT
BRANCH   1   4
ATOM      2  O   UNL     1      34.822 -15.726 -20.084  0.00  0.00    -0.273 OA
ATOM      3  N   UNL     1      33.907 -17.245 -21.578  0.00  0.00    -0.298 N 
ATOM      4  C   UNL     1      34.152 -15.972 -21.086  0.00  0.00    +0.241 C 
ATOM      5  H   UNL     1      33.357 -17.346 -22.388  0.00  0.00    +0.150 HD
BRANCH   3   6
ATOM      6  C   UNL     1      34.433 -18.428 -20.940  0.00  0.00    +0.132 C 
ATOM      7  C   UNL     1      33.468 -19.597 -21.034  0.00  0.00    +0.029 C 
BRANCH   6   9
ATOM      8  O   UNL     1      36.723 -19.192 -21.001  0.00  0.00    -0.291 OA
ATOM      9  C   UNL     1      35.750 -18.762 -21.621  0.00  0.00    +0.204 C 
BRANCH   9  11
ATOM     10  F   UNL     1      35.173 -19.453 -23.811  0.00  0.00    -0.226 F 
ATOM     11  C   UNL     1      35.829 -18.494 -23.102  0.00  0.00    +0.259 C 
ENDBRANCH   9  11
ENDBRANCH   6   9
ENDBRANCH   3   6
ENDBRANCH   1   4
BRANCH   1  13
ATOM     12  O   UNL     1      31.489 -12.857 -22.429  0.00  0.00    -0.226 OA
ATOM     13  N   UNL     1      33.044 -13.844 -21.022  0.00  0.00    -0.264 N 
ATOM     14  C   UNL     1      32.078 -12.934 -21.355  0.00  0.00    +0.402 C 
ATOM     15  H   UNL     1      33.441 -13.799 -20.123  0.00  0.00    +0.153 HD
BRANCH  14  16
ATOM     16  O   UNL     1      31.861 -12.105 -20.291  0.00  0.00    -0.430 OA
BRANCH  16  17
ATOM     17  C   UNL     1      30.897 -11.066 -20.495  0.00  0.00    +0.237 C 
BRANCH  17  18
ATOM     18  C   UNL     1      31.608  -9.811 -20.907  0.00  0.00    +0.021 C 
ATOM     19  C   UNL     1      31.742  -9.508 -22.258  0.00  0.00    -0.001 C 
ATOM     20  C   UNL     1      32.127  -8.962 -19.936  0.00  0.00    -0.001 C 
ATOM     21  C   UNL     1      32.403  -8.342 -22.642  0.00  0.00    -0.000 C 
ATOM     22  C   UNL     1      32.788  -7.796 -20.320  0.00  0.00    -0.000 C 
ATOM     23  C   UNL     1      32.927  -7.485 -21.673  0.00  0.00    -0.000 C 
ENDBRANCH  17  18
ENDBRANCH  16  17
ENDBRANCH  14  16
ENDBRANCH   1  13
BRANCH   1  24
ATOM     24  C   UNL     1      34.542 -14.287 -22.918  0.00  0.00    +0.055 C 
BRANCH  24  25
ATOM     25  C   UNL     1      33.950 -13.971 -24.271  0.00  0.00    -0.020 C 
ATOM     26  C   UNL     1      33.970 -12.664 -24.731  0.00  0.00    -0.001 C 
ATOM     27  C   UNL     1      33.398 -14.993 -25.025  0.00  0.00    -0.001 C 
ATOM     28  C   UNL     1      33.424 -12.372 -25.980  0.00  0.00    +0.036 C 
ATOM     29  C   UNL     1      32.851 -14.701 -26.274  0.00  0.00    +0.036 C 
ATOM     30  C   UNL     1      32.864 -13.390 -26.752  0.00  0.00    +0.134 C 
BRANCH  30  31
ATOM     31  O   UNL     1      32.331 -13.105 -27.971  0.00  0.00    -0.506 OA
ATOM     32  H   UNL     1      31.401 -13.091 -28.085  0.00  0.00    +0.292 HD
ENDBRANCH  30  31
ENDBRANCH  24  25
ENDBRANCH   1  24
TORSDOF 11
ENDMDL
