MODEL 1
REMARK VINA RESULT:      -9.5      0.000      0.000
REMARK  Name = 11450633
REMARK  5 active torsions:
REMARK  status: ('A' for Active; 'I' for Inactive)
REMARK    1  A    between atoms: N_3  and  C_20
REMARK    2  A    between atoms: C_5  and  N_10
REMARK    3  A    between atoms: C_11  and  N_16
REMARK    4  A    between atoms: C_20  and  C_21
REMARK    5  A    between atoms: C_22  and  C_28
REMARK                            x       y       z     vdW  Elec       q    Type
REMARK                         _______ _______ _______ _____ _____    ______ ____
ROOT
ATOM      1  O   UNL     1      36.811 -22.326 -16.686  0.00  0.00    -0.252 OA
ATOM      2  O   UNL     1      33.265 -22.286 -19.702  0.00  0.00    -0.269 OA
ATOM      3  N   UNL     1      34.669 -22.857 -15.953  0.00  0.00    -0.227 N 
ATOM      4  N   UNL     1      35.082 -22.274 -18.228  0.00  0.00    -0.208 N 
ATOM      5  C   UNL     1      33.308 -23.034 -16.221  0.00  0.00    +0.112 C 
ATOM      6  C   UNL     1      32.857 -22.837 -17.472  0.00  0.00    +0.089 C 
ATOM      7  C   UNL     1      35.609 -22.475 -16.933  0.00  0.00    +0.318 C 
ATOM      8  C   UNL     1      33.744 -22.439 -18.580  0.00  0.00    +0.259 C 
ATOM      9  C   UNL     1      36.026 -21.877 -19.268  0.00  0.00    +0.125 C 
ENDROOT
BRANCH   5  10
ATOM     10  N   UNL     1      32.410 -23.401 -15.261  0.00  0.00    -0.298 N 
ATOM     11  C   UNL     1      30.285 -24.621 -15.173  0.00  0.00    -0.046 C 
ATOM     12  C   UNL     1      30.963 -23.274 -15.453  0.00  0.00    +0.070 C 
ATOM     13  C   UNL     1      30.661 -25.141 -13.779  0.00  0.00    -0.018 C 
ATOM     14  C   UNL     1      32.180 -25.204 -13.621  0.00  0.00    +0.019 C 
ATOM     15  C   UNL     1      32.828 -23.858 -13.935  0.00  0.00    +0.092 C 
BRANCH  11  16
ATOM     16  N   UNL     1      28.835 -24.485 -15.299  0.00  0.00    +0.383 N 
ATOM     17  H   UNL     1      28.497 -23.808 -14.615  0.00  0.00    -0.089 HD
ATOM     18  H   UNL     1      28.393 -25.389 -15.130  0.00  0.00    -0.089 HD
ATOM     19  H   UNL     1      28.604 -24.163 -16.238  0.00  0.00    -0.089 HD
ENDBRANCH  11  16
ENDBRANCH   5  10
BRANCH   3  20
ATOM     20  C   UNL     1      35.143 -23.080 -14.585  0.00  0.00    +0.128 C 
BRANCH  20  21
ATOM     21  C   UNL     1      36.000 -24.309 -14.480  0.00  0.00    +0.008 C 
ATOM     22  C   UNL     1      37.052 -24.381 -13.573  0.00  0.00    +0.066 C 
ATOM     23  C   UNL     1      35.716 -25.384 -15.319  0.00  0.00    -0.002 C 
ATOM     24  C   UNL     1      37.828 -25.539 -13.502  0.00  0.00    +0.010 C 
ATOM     25  C   UNL     1      36.490 -26.541 -15.247  0.00  0.00    -0.000 C 
ATOM     26  C   UNL     1      37.547 -26.619 -14.340  0.00  0.00    +0.001 C 
BRANCH  22  28
ATOM     27  N   UNL     1      37.610 -22.400 -11.998  0.00  0.00    -0.191 NA
ATOM     28  C   UNL     1      37.360 -23.288 -12.703  0.00  0.00    +0.100 C 
ENDBRANCH  22  28
ENDBRANCH  20  21
ENDBRANCH   3  20
TORSDOF 5
ENDMDL
MODEL 2
REMARK VINA RESULT:      -7.9     10.814     14.365
REMARK  Name = 11450633
REMARK  5 active torsions:
REMARK  status: ('A' for Active; 'I' for Inactive)
REMARK    1  A    between atoms: N_3  and  C_20
REMARK    2  A    between atoms: C_5  and  N_10
REMARK    3  A    between atoms: C_11  and  N_16
REMARK    4  A    between atoms: C_20  and  C_21
REMARK    5  A    between atoms: C_22  and  C_28
REMARK                            x       y       z     vdW  Elec       q    Type
REMARK                         _______ _______ _______ _____ _____    ______ ____
ROOT
ATOM      1  O   UNL     1      34.296 -15.137 -24.628  0.00  0.00    -0.252 OA
ATOM      2  O   UNL     1      34.788 -16.128 -20.106  0.00  0.00    -0.269 OA
ATOM      3  N   UNL     1      33.187 -13.851 -23.039  0.00  0.00    -0.227 N 
ATOM      4  N   UNL     1      34.565 -15.686 -22.392  0.00  0.00    -0.208 N 
ATOM      5  C   UNL     1      32.886 -13.575 -21.701  0.00  0.00    +0.112 C 
ATOM      6  C   UNL     1      33.424 -14.344 -20.738  0.00  0.00    +0.089 C 
ATOM      7  C   UNL     1      34.032 -14.905 -23.443  0.00  0.00    +0.318 C 
ATOM      8  C   UNL     1      34.323 -15.473 -21.037  0.00  0.00    +0.259 C 
ATOM      9  C   UNL     1      35.443 -16.788 -22.773  0.00  0.00    +0.125 C 
ENDROOT
BRANCH   5  10
ATOM     10  N   UNL     1      32.064 -12.552 -21.327  0.00  0.00    -0.298 N 
ATOM     11  C   UNL     1      32.252 -10.506 -19.988  0.00  0.00    -0.046 C 
ATOM     12  C   UNL     1      32.043 -12.025 -19.959  0.00  0.00    +0.070 C 
ATOM     13  C   UNL     1      31.222  -9.832 -20.906  0.00  0.00    -0.018 C 
ATOM     14  C   UNL     1      31.257 -10.456 -22.301  0.00  0.00    +0.019 C 
ATOM     15  C   UNL     1      31.077 -11.971 -22.237  0.00  0.00    +0.092 C 
BRANCH  11  16
ATOM     16  N   UNL     1      32.166  -9.965 -18.633  0.00  0.00    +0.383 N 
ATOM     17  H   UNL     1      31.735 -10.656 -18.018  0.00  0.00    -0.089 HD
ATOM     18  H   UNL     1      31.599  -9.117 -18.641  0.00  0.00    -0.089 HD
ATOM     19  H   UNL     1      33.102  -9.746 -18.295  0.00  0.00    -0.089 HD
ENDBRANCH  11  16
ENDBRANCH   5  10
BRANCH   3  20
ATOM     20  C   UNL     1      32.596 -13.000 -24.074  0.00  0.00    +0.128 C 
BRANCH  20  21
ATOM     21  C   UNL     1      33.588 -12.020 -24.632  0.00  0.00    +0.008 C 
ATOM     22  C   UNL     1      33.966 -12.057 -25.971  0.00  0.00    +0.066 C 
ATOM     23  C   UNL     1      34.127 -11.066 -23.773  0.00  0.00    -0.002 C 
ATOM     24  C   UNL     1      34.891 -11.132 -26.455  0.00  0.00    +0.010 C 
ATOM     25  C   UNL     1      35.050 -10.140 -24.257  0.00  0.00    -0.000 C 
ATOM     26  C   UNL     1      35.433 -10.174 -25.598  0.00  0.00    +0.001 C 
BRANCH  22  28
ATOM     27  N   UNL     1      32.984 -13.818 -27.599  0.00  0.00    -0.191 NA
ATOM     28  C   UNL     1      33.424 -13.029 -26.869  0.00  0.00    +0.100 C 
ENDBRANCH  22  28
ENDBRANCH  20  21
ENDBRANCH   3  20
TORSDOF 5
ENDMDL
MODEL 3
REMARK VINA RESULT:      -7.9     10.509     13.944
REMARK  Name = 11450633
REMARK  5 active torsions:
REMARK  status: ('A' for Active; 'I' for Inactive)
REMARK    1  A    between atoms: N_3  and  C_20
REMARK    2  A    between atoms: C_5  and  N_10
REMARK    3  A    between atoms: C_11  and  N_16
REMARK    4  A    between atoms: C_20  and  C_21
REMARK    5  A    between atoms: C_22  and  C_28
REMARK                            x       y       z     vdW  Elec       q    Type
REMARK                         _______ _______ _______ _____ _____    ______ ____
ROOT
ATOM      1  O   UNL     1      35.234 -15.379 -23.281  0.00  0.00    -0.252 OA
ATOM      2  O   UNL     1      32.187 -17.067 -20.195  0.00  0.00    -0.269 OA
ATOM      3  N   UNL     1      33.620 -13.975 -22.371  0.00  0.00    -0.227 N 
ATOM      4  N   UNL     1      33.733 -16.278 -21.762  0.00  0.00    -0.208 N 
ATOM      5  C   UNL     1      32.528 -13.779 -21.518  0.00  0.00    +0.112 C 
ATOM      6  C   UNL     1      32.062 -14.818 -20.804  0.00  0.00    +0.089 C 
ATOM      7  C   UNL     1      34.267 -15.217 -22.529  0.00  0.00    +0.318 C 
ATOM      8  C   UNL     1      32.658 -16.164 -20.884  0.00  0.00    +0.259 C 
ATOM      9  C   UNL     1      34.378 -17.579 -21.901  0.00  0.00    +0.125 C 
ENDROOT
BRANCH   5  10
ATOM     10  N   UNL     1      31.911 -12.570 -21.378  0.00  0.00    -0.298 N 
ATOM     11  C   UNL     1      32.297 -10.501 -20.120  0.00  0.00    -0.046 C 
ATOM     12  C   UNL     1      31.736 -11.928 -20.072  0.00  0.00    +0.070 C 
ATOM     13  C   UNL     1      31.664  -9.704 -21.269  0.00  0.00    -0.018 C 
ATOM     14  C   UNL     1      31.835 -10.447 -22.594  0.00  0.00    +0.019 C 
ATOM     15  C   UNL     1      31.295 -11.872 -22.507  0.00  0.00    +0.092 C 
BRANCH  11  16
ATOM     16  N   UNL     1      32.066  -9.832 -18.841  0.00  0.00    +0.383 N 
ATOM     17  H   UNL     1      32.511 -10.364 -18.093  0.00  0.00    -0.089 HD
ATOM     18  H   UNL     1      31.063  -9.772 -18.665  0.00  0.00    -0.089 HD
ATOM     19  H   UNL     1      32.463  -8.893 -18.872  0.00  0.00    -0.089 HD
ENDBRANCH  11  16
ENDBRANCH   5  10
BRANCH   3  20
ATOM     20  C   UNL     1      34.117 -12.830 -23.137  0.00  0.00    +0.128 C 
BRANCH  20  21
ATOM     21  C   UNL     1      33.758 -12.929 -24.592  0.00  0.00    +0.008 C 
ATOM     22  C   UNL     1      34.043 -11.895 -25.479  0.00  0.00    +0.066 C 
ATOM     23  C   UNL     1      33.128 -14.088 -25.039  0.00  0.00    -0.002 C 
ATOM     24  C   UNL     1      33.695 -12.020 -26.824  0.00  0.00    +0.010 C 
ATOM     25  C   UNL     1      32.781 -14.213 -26.384  0.00  0.00    -0.000 C 
ATOM     26  C   UNL     1      33.064 -13.179 -27.276  0.00  0.00    +0.001 C 
BRANCH  22  28
ATOM     27  N   UNL     1      35.215  -9.724 -24.684  0.00  0.00    -0.191 NA
ATOM     28  C   UNL     1      34.690 -10.696 -25.040  0.00  0.00    +0.100 C 
ENDBRANCH  22  28
ENDBRANCH  20  21
ENDBRANCH   3  20
TORSDOF 5
ENDMDL
MODEL 4
REMARK VINA RESULT:      -7.8      2.208      4.983
REMARK  Name = 11450633
REMARK  5 active torsions:
REMARK  status: ('A' for Active; 'I' for Inactive)
REMARK    1  A    between atoms: N_3  and  C_20
REMARK    2  A    between atoms: C_5  and  N_10
REMARK    3  A    between atoms: C_11  and  N_16
REMARK    4  A    between atoms: C_20  and  C_21
REMARK    5  A    between atoms: C_22  and  C_28
REMARK                            x       y       z     vdW  Elec       q    Type
REMARK                         _______ _______ _______ _____ _____    ______ ____
ROOT
ATOM      1  O   UNL     1      37.104 -25.201 -15.339  0.00  0.00    -0.252 OA
ATOM      2  O   UNL     1      35.769 -25.136 -10.880  0.00  0.00    -0.269 OA
ATOM      3  N   UNL     1      35.031 -24.315 -14.770  0.00  0.00    -0.227 N 
ATOM      4  N   UNL     1      36.485 -25.210 -13.105  0.00  0.00    -0.208 N 
ATOM      5  C   UNL     1      34.077 -23.995 -13.798  0.00  0.00    +0.112 C 
ATOM      6  C   UNL     1      34.337 -24.278 -12.509  0.00  0.00    +0.089 C 
ATOM      7  C   UNL     1      36.266 -24.927 -14.473  0.00  0.00    +0.318 C 
ATOM      8  C   UNL     1      35.593 -24.915 -12.076  0.00  0.00    +0.259 C 
ATOM      9  C   UNL     1      37.753 -25.845 -12.761  0.00  0.00    +0.125 C 
ENDROOT
BRANCH   5  10
ATOM     10  N   UNL     1      32.886 -23.404 -14.102  0.00  0.00    -0.298 N 
ATOM     11  C   UNL     1      31.404 -23.265 -16.051  0.00  0.00    -0.046 C 
ATOM     12  C   UNL     1      32.659 -22.705 -15.371  0.00  0.00    +0.070 C 
ATOM     13  C   UNL     1      30.196 -23.197 -15.106  0.00  0.00    -0.018 C 
ATOM     14  C   UNL     1      30.509 -23.898 -13.784  0.00  0.00    +0.019 C 
ATOM     15  C   UNL     1      31.779 -23.340 -13.146  0.00  0.00    +0.092 C 
BRANCH  11  16
ATOM     16  N   UNL     1      31.135 -22.528 -17.284  0.00  0.00    +0.383 N 
ATOM     17  H   UNL     1      30.328 -22.937 -17.756  0.00  0.00    -0.089 HD
ATOM     18  H   UNL     1      31.949 -22.581 -17.896  0.00  0.00    -0.089 HD
ATOM     19  H   UNL     1      30.939 -21.553 -17.061  0.00  0.00    -0.089 HD
ENDBRANCH  11  16
ENDBRANCH   5  10
BRANCH   3  20
ATOM     20  C   UNL     1      34.733 -23.995 -16.168  0.00  0.00    +0.128 C 
BRANCH  20  21
ATOM     21  C   UNL     1      35.623 -22.909 -16.699  0.00  0.00    +0.008 C 
ATOM     22  C   UNL     1      35.414 -22.354 -17.957  0.00  0.00    +0.066 C 
ATOM     23  C   UNL     1      36.672 -22.465 -15.897  0.00  0.00    -0.002 C 
ATOM     24  C   UNL     1      36.261 -21.346 -18.419  0.00  0.00    +0.010 C 
ATOM     25  C   UNL     1      37.518 -21.456 -16.358  0.00  0.00    -0.000 C 
ATOM     26  C   UNL     1      37.313 -20.897 -17.620  0.00  0.00    +0.001 C 
BRANCH  22  28
ATOM     27  N   UNL     1      33.473 -23.154 -19.477  0.00  0.00    -0.191 NA
ATOM     28  C   UNL     1      34.343 -22.796 -18.796  0.00  0.00    +0.100 C 
ENDBRANCH  22  28
ENDBRANCH  20  21
ENDBRANCH   3  20
TORSDOF 5
ENDMDL
MODEL 5
REMARK VINA RESULT:      -7.5      7.167     10.204
REMARK  Name = 11450633
REMARK  5 active torsions:
REMARK  status: ('A' for Active; 'I' for Inactive)
REMARK    1  A    between atoms: N_3  and  C_20
REMARK    2  A    between atoms: C_5  and  N_10
REMARK    3  A    between atoms: C_11  and  N_16
REMARK    4  A    between atoms: C_20  and  C_21
REMARK    5  A    between atoms: C_22  and  C_28
REMARK                            x       y       z     vdW  Elec       q    Type
REMARK                         _______ _______ _______ _____ _____    ______ ____
ROOT
ATOM      1  O   UNL     1      35.358 -18.930 -23.542  0.00  0.00    -0.252 OA
ATOM      2  O   UNL     1      33.431 -15.967 -26.571  0.00  0.00    -0.269 OA
ATOM      3  N   UNL     1      34.567 -16.873 -22.798  0.00  0.00    -0.227 N 
ATOM      4  N   UNL     1      34.423 -17.488 -25.097  0.00  0.00    -0.208 N 
ATOM      5  C   UNL     1      33.958 -15.643 -23.064  0.00  0.00    +0.112 C 
ATOM      6  C   UNL     1      33.589 -15.356 -24.325  0.00  0.00    +0.089 C 
ATOM      7  C   UNL     1      34.823 -17.843 -23.789  0.00  0.00    +0.318 C 
ATOM      8  C   UNL     1      33.803 -16.291 -25.445  0.00  0.00    +0.259 C 
ATOM      9  C   UNL     1      34.673 -18.468 -26.149  0.00  0.00    +0.125 C 
ENDROOT
BRANCH   5  10
ATOM     10  N   UNL     1      33.719 -14.714 -22.094  0.00  0.00    -0.298 N 
ATOM     11  C   UNL     1      32.126 -12.888 -21.720  0.00  0.00    -0.046 C 
ATOM     12  C   UNL     1      33.430 -13.312 -22.407  0.00  0.00    +0.070 C 
ATOM     13  C   UNL     1      32.190 -13.164 -20.211  0.00  0.00    -0.018 C 
ATOM     14  C   UNL     1      32.544 -14.627 -19.948  0.00  0.00    +0.019 C 
ATOM     15  C   UNL     1      33.830 -15.027 -20.669  0.00  0.00    +0.092 C 
BRANCH  11  16
ATOM     16  N   UNL     1      31.866 -11.472 -21.974  0.00  0.00    +0.383 N 
ATOM     17  H   UNL     1      32.404 -10.905 -21.319  0.00  0.00    -0.089 HD
ATOM     18  H   UNL     1      30.871 -11.282 -21.850  0.00  0.00    -0.089 HD
ATOM     19  H   UNL     1      32.140 -11.242 -22.928  0.00  0.00    -0.089 HD
ENDBRANCH  11  16
ENDBRANCH   5  10
BRANCH   3  20
ATOM     20  C   UNL     1      34.959 -17.171 -21.418  0.00  0.00    +0.128 C 
BRANCH  20  21
ATOM     21  C   UNL     1      34.420 -18.493 -20.953  0.00  0.00    +0.008 C 
ATOM     22  C   UNL     1      35.269 -19.545 -20.626  0.00  0.00    +0.066 C 
ATOM     23  C   UNL     1      33.038 -18.644 -20.855  0.00  0.00    -0.002 C 
ATOM     24  C   UNL     1      34.734 -20.760 -20.198  0.00  0.00    +0.010 C 
ATOM     25  C   UNL     1      32.503 -19.858 -20.426  0.00  0.00    -0.000 C 
ATOM     26  C   UNL     1      33.351 -20.917 -20.098  0.00  0.00    +0.001 C 
BRANCH  22  28
ATOM     27  N   UNL     1      37.843 -19.300 -20.796  0.00  0.00    -0.191 NA
ATOM     28  C   UNL     1      36.690 -19.410 -20.720  0.00  0.00    +0.100 C 
ENDBRANCH  22  28
ENDBRANCH  20  21
ENDBRANCH   3  20
TORSDOF 5
ENDMDL
MODEL 6
REMARK VINA RESULT:      -7.3     11.504     14.934
REMARK  Name = 11450633
REMARK  5 active torsions:
REMARK  status: ('A' for Active; 'I' for Inactive)
REMARK    1  A    between atoms: N_3  and  C_20
REMARK    2  A    between atoms: C_5  and  N_10
REMARK    3  A    between atoms: C_11  and  N_16
REMARK    4  A    between atoms: C_20  and  C_21
REMARK    5  A    between atoms: C_22  and  C_28
REMARK                            x       y       z     vdW  Elec       q    Type
REMARK                         _______ _______ _______ _____ _____    ______ ____
ROOT
ATOM      1  O   UNL     1      31.825  -9.221 -23.268  0.00  0.00    -0.252 OA
ATOM      2  O   UNL     1      31.829 -10.075 -18.692  0.00  0.00    -0.269 OA
ATOM      3  N   UNL     1      32.212 -11.382 -22.500  0.00  0.00    -0.227 N 
ATOM      4  N   UNL     1      31.832  -9.585 -20.979  0.00  0.00    -0.208 N 
ATOM      5  C   UNL     1      32.349 -12.282 -21.438  0.00  0.00    +0.112 C 
ATOM      6  C   UNL     1      32.221 -11.831 -20.178  0.00  0.00    +0.089 C 
ATOM      7  C   UNL     1      31.948 -10.008 -22.323  0.00  0.00    +0.318 C 
ATOM      8  C   UNL     1      31.943 -10.417 -19.868  0.00  0.00    +0.259 C 
ATOM      9  C   UNL     1      31.560  -8.168 -20.758  0.00  0.00    +0.125 C 
ENDROOT
BRANCH   5  10
ATOM     10  N   UNL     1      32.606 -13.609 -21.626  0.00  0.00    -0.298 N 
ATOM     11  C   UNL     1      33.924 -14.972 -23.181  0.00  0.00    -0.046 C 
ATOM     12  C   UNL     1      32.603 -14.226 -22.955  0.00  0.00    +0.070 C 
ATOM     13  C   UNL     1      34.180 -15.981 -22.053  0.00  0.00    -0.018 C 
ATOM     14  C   UNL     1      34.122 -15.289 -20.691  0.00  0.00    +0.019 C 
ATOM     15  C   UNL     1      32.809 -14.531 -20.508  0.00  0.00    +0.092 C 
BRANCH  11  16
ATOM     16  N   UNL     1      33.901 -15.645 -24.478  0.00  0.00    +0.383 N 
ATOM     17  H   UNL     1      33.281 -16.454 -24.430  0.00  0.00    -0.089 HD
ATOM     18  H   UNL     1      34.844 -15.953 -24.718  0.00  0.00    -0.089 HD
ATOM     19  H   UNL     1      33.562 -14.999 -25.191  0.00  0.00    -0.089 HD
ENDBRANCH  11  16
ENDBRANCH   5  10
BRANCH   3  20
ATOM     20  C   UNL     1      32.349 -11.892 -23.866  0.00  0.00    +0.128 C 
BRANCH  20  21
ATOM     21  C   UNL     1      33.536 -11.300 -24.571  0.00  0.00    +0.008 C 
ATOM     22  C   UNL     1      33.982 -11.809 -25.787  0.00  0.00    +0.066 C 
ATOM     23  C   UNL     1      34.186 -10.222 -23.976  0.00  0.00    -0.002 C 
ATOM     24  C   UNL     1      35.088 -11.235 -26.414  0.00  0.00    +0.010 C 
ATOM     25  C   UNL     1      35.291  -9.647 -24.604  0.00  0.00    -0.000 C 
ATOM     26  C   UNL     1      35.742 -10.154 -25.823  0.00  0.00    +0.001 C 
BRANCH  22  28
ATOM     27  N   UNL     1      32.797 -13.814 -26.924  0.00  0.00    -0.191 NA
ATOM     28  C   UNL     1      33.327 -12.916 -26.414  0.00  0.00    +0.100 C 
ENDBRANCH  22  28
ENDBRANCH  20  21
ENDBRANCH   3  20
TORSDOF 5
ENDMDL
MODEL 7
REMARK VINA RESULT:      -7.2     10.859     14.405
REMARK  Name = 11450633
REMARK  5 active torsions:
REMARK  status: ('A' for Active; 'I' for Inactive)
REMARK    1  A    between atoms: N_3  and  C_20
REMARK    2  A    between atoms: C_5  and  N_10
REMARK    3  A    between atoms: C_11  and  N_16
REMARK    4  A    between atoms: C_20  and  C_21
REMARK    5  A    between atoms: C_22  and  C_28
REMARK                            x       y       z     vdW  Elec       q    Type
REMARK                         _______ _______ _______ _____ _____    ______ ____
ROOT
ATOM      1  O   UNL     1      31.475 -11.337 -22.814  0.00  0.00    -0.252 OA
ATOM      2  O   UNL     1      32.596 -14.305 -19.407  0.00  0.00    -0.269 OA
ATOM      3  N   UNL     1      32.707 -13.246 -23.308  0.00  0.00    -0.227 N 
ATOM      4  N   UNL     1      32.018 -12.770 -21.075  0.00  0.00    -0.208 N 
ATOM      5  C   UNL     1      33.331 -14.426 -22.889  0.00  0.00    +0.112 C 
ATOM      6  C   UNL     1      33.288 -14.761 -21.588  0.00  0.00    +0.089 C 
ATOM      7  C   UNL     1      32.028 -12.375 -22.432  0.00  0.00    +0.318 C 
ATOM      8  C   UNL     1      32.605 -13.932 -20.579  0.00  0.00    +0.259 C 
ATOM      9  C   UNL     1      31.325 -11.891 -20.140  0.00  0.00    +0.125 C 
ENDROOT
BRANCH   5  10
ATOM     10  N   UNL     1      33.987 -15.258 -23.749  0.00  0.00    -0.298 N 
ATOM     11  C   UNL     1      34.968 -17.504 -23.666  0.00  0.00    -0.046 C 
ATOM     12  C   UNL     1      35.176 -16.017 -23.350  0.00  0.00    +0.070 C 
ATOM     13  C   UNL     1      34.599 -17.701 -25.143  0.00  0.00    -0.018 C 
ATOM     14  C   UNL     1      33.385 -16.848 -25.511  0.00  0.00    +0.019 C 
ATOM     15  C   UNL     1      33.610 -15.379 -25.158  0.00  0.00    +0.092 C 
BRANCH  11  16
ATOM     16  N   UNL     1      36.175 -18.257 -23.332  0.00  0.00    +0.383 N 
ATOM     17  H   UNL     1      36.161 -18.500 -22.341  0.00  0.00    -0.089 HD
ATOM     18  H   UNL     1      36.997 -17.688 -23.531  0.00  0.00    -0.089 HD
ATOM     19  H   UNL     1      36.208 -19.110 -23.890  0.00  0.00    -0.089 HD
ENDBRANCH  11  16
ENDBRANCH   5  10
BRANCH   3  20
ATOM     20  C   UNL     1      32.761 -12.899 -24.730  0.00  0.00    +0.128 C 
BRANCH  20  21
ATOM     21  C   UNL     1      33.766 -11.819 -25.007  0.00  0.00    +0.008 C 
ATOM     22  C   UNL     1      34.460 -11.769 -26.213  0.00  0.00    +0.066 C 
ATOM     23  C   UNL     1      33.993 -10.859 -24.023  0.00  0.00    -0.002 C 
ATOM     24  C   UNL     1      35.387 -10.751 -26.437  0.00  0.00    +0.010 C 
ATOM     25  C   UNL     1      34.919  -9.842 -24.248  0.00  0.00    -0.000 C 
ATOM     26  C   UNL     1      35.617  -9.788 -25.455  0.00  0.00    +0.001 C 
BRANCH  22  28
ATOM     27  N   UNL     1      34.064 -13.536 -28.067  0.00  0.00    -0.191 NA
ATOM     28  C   UNL     1      34.242 -12.744 -27.237  0.00  0.00    +0.100 C 
ENDBRANCH  22  28
ENDBRANCH  20  21
ENDBRANCH   3  20
TORSDOF 5
ENDMDL
MODEL 8
REMARK VINA RESULT:      -6.9     10.827     14.304
REMARK  Name = 11450633
REMARK  5 active torsions:
REMARK  status: ('A' for Active; 'I' for Inactive)
REMARK    1  A    between atoms: N_3  and  C_20
REMARK    2  A    between atoms: C_5  and  N_10
REMARK    3  A    between atoms: C_11  and  N_16
REMARK    4  A    between atoms: C_20  and  C_21
REMARK    5  A    between atoms: C_22  and  C_28
REMARK                            x       y       z     vdW  Elec       q    Type
REMARK                         _______ _______ _______ _____ _____    ______ ____
ROOT
ATOM      1  O   UNL     1      33.104 -10.170 -23.832  0.00  0.00    -0.252 OA
ATOM      2  O   UNL     1      30.135 -10.971 -20.338  0.00  0.00    -0.269 OA
ATOM      3  N   UNL     1      33.095 -12.244 -22.781  0.00  0.00    -0.227 N 
ATOM      4  N   UNL     1      31.616 -10.507 -22.088  0.00  0.00    -0.208 N 
ATOM      5  C   UNL     1      32.577 -13.105 -21.809  0.00  0.00    +0.112 C 
ATOM      6  C   UNL     1      31.595 -12.665 -21.002  0.00  0.00    +0.089 C 
ATOM      7  C   UNL     1      32.643 -10.921 -22.966  0.00  0.00    +0.318 C 
ATOM      8  C   UNL     1      31.039 -11.303 -21.101  0.00  0.00    +0.259 C 
ATOM      9  C   UNL     1      31.124  -9.142 -22.250  0.00  0.00    +0.125 C 
ENDROOT
BRANCH   5  10
ATOM     10  N   UNL     1      33.026 -14.382 -21.641  0.00  0.00    -0.298 N 
ATOM     11  C   UNL     1      34.602 -15.886 -22.767  0.00  0.00    -0.046 C 
ATOM     12  C   UNL     1      33.180 -15.312 -22.764  0.00  0.00    +0.070 C 
ATOM     13  C   UNL     1      34.937 -16.523 -21.412  0.00  0.00    -0.018 C 
ATOM     14  C   UNL     1      34.710 -15.524 -20.278  0.00  0.00    +0.019 C 
ATOM     15  C   UNL     1      33.296 -14.948 -20.319  0.00  0.00    +0.092 C 
BRANCH  11  16
ATOM     16  N   UNL     1      34.743 -16.863 -23.845  0.00  0.00    +0.383 N 
ATOM     17  H   UNL     1      34.765 -16.379 -24.742  0.00  0.00    -0.089 HD
ATOM     18  H   UNL     1      33.951 -17.507 -23.825  0.00  0.00    -0.089 HD
ATOM     19  H   UNL     1      35.610 -17.386 -23.719  0.00  0.00    -0.089 HD
ENDBRANCH  11  16
ENDBRANCH   5  10
BRANCH   3  20
ATOM     20  C   UNL     1      34.161 -12.742 -23.654  0.00  0.00    +0.128 C 
BRANCH  20  21
ATOM     21  C   UNL     1      33.668 -13.010 -25.047  0.00  0.00    +0.008 C 
ATOM     22  C   UNL     1      34.063 -12.216 -26.119  0.00  0.00    +0.066 C 
ATOM     23  C   UNL     1      32.799 -14.081 -25.244  0.00  0.00    -0.002 C 
ATOM     24  C   UNL     1      33.586 -12.494 -27.400  0.00  0.00    +0.010 C 
ATOM     25  C   UNL     1      32.323 -14.359 -26.525  0.00  0.00    -0.000 C 
ATOM     26  C   UNL     1      32.715 -13.565 -27.603  0.00  0.00    +0.001 C 
BRANCH  22  28
ATOM     27  N   UNL     1      35.679 -10.217 -25.790  0.00  0.00    -0.191 NA
ATOM     28  C   UNL     1      34.955 -11.112 -25.937  0.00  0.00    +0.100 C 
ENDBRANCH  22  28
ENDBRANCH  20  21
ENDBRANCH   3  20
TORSDOF 5
ENDMDL
MODEL 9
REMARK VINA RESULT:      -6.7      1.228      2.066
REMARK  Name = 11450633
REMARK  5 active torsions:
REMARK  status: ('A' for Active; 'I' for Inactive)
REMARK    1  A    between atoms: N_3  and  C_20
REMARK    2  A    between atoms: C_5  and  N_10
REMARK    3  A    between atoms: C_11  and  N_16
REMARK    4  A    between atoms: C_20  and  C_21
REMARK    5  A    between atoms: C_22  and  C_28
REMARK                            x       y       z     vdW  Elec       q    Type
REMARK                         _______ _______ _______ _____ _____    ______ ____
ROOT
ATOM      1  O   UNL     1      37.152 -22.322 -15.364  0.00  0.00    -0.252 OA
ATOM      2  O   UNL     1      34.565 -22.335 -19.234  0.00  0.00    -0.269 OA
ATOM      3  N   UNL     1      34.900 -22.889 -15.243  0.00  0.00    -0.227 N 
ATOM      4  N   UNL     1      35.909 -22.296 -17.320  0.00  0.00    -0.208 N 
ATOM      5  C   UNL     1      33.667 -23.088 -15.872  0.00  0.00    +0.112 C 
ATOM      6  C   UNL     1      33.572 -22.896 -17.199  0.00  0.00    +0.089 C 
ATOM      7  C   UNL     1      36.065 -22.491 -15.929  0.00  0.00    +0.318 C 
ATOM      8  C   UNL     1      34.721 -22.482 -18.023  0.00  0.00    +0.259 C 
ATOM      9  C   UNL     1      37.094 -21.882 -18.063  0.00  0.00    +0.125 C 
ENDROOT
BRANCH   5  10
ATOM     10  N   UNL     1      32.547 -23.472 -15.192  0.00  0.00    -0.298 N 
ATOM     11  C   UNL     1      30.429 -24.588 -15.722  0.00  0.00    -0.046 C 
ATOM     12  C   UNL     1      31.198 -23.261 -15.724  0.00  0.00    +0.070 C 
ATOM     13  C   UNL     1      30.429 -25.215 -14.321  0.00  0.00    -0.018 C 
ATOM     14  C   UNL     1      31.858 -25.364 -13.800  0.00  0.00    +0.019 C 
ATOM     15  C   UNL     1      32.607 -24.034 -13.843  0.00  0.00    +0.092 C 
BRANCH  11  16
ATOM     16  N   UNL     1      29.061 -24.372 -16.189  0.00  0.00    +0.383 N 
ATOM     17  H   UNL     1      28.660 -23.566 -15.708  0.00  0.00    -0.089 HD
ATOM     18  H   UNL     1      28.499 -25.200 -15.991  0.00  0.00    -0.089 HD
ATOM     19  H   UNL     1      29.068 -24.198 -17.194  0.00  0.00    -0.089 HD
ENDBRANCH  11  16
ENDBRANCH   5  10
BRANCH   3  20
ATOM     20  C   UNL     1      34.986 -23.107 -13.797  0.00  0.00    +0.128 C 
BRANCH  20  21
ATOM     21  C   UNL     1      36.275 -23.770 -13.404  0.00  0.00    +0.008 C 
ATOM     22  C   UNL     1      36.684 -24.963 -13.992  0.00  0.00    +0.066 C 
ATOM     23  C   UNL     1      37.060 -23.160 -12.428  0.00  0.00    -0.002 C 
ATOM     24  C   UNL     1      37.887 -25.551 -13.603  0.00  0.00    +0.010 C 
ATOM     25  C   UNL     1      38.263 -23.747 -12.040  0.00  0.00    -0.000 C 
ATOM     26  C   UNL     1      38.677 -24.944 -12.627  0.00  0.00    +0.001 C 
BRANCH  22  28
ATOM     27  N   UNL     1      35.250 -26.127 -15.811  0.00  0.00    -0.191 NA
ATOM     28  C   UNL     1      35.892 -25.606 -14.996  0.00  0.00    +0.100 C 
ENDBRANCH  22  28
ENDBRANCH  20  21
ENDBRANCH   3  20
TORSDOF 5
ENDMDL
