MODEL 1
REMARK VINA RESULT:     -12.9      0.000      0.000
REMARK  Name = 5288710
REMARK  3 active torsions:
REMARK  status: ('A' for Active; 'I' for Inactive)
REMARK    1  A    between atoms: C_6  and  N_18
REMARK    2  A    between atoms: C_9  and  C_15
REMARK    3  A    between atoms: N_18  and  C_29
REMARK                            x       y       z     vdW  Elec       q    Type
REMARK                         _______ _______ _______ _____ _____    ______ ____
ROOT
ATOM      1  O   UNL     1      34.978 -23.835 -16.233  0.00  0.00    -0.270 OA
ATOM      2  N   UNL     1      32.999 -24.060 -14.964  0.00  0.00    -0.280 N 
ATOM      3  C   UNL     1      31.489 -23.066 -16.385  0.00  0.00    +0.019 C 
ATOM      4  C   UNL     1      32.812 -23.030 -16.999  0.00  0.00    +0.069 C 
ATOM      5  C   UNL     1      31.659 -23.703 -15.153  0.00  0.00    +0.051 C 
ATOM      6  C   UNL     1      33.169 -22.522 -18.181  0.00  0.00    +0.066 C 
ATOM      7  C   UNL     1      33.783 -23.682 -16.058  0.00  0.00    +0.251 C 
ATOM      8  C   UNL     1      30.242 -22.624 -16.786  0.00  0.00    +0.005 C 
ATOM      9  C   UNL     1      29.165 -22.834 -15.918  0.00  0.00    +0.036 C 
ATOM     10  C   UNL     1      30.610 -23.921 -14.281  0.00  0.00    +0.015 C 
ATOM     11  C   UNL     1      29.346 -23.476 -14.678  0.00  0.00    +0.004 C 
ATOM     12  H   UNL     1      33.344 -24.519 -14.164  0.00  0.00    +0.155 HD
ENDROOT
BRANCH   9  15
ATOM     13  O   UNL     1      27.680 -22.070 -17.608  0.00  0.00    -0.431 OA
ATOM     14  N   UNL     1      25.716 -21.742 -16.535  0.00  0.00    -0.203 NA
ATOM     15  C   UNL     1      27.847 -22.386 -16.298  0.00  0.00    +0.166 C 
ATOM     16  C   UNL     1      26.663 -22.189 -15.648  0.00  0.00    +0.140 C 
ATOM     17  C   UNL     1      26.374 -21.692 -17.671  0.00  0.00    +0.285 C 
ENDBRANCH   9  15
BRANCH   6  18
ATOM     18  N   UNL     1      34.399 -22.495 -18.736  0.00  0.00    -0.311 N 
ATOM     19  H   UNL     1      34.953 -23.295 -18.584  0.00  0.00    +0.152 HD
BRANCH  18  29
ATOM     20  S   UNL     1      35.301 -17.731 -22.693  0.00  0.00    -0.002 S 
ATOM     21  O   UNL     1      35.348 -18.202 -24.063  0.00  0.00    -0.172 OA
ATOM     22  O   UNL     1      35.154 -16.324 -22.378  0.00  0.00    -0.172 OA
ATOM     23  C   UNL     1      34.021 -18.637 -21.839  0.00  0.00    +0.177 C 
ATOM     24  C   UNL     1      36.745 -18.350 -21.844  0.00  0.00    +0.177 C 
ATOM     25  C   UNL     1      34.797 -19.608 -21.016  0.00  0.00    +0.000 C 
ATOM     26  C   UNL     1      36.190 -19.462 -21.018  0.00  0.00    -0.001 C 
ATOM     27  C   UNL     1      34.199 -20.612 -20.258  0.00  0.00    +0.012 C 
ATOM     28  C   UNL     1      36.986 -20.319 -20.263  0.00  0.00    -0.002 C 
ATOM     29  C   UNL     1      34.997 -21.474 -19.504  0.00  0.00    +0.048 C 
ATOM     30  C   UNL     1      36.387 -21.327 -19.507  0.00  0.00    +0.014 C 
ENDBRANCH  18  29
ENDBRANCH   6  18
TORSDOF 3
ENDMDL
MODEL 2
REMARK VINA RESULT:     -12.6      5.428     10.493
REMARK  Name = 5288710
REMARK  3 active torsions:
REMARK  status: ('A' for Active; 'I' for Inactive)
REMARK    1  A    between atoms: C_6  and  N_18
REMARK    2  A    between atoms: C_9  and  C_15
REMARK    3  A    between atoms: N_18  and  C_29
REMARK                            x       y       z     vdW  Elec       q    Type
REMARK                         _______ _______ _______ _____ _____    ______ ____
ROOT
ATOM      1  O   UNL     1      34.697 -18.758 -24.552  0.00  0.00    -0.270 OA
ATOM      2  N   UNL     1      33.833 -16.905 -25.734  0.00  0.00    -0.280 N 
ATOM      3  C   UNL     1      34.175 -15.239 -24.186  0.00  0.00    +0.019 C 
ATOM      4  C   UNL     1      34.654 -16.503 -23.637  0.00  0.00    +0.069 C 
ATOM      5  C   UNL     1      33.687 -15.540 -25.461  0.00  0.00    +0.051 C 
ATOM      6  C   UNL     1      35.209 -16.736 -22.444  0.00  0.00    +0.066 C 
ATOM      7  C   UNL     1      34.422 -17.577 -24.659  0.00  0.00    +0.251 C 
ATOM      8  C   UNL     1      34.135 -13.945 -23.702  0.00  0.00    +0.005 C 
ATOM      9  C   UNL     1      33.590 -12.956 -24.527  0.00  0.00    +0.036 C 
ATOM     10  C   UNL     1      33.147 -14.579 -26.292  0.00  0.00    +0.015 C 
ATOM     11  C   UNL     1      33.101 -13.268 -25.810  0.00  0.00    +0.004 C 
ATOM     12  H   UNL     1      33.555 -17.335 -26.575  0.00  0.00    +0.155 HD
ENDROOT
BRANCH   9  15
ATOM     13  O   UNL     1      32.578 -11.327 -23.124  0.00  0.00    -0.431 OA
ATOM     14  N   UNL     1      33.711  -9.418 -23.559  0.00  0.00    -0.203 NA
ATOM     15  C   UNL     1      33.528 -11.592 -24.058  0.00  0.00    +0.166 C 
ATOM     16  C   UNL     1      34.213 -10.442 -24.322  0.00  0.00    +0.140 C 
ATOM     17  C   UNL     1      32.753 -10.000 -22.875  0.00  0.00    +0.285 C 
ENDBRANCH   9  15
BRANCH   6  18
ATOM     18  N   UNL     1      35.647 -17.913 -21.949  0.00  0.00    -0.311 N 
ATOM     19  H   UNL     1      36.597 -18.116 -22.108  0.00  0.00    +0.152 HD
BRANCH  18  29
ATOM     20  S   UNL     1      34.116 -23.025 -18.679  0.00  0.00    -0.002 S 
ATOM     21  O   UNL     1      33.969 -24.171 -19.555  0.00  0.00    -0.172 OA
ATOM     22  O   UNL     1      34.212 -23.175 -17.241  0.00  0.00    -0.172 OA
ATOM     23  C   UNL     1      35.519 -22.074 -19.242  0.00  0.00    +0.177 C 
ATOM     24  C   UNL     1      32.794 -21.879 -19.038  0.00  0.00    +0.177 C 
ATOM     25  C   UNL     1      34.878 -20.915 -19.927  0.00  0.00    +0.000 C 
ATOM     26  C   UNL     1      33.485 -20.815 -19.823  0.00  0.00    -0.001 C 
ATOM     27  C   UNL     1      35.599 -19.953 -20.630  0.00  0.00    +0.012 C 
ATOM     28  C   UNL     1      32.812 -19.753 -20.422  0.00  0.00    -0.002 C 
ATOM     29  C   UNL     1      34.924 -18.891 -21.233  0.00  0.00    +0.048 C 
ATOM     30  C   UNL     1      33.535 -18.791 -21.129  0.00  0.00    +0.014 C 
ENDBRANCH  18  29
ENDBRANCH   6  18
TORSDOF 3
ENDMDL
MODEL 3
REMARK VINA RESULT:     -11.8      9.659     13.526
REMARK  Name = 5288710
REMARK  3 active torsions:
REMARK  status: ('A' for Active; 'I' for Inactive)
REMARK    1  A    between atoms: C_6  and  N_18
REMARK    2  A    between atoms: C_9  and  C_15
REMARK    3  A    between atoms: N_18  and  C_29
REMARK                            x       y       z     vdW  Elec       q    Type
REMARK                         _______ _______ _______ _____ _____    ______ ____
ROOT
ATOM      1  O   UNL     1      31.743 -11.280 -19.328  0.00  0.00    -0.270 OA
ATOM      2  N   UNL     1      31.976  -8.934 -19.470  0.00  0.00    -0.280 N 
ATOM      3  C   UNL     1      31.905  -8.655 -21.751  0.00  0.00    +0.019 C 
ATOM      4  C   UNL     1      31.774 -10.075 -21.442  0.00  0.00    +0.069 C 
ATOM      5  C   UNL     1      32.024  -8.008 -20.518  0.00  0.00    +0.051 C 
ATOM      6  C   UNL     1      31.634 -11.102 -22.286  0.00  0.00    +0.066 C 
ATOM      7  C   UNL     1      31.823 -10.238 -19.951  0.00  0.00    +0.251 C 
ATOM      8  C   UNL     1      31.925  -7.936 -22.931  0.00  0.00    +0.005 C 
ATOM      9  C   UNL     1      32.070  -6.547 -22.847  0.00  0.00    +0.036 C 
ATOM     10  C   UNL     1      32.167  -6.639 -20.412  0.00  0.00    +0.015 C 
ATOM     11  C   UNL     1      32.189  -5.904 -21.600  0.00  0.00    +0.004 C 
ATOM     12  H   UNL     1      32.042  -8.697 -18.516  0.00  0.00    +0.155 HD
ENDROOT
BRANCH   9  15
ATOM     13  O   UNL     1      33.159  -5.968 -24.878  0.00  0.00    -0.431 OA
ATOM     14  N   UNL     1      31.825  -4.398 -25.811  0.00  0.00    -0.203 NA
ATOM     15  C   UNL     1      32.098  -5.760 -24.056  0.00  0.00    +0.166 C 
ATOM     16  C   UNL     1      31.291  -4.813 -24.617  0.00  0.00    +0.140 C 
ATOM     17  C   UNL     1      32.922  -5.113 -25.910  0.00  0.00    +0.285 C 
ENDBRANCH   9  15
BRANCH   6  18
ATOM     18  N   UNL     1      31.514 -12.412 -21.984  0.00  0.00    -0.311 N 
ATOM     19  H   UNL     1      30.677 -12.672 -21.536  0.00  0.00    +0.152 HD
BRANCH  18  29
ATOM     20  S   UNL     1      34.702 -17.785 -21.607  0.00  0.00    -0.002 S 
ATOM     21  O   UNL     1      35.719 -17.708 -20.577  0.00  0.00    -0.172 OA
ATOM     22  O   UNL     1      34.308 -19.050 -22.193  0.00  0.00    -0.172 OA
ATOM     23  C   UNL     1      33.236 -16.965 -21.000  0.00  0.00    +0.177 C 
ATOM     24  C   UNL     1      35.162 -16.672 -22.925  0.00  0.00    +0.177 C 
ATOM     25  C   UNL     1      33.258 -15.667 -21.733  0.00  0.00    +0.000 C 
ATOM     26  C   UNL     1      34.242 -15.517 -22.717  0.00  0.00    -0.001 C 
ATOM     27  C   UNL     1      32.349 -14.640 -21.488  0.00  0.00    +0.012 C 
ATOM     28  C   UNL     1      34.320 -14.339 -23.458  0.00  0.00    -0.002 C 
ATOM     29  C   UNL     1      32.429 -13.459 -22.228  0.00  0.00    +0.048 C 
ATOM     30  C   UNL     1      33.412 -13.309 -23.209  0.00  0.00    +0.014 C 
ENDBRANCH  18  29
ENDBRANCH   6  18
TORSDOF 3
ENDMDL
MODEL 4
REMARK VINA RESULT:     -11.5      6.963     11.134
REMARK  Name = 5288710
REMARK  3 active torsions:
REMARK  status: ('A' for Active; 'I' for Inactive)
REMARK    1  A    between atoms: C_6  and  N_18
REMARK    2  A    between atoms: C_9  and  C_15
REMARK    3  A    between atoms: N_18  and  C_29
REMARK                            x       y       z     vdW  Elec       q    Type
REMARK                         _______ _______ _______ _____ _____    ______ ____
ROOT
ATOM      1  O   UNL     1      32.718 -13.840 -26.081  0.00  0.00    -0.270 OA
ATOM      2  N   UNL     1      33.618 -16.024 -26.078  0.00  0.00    -0.280 N 
ATOM      3  C   UNL     1      34.036 -16.287 -23.831  0.00  0.00    +0.019 C 
ATOM      4  C   UNL     1      33.461 -14.965 -24.055  0.00  0.00    +0.069 C 
ATOM      5  C   UNL     1      34.109 -16.887 -25.092  0.00  0.00    +0.051 C 
ATOM      6  C   UNL     1      33.194 -14.011 -23.159  0.00  0.00    +0.066 C 
ATOM      7  C   UNL     1      33.196 -14.811 -25.524  0.00  0.00    +0.251 C 
ATOM      8  C   UNL     1      34.467 -16.960 -22.703  0.00  0.00    +0.005 C 
ATOM      9  C   UNL     1      34.976 -18.252 -22.868  0.00  0.00    +0.036 C 
ATOM     10  C   UNL     1      34.607 -18.162 -25.277  0.00  0.00    +0.015 C 
ATOM     11  C   UNL     1      35.046 -18.848 -24.141  0.00  0.00    +0.004 C 
ATOM     12  H   UNL     1      33.576 -16.242 -27.036  0.00  0.00    +0.155 HD
ENDROOT
BRANCH   9  15
ATOM     13  O   UNL     1      34.599 -19.944 -21.244  0.00  0.00    -0.431 OA
ATOM     14  N   UNL     1      36.456 -19.917 -19.951  0.00  0.00    -0.203 NA
ATOM     15  C   UNL     1      35.439 -18.987 -21.715  0.00  0.00    +0.166 C 
ATOM     16  C   UNL     1      36.560 -18.968 -20.937  0.00  0.00    +0.140 C 
ATOM     17  C   UNL     1      35.282 -20.459 -20.184  0.00  0.00    +0.285 C 
ENDBRANCH   9  15
BRANCH   6  18
ATOM     18  N   UNL     1      32.661 -12.790 -23.382  0.00  0.00    -0.311 N 
ATOM     19  H   UNL     1      32.459 -12.578 -24.322  0.00  0.00    +0.152 HD
BRANCH  18  29
ATOM     20  S   UNL     1      32.248  -7.281 -20.441  0.00  0.00    -0.002 S 
ATOM     21  O   UNL     1      33.466  -6.997 -19.707  0.00  0.00    -0.172 OA
ATOM     22  O   UNL     1      31.255  -6.256 -20.691  0.00  0.00    -0.172 OA
ATOM     23  C   UNL     1      32.701  -8.020 -22.002  0.00  0.00    +0.177 C 
ATOM     24  C   UNL     1      31.441  -8.669 -19.659  0.00  0.00    +0.177 C 
ATOM     25  C   UNL     1      32.388  -9.462 -21.788  0.00  0.00    +0.000 C 
ATOM     26  C   UNL     1      31.744  -9.794 -20.590  0.00  0.00    -0.001 C 
ATOM     27  C   UNL     1      32.692 -10.453 -22.718  0.00  0.00    +0.012 C 
ATOM     28  C   UNL     1      31.403 -11.118 -20.320  0.00  0.00    -0.002 C 
ATOM     29  C   UNL     1      32.354 -11.780 -22.446  0.00  0.00    +0.048 C 
ATOM     30  C   UNL     1      31.711 -12.111 -21.251  0.00  0.00    +0.014 C 
ENDBRANCH  18  29
ENDBRANCH   6  18
TORSDOF 3
ENDMDL
MODEL 5
REMARK VINA RESULT:     -11.4      3.938      6.495
REMARK  Name = 5288710
REMARK  3 active torsions:
REMARK  status: ('A' for Active; 'I' for Inactive)
REMARK    1  A    between atoms: C_6  and  N_18
REMARK    2  A    between atoms: C_9  and  C_15
REMARK    3  A    between atoms: N_18  and  C_29
REMARK                            x       y       z     vdW  Elec       q    Type
REMARK                         _______ _______ _______ _____ _____    ______ ____
ROOT
ATOM      1  O   UNL     1      33.112 -19.810 -21.744  0.00  0.00    -0.270 OA
ATOM      2  N   UNL     1      32.755 -21.348 -19.987  0.00  0.00    -0.280 N 
ATOM      3  C   UNL     1      34.856 -21.394 -19.054  0.00  0.00    +0.019 C 
ATOM      4  C   UNL     1      34.861 -20.477 -20.189  0.00  0.00    +0.069 C 
ATOM      5  C   UNL     1      33.553 -21.894 -18.976  0.00  0.00    +0.051 C 
ATOM      6  C   UNL     1      35.874 -19.751 -20.669  0.00  0.00    +0.066 C 
ATOM      7  C   UNL     1      33.484 -20.460 -20.785  0.00  0.00    +0.251 C 
ATOM      8  C   UNL     1      35.822 -21.796 -18.150  0.00  0.00    +0.005 C 
ATOM      9  C   UNL     1      35.452 -22.716 -17.164  0.00  0.00    +0.036 C 
ATOM     10  C   UNL     1      33.166 -22.802 -18.010  0.00  0.00    +0.015 C 
ATOM     11  C   UNL     1      34.137 -23.214 -17.094  0.00  0.00    +0.004 C 
ATOM     12  H   UNL     1      31.803 -21.562 -20.119  0.00  0.00    +0.155 HD
ENDROOT
BRANCH   9  15
ATOM     13  O   UNL     1      36.195 -24.370 -15.630  0.00  0.00    -0.431 OA
ATOM     14  N   UNL     1      38.124 -23.540 -14.788  0.00  0.00    -0.203 NA
ATOM     15  C   UNL     1      36.432 -23.162 -16.203  0.00  0.00    +0.166 C 
ATOM     16  C   UNL     1      37.596 -22.660 -15.698  0.00  0.00    +0.140 C 
ATOM     17  C   UNL     1      37.257 -24.526 -14.792  0.00  0.00    +0.285 C 
ENDBRANCH   9  15
BRANCH   6  18
ATOM     18  N   UNL     1      35.863 -18.906 -21.722  0.00  0.00    -0.311 N 
ATOM     19  H   UNL     1      36.344 -19.216 -22.523  0.00  0.00    +0.152 HD
BRANCH  18  29
ATOM     20  S   UNL     1      33.268 -13.680 -23.986  0.00  0.00    -0.002 S 
ATOM     21  O   UNL     1      34.288 -12.753 -24.438  0.00  0.00    -0.172 OA
ATOM     22  O   UNL     1      31.874 -13.507 -24.340  0.00  0.00    -0.172 OA
ATOM     23  C   UNL     1      33.770 -15.328 -24.456  0.00  0.00    +0.177 C 
ATOM     24  C   UNL     1      33.387 -13.810 -22.209  0.00  0.00    +0.177 C 
ATOM     25  C   UNL     1      34.247 -15.907 -23.168  0.00  0.00    +0.000 C 
ATOM     26  C   UNL     1      34.051 -15.132 -22.019  0.00  0.00    -0.001 C 
ATOM     27  C   UNL     1      34.846 -17.162 -23.073  0.00  0.00    +0.012 C 
ATOM     28  C   UNL     1      34.454 -15.609 -20.774  0.00  0.00    -0.002 C 
ATOM     29  C   UNL     1      35.253 -17.638 -21.826  0.00  0.00    +0.048 C 
ATOM     30  C   UNL     1      35.058 -16.863 -20.680  0.00  0.00    +0.014 C 
ENDBRANCH  18  29
ENDBRANCH   6  18
TORSDOF 3
ENDMDL
MODEL 6
REMARK VINA RESULT:     -11.4      2.274      3.463
REMARK  Name = 5288710
REMARK  3 active torsions:
REMARK  status: ('A' for Active; 'I' for Inactive)
REMARK    1  A    between atoms: C_6  and  N_18
REMARK    2  A    between atoms: C_9  and  C_15
REMARK    3  A    between atoms: N_18  and  C_29
REMARK                            x       y       z     vdW  Elec       q    Type
REMARK                         _______ _______ _______ _____ _____    ______ ____
ROOT
ATOM      1  O   UNL     1      37.112 -21.411 -19.043  0.00  0.00    -0.270 OA
ATOM      2  N   UNL     1      36.072 -22.451 -17.194  0.00  0.00    -0.280 N 
ATOM      3  C   UNL     1      33.872 -22.355 -17.858  0.00  0.00    +0.019 C 
ATOM      4  C   UNL     1      34.706 -21.747 -18.890  0.00  0.00    +0.069 C 
ATOM      5  C   UNL     1      34.752 -22.765 -16.852  0.00  0.00    +0.051 C 
ATOM      6  C   UNL     1      34.331 -21.203 -20.051  0.00  0.00    +0.066 C 
ATOM      7  C   UNL     1      36.136 -21.818 -18.440  0.00  0.00    +0.251 C 
ATOM      8  C   UNL     1      32.511 -22.565 -17.735  0.00  0.00    +0.005 C 
ATOM      9  C   UNL     1      32.050 -23.196 -16.576  0.00  0.00    +0.036 C 
ATOM     10  C   UNL     1      34.318 -23.391 -15.700  0.00  0.00    +0.015 C 
ATOM     11  C   UNL     1      32.944 -23.606 -15.568  0.00  0.00    +0.004 C 
ATOM     12  H   UNL     1      36.854 -22.649 -16.631  0.00  0.00    +0.155 HD
ENDROOT
BRANCH   9  15
ATOM     13  O   UNL     1      29.809 -22.527 -16.990  0.00  0.00    -0.431 OA
ATOM     14  N   UNL     1      28.546 -24.095 -15.958  0.00  0.00    -0.203 NA
ATOM     15  C   UNL     1      30.636 -23.432 -16.408  0.00  0.00    +0.166 C 
ATOM     16  C   UNL     1      29.877 -24.380 -15.785  0.00  0.00    +0.140 C 
ATOM     17  C   UNL     1      28.569 -22.995 -16.676  0.00  0.00    +0.285 C 
ENDBRANCH   9  15
BRANCH   6  18
ATOM     18  N   UNL     1      35.115 -20.644 -20.996  0.00  0.00    -0.311 N 
ATOM     19  H   UNL     1      35.949 -21.127 -21.200  0.00  0.00    +0.152 HD
BRANCH  18  29
ATOM     20  S   UNL     1      33.694 -14.759 -22.585  0.00  0.00    -0.002 S 
ATOM     21  O   UNL     1      32.259 -14.592 -22.708  0.00  0.00    -0.172 OA
ATOM     22  O   UNL     1      34.588 -13.621 -22.521  0.00  0.00    -0.172 OA
ATOM     23  C   UNL     1      34.010 -15.806 -21.173  0.00  0.00    +0.177 C 
ATOM     24  C   UNL     1      34.242 -15.834 -23.902  0.00  0.00    +0.177 C 
ATOM     25  C   UNL     1      34.353 -17.113 -21.802  0.00  0.00    +0.000 C 
ATOM     26  C   UNL     1      34.472 -17.128 -23.197  0.00  0.00    -0.001 C 
ATOM     27  C   UNL     1      34.568 -18.278 -21.067  0.00  0.00    +0.012 C 
ATOM     28  C   UNL     1      34.806 -18.307 -23.860  0.00  0.00    -0.002 C 
ATOM     29  C   UNL     1      34.898 -19.459 -21.732  0.00  0.00    +0.048 C 
ATOM     30  C   UNL     1      35.017 -19.474 -23.124  0.00  0.00    +0.014 C 
ENDBRANCH  18  29
ENDBRANCH   6  18
TORSDOF 3
ENDMDL
MODEL 7
REMARK VINA RESULT:     -11.4      9.743     13.575
REMARK  Name = 5288710
REMARK  3 active torsions:
REMARK  status: ('A' for Active; 'I' for Inactive)
REMARK    1  A    between atoms: C_6  and  N_18
REMARK    2  A    between atoms: C_9  and  C_15
REMARK    3  A    between atoms: N_18  and  C_29
REMARK                            x       y       z     vdW  Elec       q    Type
REMARK                         _______ _______ _______ _____ _____    ______ ____
ROOT
ATOM      1  O   UNL     1      31.732 -11.147 -19.140  0.00  0.00    -0.270 OA
ATOM      2  N   UNL     1      31.955  -8.805 -19.350  0.00  0.00    -0.280 N 
ATOM      3  C   UNL     1      31.893  -8.594 -21.640  0.00  0.00    +0.019 C 
ATOM      4  C   UNL     1      31.767 -10.005 -21.289  0.00  0.00    +0.069 C 
ATOM      5  C   UNL     1      32.004  -7.910 -20.426  0.00  0.00    +0.051 C 
ATOM      6  C   UNL     1      31.636 -11.056 -22.103  0.00  0.00    +0.066 C 
ATOM      7  C   UNL     1      31.810 -10.123 -19.794  0.00  0.00    +0.251 C 
ATOM      8  C   UNL     1      31.916  -7.909 -22.840  0.00  0.00    +0.005 C 
ATOM      9  C   UNL     1      32.054  -6.518 -22.796  0.00  0.00    +0.036 C 
ATOM     10  C   UNL     1      32.140  -6.537 -20.359  0.00  0.00    +0.015 C 
ATOM     11  C   UNL     1      32.165  -5.838 -21.569  0.00  0.00    +0.004 C 
ATOM     12  H   UNL     1      32.015  -8.539 -18.404  0.00  0.00    +0.155 HD
ENDROOT
BRANCH   9  15
ATOM     13  O   UNL     1      33.175  -5.956 -24.814  0.00  0.00    -0.431 OA
ATOM     14  N   UNL     1      31.806  -4.470 -25.831  0.00  0.00    -0.203 NA
ATOM     15  C   UNL     1      32.084  -5.767 -24.029  0.00  0.00    +0.166 C 
ATOM     16  C   UNL     1      31.256  -4.871 -24.640  0.00  0.00    +0.140 C 
ATOM     17  C   UNL     1      32.933  -5.142 -25.879  0.00  0.00    +0.285 C 
ENDBRANCH   9  15
BRANCH   6  18
ATOM     18  N   UNL     1      31.521 -12.358 -21.763  0.00  0.00    -0.311 N 
ATOM     19  H   UNL     1      30.789 -12.574 -21.142  0.00  0.00    +0.152 HD
BRANCH  18  29
ATOM     20  S   UNL     1      34.333 -16.719 -25.263  0.00  0.00    -0.002 S 
ATOM     21  O   UNL     1      33.427 -17.816 -25.544  0.00  0.00    -0.172 OA
ATOM     22  O   UNL     1      35.576 -16.556 -25.989  0.00  0.00    -0.172 OA
ATOM     23  C   UNL     1      33.409 -15.195 -25.375  0.00  0.00    +0.177 C 
ATOM     24  C   UNL     1      34.699 -16.737 -23.515  0.00  0.00    +0.177 C 
ATOM     25  C   UNL     1      33.213 -14.822 -23.945  0.00  0.00    +0.000 C 
ATOM     26  C   UNL     1      33.872 -15.610 -22.994  0.00  0.00    -0.001 C 
ATOM     27  C   UNL     1      32.433 -13.740 -23.541  0.00  0.00    +0.012 C 
ATOM     28  C   UNL     1      33.753 -15.318 -21.637  0.00  0.00    -0.002 C 
ATOM     29  C   UNL     1      32.311 -13.450 -22.181  0.00  0.00    +0.048 C 
ATOM     30  C   UNL     1      32.969 -14.237 -21.232  0.00  0.00    +0.014 C 
ENDBRANCH  18  29
ENDBRANCH   6  18
TORSDOF 3
ENDMDL
MODEL 8
REMARK VINA RESULT:     -11.4      2.661      5.499
REMARK  Name = 5288710
REMARK  3 active torsions:
REMARK  status: ('A' for Active; 'I' for Inactive)
REMARK    1  A    between atoms: C_6  and  N_18
REMARK    2  A    between atoms: C_9  and  C_15
REMARK    3  A    between atoms: N_18  and  C_29
REMARK                            x       y       z     vdW  Elec       q    Type
REMARK                         _______ _______ _______ _____ _____    ______ ____
ROOT
ATOM      1  O   UNL     1      31.530 -22.544 -17.814  0.00  0.00    -0.270 OA
ATOM      2  N   UNL     1      31.705 -23.313 -15.587  0.00  0.00    -0.280 N 
ATOM      3  C   UNL     1      33.986 -23.543 -15.413  0.00  0.00    +0.019 C 
ATOM      4  C   UNL     1      33.658 -23.065 -16.752  0.00  0.00    +0.069 C 
ATOM      5  C   UNL     1      32.764 -23.676 -14.748  0.00  0.00    +0.051 C 
ATOM      6  C   UNL     1      34.486 -22.786 -17.763  0.00  0.00    +0.066 C 
ATOM      7  C   UNL     1      32.167 -22.921 -16.847  0.00  0.00    +0.251 C 
ATOM      8  C   UNL     1      35.174 -23.847 -14.776  0.00  0.00    +0.005 C 
ATOM      9  C   UNL     1      35.110 -24.291 -13.451  0.00  0.00    +0.036 C 
ATOM     10  C   UNL     1      32.678 -24.112 -13.440  0.00  0.00    +0.015 C 
ATOM     11  C   UNL     1      33.874 -24.422 -12.789  0.00  0.00    +0.004 C 
ATOM     12  H   UNL     1      30.756 -23.331 -15.323  0.00  0.00    +0.155 HD
ENDROOT
BRANCH   9  15
ATOM     13  O   UNL     1      37.058 -25.638 -13.275  0.00  0.00    -0.431 OA
ATOM     14  N   UNL     1      38.124 -24.860 -11.437  0.00  0.00    -0.203 NA
ATOM     15  C   UNL     1      36.328 -24.621 -12.751  0.00  0.00    +0.166 C 
ATOM     16  C   UNL     1      36.969 -24.149 -11.642  0.00  0.00    +0.140 C 
ATOM     17  C   UNL     1      38.123 -25.721 -12.429  0.00  0.00    +0.285 C 
ENDBRANCH   9  15
BRANCH   6  18
ATOM     18  N   UNL     1      34.166 -22.344 -18.999  0.00  0.00    -0.311 N 
ATOM     19  H   UNL     1      33.433 -22.824 -19.447  0.00  0.00    +0.152 HD
BRANCH  18  29
ATOM     20  S   UNL     1      34.950 -17.313 -22.638  0.00  0.00    -0.002 S 
ATOM     21  O   UNL     1      34.877 -17.676 -24.040  0.00  0.00    -0.172 OA
ATOM     22  O   UNL     1      34.881 -15.932 -22.206  0.00  0.00    -0.172 OA
ATOM     23  C   UNL     1      33.704 -18.242 -21.759  0.00  0.00    +0.177 C 
ATOM     24  C   UNL     1      36.429 -18.044 -21.953  0.00  0.00    +0.177 C 
ATOM     25  C   UNL     1      34.502 -19.300 -21.076  0.00  0.00    +0.000 C 
ATOM     26  C   UNL     1      35.895 -19.199 -21.175  0.00  0.00    -0.001 C 
ATOM     27  C   UNL     1      33.924 -20.341 -20.352  0.00  0.00    +0.012 C 
ATOM     28  C   UNL     1      36.712 -20.139 -20.551  0.00  0.00    -0.002 C 
ATOM     29  C   UNL     1      34.743 -21.285 -19.731  0.00  0.00    +0.048 C 
ATOM     30  C   UNL     1      36.133 -21.183 -19.830  0.00  0.00    +0.014 C 
ENDBRANCH  18  29
ENDBRANCH   6  18
TORSDOF 3
ENDMDL
MODEL 9
REMARK VINA RESULT:     -11.1      7.099     11.234
REMARK  Name = 5288710
REMARK  3 active torsions:
REMARK  status: ('A' for Active; 'I' for Inactive)
REMARK    1  A    between atoms: C_6  and  N_18
REMARK    2  A    between atoms: C_9  and  C_15
REMARK    3  A    between atoms: N_18  and  C_29
REMARK                            x       y       z     vdW  Elec       q    Type
REMARK                         _______ _______ _______ _____ _____    ______ ____
ROOT
ATOM      1  O   UNL     1      32.434 -13.510 -25.741  0.00  0.00    -0.270 OA
ATOM      2  N   UNL     1      33.711 -15.492 -25.879  0.00  0.00    -0.280 N 
ATOM      3  C   UNL     1      33.854 -16.041 -23.650  0.00  0.00    +0.019 C 
ATOM      4  C   UNL     1      33.082 -14.810 -23.787  0.00  0.00    +0.069 C 
ATOM      5  C   UNL     1      34.210 -16.412 -24.950  0.00  0.00    +0.051 C 
ATOM      6  C   UNL     1      32.522 -14.067 -22.829  0.00  0.00    +0.066 C 
ATOM      7  C   UNL     1      33.000 -14.467 -25.247  0.00  0.00    +0.251 C 
ATOM      8  C   UNL     1      34.240 -16.806 -22.566  0.00  0.00    +0.005 C 
ATOM      9  C   UNL     1      34.995 -17.956 -22.815  0.00  0.00    +0.036 C 
ATOM     10  C   UNL     1      34.955 -17.544 -25.218  0.00  0.00    +0.015 C 
ATOM     11  C   UNL     1      35.350 -18.322 -24.127  0.00  0.00    +0.004 C 
ATOM     12  H   UNL     1      33.844 -15.558 -26.852  0.00  0.00    +0.155 HD
ENDROOT
BRANCH   9  15
ATOM     13  O   UNL     1      34.511 -19.683 -21.256  0.00  0.00    -0.431 OA
ATOM     14  N   UNL     1      36.395 -19.879 -20.020  0.00  0.00    -0.203 NA
ATOM     15  C   UNL     1      35.420 -18.782 -21.709  0.00  0.00    +0.166 C 
ATOM     16  C   UNL     1      36.558 -18.898 -20.965  0.00  0.00    +0.140 C 
ATOM     17  C   UNL     1      35.172 -20.304 -20.241  0.00  0.00    +0.285 C 
ENDBRANCH   9  15
BRANCH   6  18
ATOM     18  N   UNL     1      31.810 -12.928 -22.973  0.00  0.00    -0.311 N 
ATOM     19  H   UNL     1      30.882 -13.041 -23.283  0.00  0.00    +0.152 HD
BRANCH  18  29
ATOM     20  S   UNL     1      32.377  -7.179 -20.566  0.00  0.00    -0.002 S 
ATOM     21  O   UNL     1      31.312  -6.316 -21.039  0.00  0.00    -0.172 OA
ATOM     22  O   UNL     1      33.218  -6.805 -19.447  0.00  0.00    -0.172 OA
ATOM     23  C   UNL     1      31.679  -8.789 -20.233  0.00  0.00    +0.177 C 
ATOM     24  C   UNL     1      33.429  -7.573 -21.954  0.00  0.00    +0.177 C 
ATOM     25  C   UNL     1      32.139  -9.595 -21.400  0.00  0.00    +0.000 C 
ATOM     26  C   UNL     1      33.033  -8.974 -22.280  0.00  0.00    -0.001 C 
ATOM     27  C   UNL     1      31.732 -10.908 -21.625  0.00  0.00    +0.012 C 
ATOM     28  C   UNL     1      33.523  -9.665 -23.386  0.00  0.00    -0.002 C 
ATOM     29  C   UNL     1      32.219 -11.599 -22.735  0.00  0.00    +0.048 C 
ATOM     30  C   UNL     1      33.112 -10.979 -23.613  0.00  0.00    +0.014 C 
ENDBRANCH  18  29
ENDBRANCH   6  18
TORSDOF 3
ENDMDL
