MODEL 1
REMARK VINA RESULT:      -7.4      0.000      0.000
REMARK  Name = 2083
REMARK  8 active torsions:
REMARK  status: ('A' for Active; 'I' for Inactive)
REMARK    1  A    between atoms: C_1  and  C_2
REMARK    2  A    between atoms: C_1  and  O_13
REMARK    3  A    between atoms: C_1  and  C_15
REMARK    4  A    between atoms: C_5  and  C_10
REMARK    5  A    between atoms: C_6  and  O_8
REMARK    6  A    between atoms: C_10  and  O_11
REMARK    7  A    between atoms: C_15  and  N_16
REMARK    8  A    between atoms: N_16  and  C_19
REMARK                            x       y       z     vdW  Elec       q    Type
REMARK                         _______ _______ _______ _____ _____    ______ ____
ROOT
ATOM      1  C   UNL     1      35.117 -18.146 -22.562  0.00  0.00    +0.112 C 
ENDROOT
BRANCH   1   2
ATOM      2  C   UNL     1      34.779 -19.203 -21.534  0.00  0.00    +0.002 C 
ATOM      3  C   UNL     1      35.806 -19.874 -20.891  0.00  0.00    -0.001 C 
ATOM      4  C   UNL     1      33.451 -19.478 -21.259  0.00  0.00    +0.001 C 
ATOM      5  C   UNL     1      35.493 -20.848 -19.943  0.00  0.00    +0.040 C 
ATOM      6  C   UNL     1      34.160 -21.138 -19.653  0.00  0.00    +0.132 C 
ATOM      7  C   UNL     1      33.138 -20.453 -20.311  0.00  0.00    +0.036 C 
BRANCH   6   8
ATOM      8  O   UNL     1      33.838 -22.088 -18.731  0.00  0.00    -0.506 OA
ATOM      9  H   UNL     1      33.429 -22.885 -19.002  0.00  0.00    +0.292 HD
ENDBRANCH   6   8
BRANCH   5  10
ATOM     10  C   UNL     1      36.599 -21.572 -19.248  0.00  0.00    +0.167 C 
BRANCH  10  11
ATOM     11  O   UNL     1      36.647 -21.085 -17.913  0.00  0.00    -0.377 OA
ATOM     12  H   UNL     1      37.536 -20.746 -17.723  0.00  0.00    +0.211 HD
ENDBRANCH  10  11
ENDBRANCH   5  10
ENDBRANCH   1   2
BRANCH   1  13
ATOM     13  O   UNL     1      36.443 -18.389 -23.032  0.00  0.00    -0.382 OA
ATOM     14  H   UNL     1      37.055 -17.769 -22.604  0.00  0.00    +0.211 HD
ENDBRANCH   1  13
BRANCH   1  15
ATOM     15  C   UNL     1      35.012 -16.735 -21.972  0.00  0.00    -0.047 C 
BRANCH  15  16
ATOM     16  N   UNL     1      33.854 -16.037 -22.506  0.00  0.00    +0.388 N 
ATOM     17  H   UNL     1      34.142 -15.474 -23.306  0.00  0.00    -0.084 HD
ATOM     18  H   UNL     1      33.158 -16.725 -22.790  0.00  0.00    -0.084 HD
BRANCH  16  19
ATOM     19  C   UNL     1      33.265 -15.160 -21.487  0.00  0.00    -0.046 C 
ATOM     20  C   UNL     1      32.221 -15.959 -20.700  0.00  0.00    -0.022 C 
ATOM     21  C   UNL     1      34.380 -14.683 -20.550  0.00  0.00    -0.022 C 
ATOM     22  C   UNL     1      32.603 -13.959 -22.173  0.00  0.00    -0.022 C 
ENDBRANCH  16  19
ENDBRANCH  15  16
ENDBRANCH   1  15
TORSDOF 8
ENDMDL
MODEL 2
REMARK VINA RESULT:      -7.3      0.844      1.923
REMARK  Name = 2083
REMARK  8 active torsions:
REMARK  status: ('A' for Active; 'I' for Inactive)
REMARK    1  A    between atoms: C_1  and  C_2
REMARK    2  A    between atoms: C_1  and  O_13
REMARK    3  A    between atoms: C_1  and  C_15
REMARK    4  A    between atoms: C_5  and  C_10
REMARK    5  A    between atoms: C_6  and  O_8
REMARK    6  A    between atoms: C_10  and  O_11
REMARK    7  A    between atoms: C_15  and  N_16
REMARK    8  A    between atoms: N_16  and  C_19
REMARK                            x       y       z     vdW  Elec       q    Type
REMARK                         _______ _______ _______ _____ _____    ______ ____
ROOT
ATOM      1  C   UNL     1      34.599 -18.461 -22.361  0.00  0.00    +0.112 C 
ENDROOT
BRANCH   1   2
ATOM      2  C   UNL     1      35.036 -19.438 -21.292  0.00  0.00    +0.002 C 
ATOM      3  C   UNL     1      34.096 -20.276 -20.716  0.00  0.00    -0.001 C 
ATOM      4  C   UNL     1      36.366 -19.472 -20.910  0.00  0.00    +0.001 C 
ATOM      5  C   UNL     1      34.499 -21.176 -19.730  0.00  0.00    +0.040 C 
ATOM      6  C   UNL     1      35.836 -21.224 -19.334  0.00  0.00    +0.132 C 
ATOM      7  C   UNL     1      36.769 -20.372 -19.924  0.00  0.00    +0.036 C 
BRANCH   6   8
ATOM      8  O   UNL     1      36.245 -22.097 -18.372  0.00  0.00    -0.506 OA
ATOM      9  H   UNL     1      36.558 -22.946 -18.611  0.00  0.00    +0.292 HD
ENDBRANCH   6   8
BRANCH   5  10
ATOM     10  C   UNL     1      33.487 -22.080 -19.109  0.00  0.00    +0.167 C 
BRANCH  10  11
ATOM     11  O   UNL     1      33.891 -23.416 -19.384  0.00  0.00    -0.377 OA
ATOM     12  H   UNL     1      34.647 -23.648 -18.823  0.00  0.00    +0.211 HD
ENDBRANCH  10  11
ENDBRANCH   5  10
ENDBRANCH   1   2
BRANCH   1  13
ATOM     13  O   UNL     1      35.263 -18.804 -23.576  0.00  0.00    -0.382 OA
ATOM     14  H   UNL     1      36.170 -18.461 -23.557  0.00  0.00    +0.211 HD
ENDBRANCH   1  13
BRANCH   1  15
ATOM     15  C   UNL     1      34.922 -17.015 -21.968  0.00  0.00    -0.047 C 
BRANCH  15  16
ATOM     16  N   UNL     1      33.950 -16.095 -22.533  0.00  0.00    +0.388 N 
ATOM     17  H   UNL     1      34.403 -15.526 -23.248  0.00  0.00    -0.084 HD
ATOM     18  H   UNL     1      33.187 -16.634 -22.943  0.00  0.00    -0.084 HD
BRANCH  16  19
ATOM     19  C   UNL     1      33.403 -15.218 -21.493  0.00  0.00    -0.046 C 
ATOM     20  C   UNL     1      32.297 -15.973 -20.748  0.00  0.00    -0.022 C 
ATOM     21  C   UNL     1      34.531 -14.847 -20.524  0.00  0.00    -0.022 C 
ATOM     22  C   UNL     1      32.831 -13.953 -22.144  0.00  0.00    -0.022 C 
ENDBRANCH  16  19
ENDBRANCH  15  16
ENDBRANCH   1  15
TORSDOF 8
ENDMDL
MODEL 3
REMARK VINA RESULT:      -7.2      3.303      7.112
REMARK  Name = 2083
REMARK  8 active torsions:
REMARK  status: ('A' for Active; 'I' for Inactive)
REMARK    1  A    between atoms: C_1  and  C_2
REMARK    2  A    between atoms: C_1  and  O_13
REMARK    3  A    between atoms: C_1  and  C_15
REMARK    4  A    between atoms: C_5  and  C_10
REMARK    5  A    between atoms: C_6  and  O_8
REMARK    6  A    between atoms: C_10  and  O_11
REMARK    7  A    between atoms: C_15  and  N_16
REMARK    8  A    between atoms: N_16  and  C_19
REMARK                            x       y       z     vdW  Elec       q    Type
REMARK                         _______ _______ _______ _____ _____    ______ ____
ROOT
ATOM      1  C   UNL     1      34.361 -15.938 -21.513  0.00  0.00    +0.112 C 
ENDROOT
BRANCH   1   2
ATOM      2  C   UNL     1      34.062 -15.192 -22.794  0.00  0.00    +0.002 C 
ATOM      3  C   UNL     1      33.975 -13.811 -22.768  0.00  0.00    -0.001 C 
ATOM      4  C   UNL     1      33.882 -15.906 -23.966  0.00  0.00    +0.001 C 
ATOM      5  C   UNL     1      33.699 -13.123 -23.950  0.00  0.00    +0.040 C 
ATOM      6  C   UNL     1      33.516 -13.827 -25.140  0.00  0.00    +0.132 C 
ATOM      7  C   UNL     1      33.607 -15.219 -25.148  0.00  0.00    +0.036 C 
BRANCH   6   8
ATOM      8  O   UNL     1      33.245 -13.170 -26.302  0.00  0.00    -0.506 OA
ATOM      9  H   UNL     1      33.654 -12.347 -26.482  0.00  0.00    +0.292 HD
ENDBRANCH   6   8
BRANCH   5  10
ATOM     10  C   UNL     1      33.605 -11.634 -23.922  0.00  0.00    +0.167 C 
BRANCH  10  11
ATOM     11  O   UNL     1      34.711 -11.128 -24.661  0.00  0.00    -0.377 OA
ATOM     12  H   UNL     1      34.394 -10.513 -25.340  0.00  0.00    +0.211 HD
ENDBRANCH  10  11
ENDBRANCH   5  10
ENDBRANCH   1   2
BRANCH   1  13
ATOM     13  O   UNL     1      34.956 -15.025 -20.593  0.00  0.00    -0.382 OA
ATOM     14  H   UNL     1      35.073 -14.163 -21.023  0.00  0.00    +0.211 HD
ENDBRANCH   1  13
BRANCH   1  15
ATOM     15  C   UNL     1      35.295 -17.129 -21.760  0.00  0.00    -0.047 C 
BRANCH  15  16
ATOM     16  N   UNL     1      35.193 -18.099 -20.683  0.00  0.00    +0.388 N 
ATOM     17  H   UNL     1      36.107 -18.210 -20.245  0.00  0.00    -0.084 HD
ATOM     18  H   UNL     1      34.513 -17.763 -20.002  0.00  0.00    -0.084 HD
BRANCH  16  19
ATOM     19  C   UNL     1      34.744 -19.397 -21.198  0.00  0.00    -0.046 C 
ATOM     20  C   UNL     1      34.879 -19.391 -22.725  0.00  0.00    -0.022 C 
ATOM     21  C   UNL     1      35.628 -20.494 -20.595  0.00  0.00    -0.022 C 
ATOM     22  C   UNL     1      33.281 -19.622 -20.800  0.00  0.00    -0.022 C 
ENDBRANCH  16  19
ENDBRANCH  15  16
ENDBRANCH   1  15
TORSDOF 8
ENDMDL
MODEL 4
REMARK VINA RESULT:      -7.1      5.209      8.861
REMARK  Name = 2083
REMARK  8 active torsions:
REMARK  status: ('A' for Active; 'I' for Inactive)
REMARK    1  A    between atoms: C_1  and  C_2
REMARK    2  A    between atoms: C_1  and  O_13
REMARK    3  A    between atoms: C_1  and  C_15
REMARK    4  A    between atoms: C_5  and  C_10
REMARK    5  A    between atoms: C_6  and  O_8
REMARK    6  A    between atoms: C_10  and  O_11
REMARK    7  A    between atoms: C_15  and  N_16
REMARK    8  A    between atoms: N_16  and  C_19
REMARK                            x       y       z     vdW  Elec       q    Type
REMARK                         _______ _______ _______ _____ _____    ______ ____
ROOT
ATOM      1  C   UNL     1      36.948 -22.660 -15.592  0.00  0.00    +0.112 C 
ENDROOT
BRANCH   1   2
ATOM      2  C   UNL     1      35.941 -22.541 -16.713  0.00  0.00    +0.002 C 
ATOM      3  C   UNL     1      36.303 -21.893 -17.882  0.00  0.00    -0.001 C 
ATOM      4  C   UNL     1      34.678 -23.083 -16.548  0.00  0.00    +0.001 C 
ATOM      5  C   UNL     1      35.374 -21.784 -18.916  0.00  0.00    +0.040 C 
ATOM      6  C   UNL     1      34.097 -22.324 -18.766  0.00  0.00    +0.132 C 
ATOM      7  C   UNL     1      33.748 -22.973 -17.582  0.00  0.00    +0.036 C 
BRANCH   6   8
ATOM      8  O   UNL     1      33.177 -22.224 -19.767  0.00  0.00    -0.506 OA
ATOM      9  H   UNL     1      32.284 -22.029 -19.565  0.00  0.00    +0.292 HD
ENDBRANCH   6   8
BRANCH   5  10
ATOM     10  C   UNL     1      35.763 -21.085 -20.177  0.00  0.00    +0.167 C 
BRANCH  10  11
ATOM     11  O   UNL     1      34.963 -19.913 -20.273  0.00  0.00    -0.377 OA
ATOM     12  H   UNL     1      34.727 -19.757 -21.200  0.00  0.00    +0.211 HD
ENDBRANCH  10  11
ENDBRANCH   5  10
ENDBRANCH   1   2
BRANCH   1  13
ATOM     13  O   UNL     1      38.221 -22.959 -16.164  0.00  0.00    -0.382 OA
ATOM     14  H   UNL     1      38.872 -22.307 -15.862  0.00  0.00    +0.211 HD
ENDBRANCH   1  13
BRANCH   1  15
ATOM     15  C   UNL     1      36.547 -23.748 -14.588  0.00  0.00    -0.047 C 
BRANCH  15  16
ATOM     16  N   UNL     1      37.651 -24.063 -13.697  0.00  0.00    +0.388 N 
ATOM     17  H   UNL     1      38.477 -23.542 -13.991  0.00  0.00    -0.084 HD
ATOM     18  H   UNL     1      37.390 -23.803 -12.746  0.00  0.00    -0.084 HD
BRANCH  16  19
ATOM     19  C   UNL     1      37.948 -25.499 -13.731  0.00  0.00    -0.046 C 
ATOM     20  C   UNL     1      39.462 -25.681 -13.883  0.00  0.00    -0.022 C 
ATOM     21  C   UNL     1      37.471 -26.127 -12.416  0.00  0.00    -0.022 C 
ATOM     22  C   UNL     1      37.218 -26.141 -14.916  0.00  0.00    -0.022 C 
ENDBRANCH  16  19
ENDBRANCH  15  16
ENDBRANCH   1  15
TORSDOF 8
ENDMDL
MODEL 5
REMARK VINA RESULT:      -7.1      3.203      7.072
REMARK  Name = 2083
REMARK  8 active torsions:
REMARK  status: ('A' for Active; 'I' for Inactive)
REMARK    1  A    between atoms: C_1  and  C_2
REMARK    2  A    between atoms: C_1  and  O_13
REMARK    3  A    between atoms: C_1  and  C_15
REMARK    4  A    between atoms: C_5  and  C_10
REMARK    5  A    between atoms: C_6  and  O_8
REMARK    6  A    between atoms: C_10  and  O_11
REMARK    7  A    between atoms: C_15  and  N_16
REMARK    8  A    between atoms: N_16  and  C_19
REMARK                            x       y       z     vdW  Elec       q    Type
REMARK                         _______ _______ _______ _____ _____    ______ ____
ROOT
ATOM      1  C   UNL     1      34.980 -16.022 -21.949  0.00  0.00    +0.112 C 
ENDROOT
BRANCH   1   2
ATOM      2  C   UNL     1      34.097 -14.807 -22.125  0.00  0.00    +0.002 C 
ATOM      3  C   UNL     1      34.309 -13.968 -23.206  0.00  0.00    -0.001 C 
ATOM      4  C   UNL     1      33.096 -14.559 -21.202  0.00  0.00    +0.001 C 
ATOM      5  C   UNL     1      33.495 -12.848 -23.368  0.00  0.00    +0.040 C 
ATOM      6  C   UNL     1      32.481 -12.583 -22.447  0.00  0.00    +0.132 C 
ATOM      7  C   UNL     1      32.281 -13.438 -21.364  0.00  0.00    +0.036 C 
BRANCH   6   8
ATOM      8  O   UNL     1      31.678 -11.492 -22.591  0.00  0.00    -0.506 OA
ATOM      9  H   UNL     1      31.367 -11.247 -23.440  0.00  0.00    +0.292 HD
ENDBRANCH   6   8
BRANCH   5  10
ATOM     10  C   UNL     1      33.722 -11.942 -24.533  0.00  0.00    +0.167 C 
BRANCH  10  11
ATOM     11  O   UNL     1      34.447 -10.815 -24.055  0.00  0.00    -0.377 OA
ATOM     12  H   UNL     1      34.111 -10.010 -24.479  0.00  0.00    +0.211 HD
ENDBRANCH  10  11
ENDBRANCH   5  10
ENDBRANCH   1   2
BRANCH   1  13
ATOM     13  O   UNL     1      35.596 -16.312 -23.203  0.00  0.00    -0.382 OA
ATOM     14  H   UNL     1      36.380 -16.865 -23.057  0.00  0.00    +0.211 HD
ENDBRANCH   1  13
BRANCH   1  15
ATOM     15  C   UNL     1      34.178 -17.233 -21.457  0.00  0.00    -0.047 C 
BRANCH  15  16
ATOM     16  N   UNL     1      35.034 -18.164 -20.741  0.00  0.00    +0.388 N 
ATOM     17  H   UNL     1      36.009 -17.951 -20.950  0.00  0.00    -0.084 HD
ATOM     18  H   UNL     1      34.858 -18.070 -19.741  0.00  0.00    -0.084 HD
BRANCH  16  19
ATOM     19  C   UNL     1      34.746 -19.545 -21.145  0.00  0.00    -0.046 C 
ATOM     20  C   UNL     1      34.835 -19.637 -22.671  0.00  0.00    -0.022 C 
ATOM     21  C   UNL     1      35.784 -20.469 -20.499  0.00  0.00    -0.022 C 
ATOM     22  C   UNL     1      33.337 -19.927 -20.675  0.00  0.00    -0.022 C 
ENDBRANCH  16  19
ENDBRANCH  15  16
ENDBRANCH   1  15
TORSDOF 8
ENDMDL
MODEL 6
REMARK VINA RESULT:      -7.0      3.211      6.935
REMARK  Name = 2083
REMARK  8 active torsions:
REMARK  status: ('A' for Active; 'I' for Inactive)
REMARK    1  A    between atoms: C_1  and  C_2
REMARK    2  A    between atoms: C_1  and  O_13
REMARK    3  A    between atoms: C_1  and  C_15
REMARK    4  A    between atoms: C_5  and  C_10
REMARK    5  A    between atoms: C_6  and  O_8
REMARK    6  A    between atoms: C_10  and  O_11
REMARK    7  A    between atoms: C_15  and  N_16
REMARK    8  A    between atoms: N_16  and  C_19
REMARK                            x       y       z     vdW  Elec       q    Type
REMARK                         _______ _______ _______ _____ _____    ______ ____
ROOT
ATOM      1  C   UNL     1      34.314 -16.016 -21.278  0.00  0.00    +0.112 C 
ENDROOT
BRANCH   1   2
ATOM      2  C   UNL     1      34.044 -15.109 -22.457  0.00  0.00    +0.002 C 
ATOM      3  C   UNL     1      33.839 -15.667 -23.707  0.00  0.00    -0.001 C 
ATOM      4  C   UNL     1      34.009 -13.739 -22.262  0.00  0.00    +0.001 C 
ATOM      5  C   UNL     1      33.590 -14.830 -24.795  0.00  0.00    +0.040 C 
ATOM      6  C   UNL     1      33.551 -13.447 -24.615  0.00  0.00    +0.132 C 
ATOM      7  C   UNL     1      33.761 -12.901 -23.349  0.00  0.00    +0.036 C 
BRANCH   6   8
ATOM      8  O   UNL     1      33.311 -12.615 -25.668  0.00  0.00    -0.506 OA
ATOM      9  H   UNL     1      32.701 -12.865 -26.333  0.00  0.00    +0.292 HD
ENDBRANCH   6   8
BRANCH   5  10
ATOM     10  C   UNL     1      33.368 -15.430 -26.143  0.00  0.00    +0.167 C 
BRANCH  10  11
ATOM     11  O   UNL     1      32.130 -14.927 -26.629  0.00  0.00    -0.377 OA
ATOM     12  H   UNL     1      32.235 -13.998 -26.886  0.00  0.00    +0.211 HD
ENDBRANCH  10  11
ENDBRANCH   5  10
ENDBRANCH   1   2
BRANCH   1  13
ATOM     13  O   UNL     1      34.916 -15.238 -20.244  0.00  0.00    -0.382 OA
ATOM     14  H   UNL     1      35.054 -14.332 -20.561  0.00  0.00    +0.211 HD
ENDBRANCH   1  13
BRANCH   1  15
ATOM     15  C   UNL     1      35.229 -17.185 -21.665  0.00  0.00    -0.047 C 
BRANCH  15  16
ATOM     16  N   UNL     1      35.223 -18.209 -20.635  0.00  0.00    +0.388 N 
ATOM     17  H   UNL     1      36.171 -18.331 -20.279  0.00  0.00    -0.084 HD
ATOM     18  H   UNL     1      34.599 -17.916 -19.883  0.00  0.00    -0.084 HD
BRANCH  16  19
ATOM     19  C   UNL     1      34.744 -19.485 -21.177  0.00  0.00    -0.046 C 
ATOM     20  C   UNL     1      34.840 -19.433 -22.706  0.00  0.00    -0.022 C 
ATOM     21  C   UNL     1      35.630 -20.611 -20.632  0.00  0.00    -0.022 C 
ATOM     22  C   UNL     1      33.289 -19.705 -20.747  0.00  0.00    -0.022 C 
ENDBRANCH  16  19
ENDBRANCH  15  16
ENDBRANCH   1  15
TORSDOF 8
ENDMDL
MODEL 7
REMARK VINA RESULT:      -7.0      3.403      6.927
REMARK  Name = 2083
REMARK  8 active torsions:
REMARK  status: ('A' for Active; 'I' for Inactive)
REMARK    1  A    between atoms: C_1  and  C_2
REMARK    2  A    between atoms: C_1  and  O_13
REMARK    3  A    between atoms: C_1  and  C_15
REMARK    4  A    between atoms: C_5  and  C_10
REMARK    5  A    between atoms: C_6  and  O_8
REMARK    6  A    between atoms: C_10  and  O_11
REMARK    7  A    between atoms: C_15  and  N_16
REMARK    8  A    between atoms: N_16  and  C_19
REMARK                            x       y       z     vdW  Elec       q    Type
REMARK                         _______ _______ _______ _____ _____    ______ ____
ROOT
ATOM      1  C   UNL     1      34.913 -17.890 -24.643  0.00  0.00    +0.112 C 
ENDROOT
BRANCH   1   2
ATOM      2  C   UNL     1      34.451 -16.454 -24.536  0.00  0.00    +0.002 C 
ATOM      3  C   UNL     1      33.837 -15.858 -25.625  0.00  0.00    -0.001 C 
ATOM      4  C   UNL     1      34.652 -15.766 -23.352  0.00  0.00    +0.001 C 
ATOM      5  C   UNL     1      33.411 -14.534 -25.526  0.00  0.00    +0.040 C 
ATOM      6  C   UNL     1      33.606 -13.825 -24.340  0.00  0.00    +0.132 C 
ATOM      7  C   UNL     1      34.227 -14.441 -23.253  0.00  0.00    +0.036 C 
BRANCH   6   8
ATOM      8  O   UNL     1      33.197 -12.531 -24.228  0.00  0.00    -0.506 OA
ATOM      9  H   UNL     1      33.827 -11.839 -24.220  0.00  0.00    +0.292 HD
ENDBRANCH   6   8
BRANCH   5  10
ATOM     10  C   UNL     1      32.749 -13.890 -26.698  0.00  0.00    +0.167 C 
BRANCH  10  11
ATOM     11  O   UNL     1      33.741 -13.729 -27.705  0.00  0.00    -0.377 OA
ATOM     12  H   UNL     1      33.596 -14.379 -28.411  0.00  0.00    +0.211 HD
ENDBRANCH  10  11
ENDBRANCH   5  10
ENDBRANCH   1   2
BRANCH   1  13
ATOM     13  O   UNL     1      33.787 -18.697 -24.987  0.00  0.00    -0.382 OA
ATOM     14  H   UNL     1      33.892 -19.580 -24.600  0.00  0.00    +0.211 HD
ENDBRANCH   1  13
BRANCH   1  15
ATOM     15  C   UNL     1      35.536 -18.380 -23.330  0.00  0.00    -0.047 C 
BRANCH  15  16
ATOM     16  N   UNL     1      34.771 -19.484 -22.775  0.00  0.00    +0.388 N 
ATOM     17  H   UNL     1      33.827 -19.464 -23.160  0.00  0.00    -0.084 HD
ATOM     18  H   UNL     1      35.234 -20.359 -23.019  0.00  0.00    -0.084 HD
BRANCH  16  19
ATOM     19  C   UNL     1      34.699 -19.378 -21.313  0.00  0.00    -0.046 C 
ATOM     20  C   UNL     1      35.621 -20.438 -20.701  0.00  0.00    -0.022 C 
ATOM     21  C   UNL     1      35.162 -17.976 -20.902  0.00  0.00    -0.022 C 
ATOM     22  C   UNL     1      33.254 -19.610 -20.859  0.00  0.00    -0.022 C 
ENDBRANCH  16  19
ENDBRANCH  15  16
ENDBRANCH   1  15
TORSDOF 8
ENDMDL
MODEL 8
REMARK VINA RESULT:      -6.9      3.069      5.155
REMARK  Name = 2083
REMARK  8 active torsions:
REMARK  status: ('A' for Active; 'I' for Inactive)
REMARK    1  A    between atoms: C_1  and  C_2
REMARK    2  A    between atoms: C_1  and  O_13
REMARK    3  A    between atoms: C_1  and  C_15
REMARK    4  A    between atoms: C_5  and  C_10
REMARK    5  A    between atoms: C_6  and  O_8
REMARK    6  A    between atoms: C_10  and  O_11
REMARK    7  A    between atoms: C_15  and  N_16
REMARK    8  A    between atoms: N_16  and  C_19
REMARK                            x       y       z     vdW  Elec       q    Type
REMARK                         _______ _______ _______ _____ _____    ______ ____
ROOT
ATOM      1  C   UNL     1      34.399 -22.014 -19.049  0.00  0.00    +0.112 C 
ENDROOT
BRANCH   1   2
ATOM      2  C   UNL     1      35.260 -22.261 -17.831  0.00  0.00    +0.002 C 
ATOM      3  C   UNL     1      34.747 -23.001 -16.779  0.00  0.00    -0.001 C 
ATOM      4  C   UNL     1      36.543 -21.742 -17.793  0.00  0.00    +0.001 C 
ATOM      5  C   UNL     1      35.542 -23.228 -15.656  0.00  0.00    +0.040 C 
ATOM      6  C   UNL     1      36.837 -22.713 -15.601  0.00  0.00    +0.132 C 
ATOM      7  C   UNL     1      37.337 -21.969 -16.670  0.00  0.00    +0.036 C 
BRANCH   6   8
ATOM      8  O   UNL     1      37.625 -22.925 -14.510  0.00  0.00    -0.506 OA
ATOM      9  H   UNL     1      38.557 -22.894 -14.592  0.00  0.00    +0.292 HD
ENDBRANCH   6   8
BRANCH   5  10
ATOM     10  C   UNL     1      34.990 -24.026 -14.521  0.00  0.00    +0.167 C 
BRANCH  10  11
ATOM     11  O   UNL     1      35.112 -23.230 -13.349  0.00  0.00    -0.377 OA
ATOM     12  H   UNL     1      34.230 -23.039 -12.993  0.00  0.00    +0.211 HD
ENDBRANCH  10  11
ENDBRANCH   5  10
ENDBRANCH   1   2
BRANCH   1  13
ATOM     13  O   UNL     1      34.067 -23.277 -19.625  0.00  0.00    -0.382 OA
ATOM     14  H   UNL     1      34.846 -23.855 -19.607  0.00  0.00    +0.211 HD
ENDBRANCH   1  13
BRANCH   1  15
ATOM     15  C   UNL     1      35.120 -21.134 -20.078  0.00  0.00    -0.047 C 
BRANCH  15  16
ATOM     16  N   UNL     1      34.266 -20.040 -20.511  0.00  0.00    +0.388 N 
ATOM     17  H   UNL     1      33.498 -20.415 -21.067  0.00  0.00    -0.084 HD
ATOM     18  H   UNL     1      33.904 -19.560 -19.688  0.00  0.00    -0.084 HD
BRANCH  16  19
ATOM     19  C   UNL     1      35.026 -19.082 -21.321  0.00  0.00    -0.046 C 
ATOM     20  C   UNL     1      34.489 -17.674 -21.045  0.00  0.00    -0.022 C 
ATOM     21  C   UNL     1      36.503 -19.169 -20.923  0.00  0.00    -0.022 C 
ATOM     22  C   UNL     1      34.860 -19.428 -22.805  0.00  0.00    -0.022 C 
ENDBRANCH  16  19
ENDBRANCH  15  16
ENDBRANCH   1  15
TORSDOF 8
ENDMDL
MODEL 9
REMARK VINA RESULT:      -6.9      7.808      9.599
REMARK  Name = 2083
REMARK  8 active torsions:
REMARK  status: ('A' for Active; 'I' for Inactive)
REMARK    1  A    between atoms: C_1  and  C_2
REMARK    2  A    between atoms: C_1  and  O_13
REMARK    3  A    between atoms: C_1  and  C_15
REMARK    4  A    between atoms: C_5  and  C_10
REMARK    5  A    between atoms: C_6  and  O_8
REMARK    6  A    between atoms: C_10  and  O_11
REMARK    7  A    between atoms: C_15  and  N_16
REMARK    8  A    between atoms: N_16  and  C_19
REMARK                            x       y       z     vdW  Elec       q    Type
REMARK                         _______ _______ _______ _____ _____    ______ ____
ROOT
ATOM      1  C   UNL     1      34.364 -24.019 -15.850  0.00  0.00    +0.112 C 
ENDROOT
BRANCH   1   2
ATOM      2  C   UNL     1      35.252 -24.581 -14.762  0.00  0.00    +0.002 C 
ATOM      3  C   UNL     1      35.126 -24.098 -13.471  0.00  0.00    -0.001 C 
ATOM      4  C   UNL     1      36.171 -25.565 -15.081  0.00  0.00    +0.001 C 
ATOM      5  C   UNL     1      35.944 -24.617 -12.467  0.00  0.00    +0.040 C 
ATOM      6  C   UNL     1      36.877 -25.609 -12.771  0.00  0.00    +0.132 C 
ATOM      7  C   UNL     1      36.990 -26.084 -14.077  0.00  0.00    +0.036 C 
BRANCH   6   8
ATOM      8  O   UNL     1      37.684 -26.125 -11.802  0.00  0.00    -0.506 OA
ATOM      9  H   UNL     1      38.608 -25.976 -11.834  0.00  0.00    +0.292 HD
ENDBRANCH   6   8
BRANCH   5  10
ATOM     10  C   UNL     1      35.810 -24.098 -11.074  0.00  0.00    +0.167 C 
BRANCH  10  11
ATOM     11  O   UNL     1      35.272 -25.150 -10.283  0.00  0.00    -0.377 OA
ATOM     12  H   UNL     1      34.501 -25.531 -10.731  0.00  0.00    +0.211 HD
ENDBRANCH  10  11
ENDBRANCH   5  10
ENDBRANCH   1   2
BRANCH   1  13
ATOM     13  O   UNL     1      35.161 -23.186 -16.691  0.00  0.00    -0.382 OA
ATOM     14  H   UNL     1      34.743 -22.314 -16.771  0.00  0.00    +0.211 HD
ENDBRANCH   1  13
BRANCH   1  15
ATOM     15  C   UNL     1      33.194 -23.220 -15.265  0.00  0.00    -0.047 C 
BRANCH  15  16
ATOM     16  N   UNL     1      31.933 -23.645 -15.851  0.00  0.00    +0.388 N 
ATOM     17  H   UNL     1      31.642 -22.962 -16.550  0.00  0.00    -0.084 HD
ATOM     18  H   UNL     1      32.063 -24.559 -16.283  0.00  0.00    -0.084 HD
BRANCH  16  19
ATOM     19  C   UNL     1      30.895 -23.753 -14.820  0.00  0.00    -0.046 C 
ATOM     20  C   UNL     1      31.477 -23.268 -13.488  0.00  0.00    -0.022 C 
ATOM     21  C   UNL     1      29.708 -22.873 -15.228  0.00  0.00    -0.022 C 
ATOM     22  C   UNL     1      30.450 -25.215 -14.700  0.00  0.00    -0.022 C 
ENDBRANCH  16  19
ENDBRANCH  15  16
ENDBRANCH   1  15
TORSDOF 8
ENDMDL
