MODEL 1
REMARK VINA RESULT:      -8.8      0.000      0.000
REMARK  Name = 9900246
REMARK  2 active torsions:
REMARK  status: ('A' for Active; 'I' for Inactive)
REMARK    1  A    between atoms: C_6  and  O_19
REMARK    2  A    between atoms: C_18  and  O_21
REMARK                            x       y       z     vdW  Elec       q    Type
REMARK                         _______ _______ _______ _____ _____    ______ ____
ROOT
ATOM      1  C   UNL     1      36.871 -23.471 -14.393  0.00  0.00    +0.003 C 
ATOM      2  C   UNL     1      36.170 -24.787 -14.002  0.00  0.00    +0.025 C 
ATOM      3  C   UNL     1      36.685 -23.122 -15.870  0.00  0.00    +0.005 C 
ATOM      4  C   UNL     1      35.169 -22.985 -16.175  0.00  0.00    +0.004 C 
ATOM      5  C   UNL     1      34.663 -24.603 -14.221  0.00  0.00    +0.002 C 
ATOM      6  C   UNL     1      36.605 -24.870 -12.526  0.00  0.00    +0.110 C 
ATOM      7  C   UNL     1      34.346 -24.197 -15.671  0.00  0.00    +0.000 C 
ATOM      8  C   UNL     1      38.285 -23.640 -13.845  0.00  0.00    +0.003 C 
ATOM      9  C   UNL     1      34.944 -22.719 -17.694  0.00  0.00    +0.018 C 
ATOM     10  C   UNL     1      38.085 -24.443 -12.546  0.00  0.00    +0.029 C 
ATOM     11  C   UNL     1      37.410 -21.820 -16.242  0.00  0.00    +0.025 C 
ATOM     12  C   UNL     1      36.658 -26.036 -14.778  0.00  0.00    +0.002 C 
ATOM     13  C   UNL     1      35.961 -21.756 -18.287  0.00  0.00    -0.046 C 
ATOM     14  C   UNL     1      33.508 -22.207 -17.946  0.00  0.00    +0.007 C 
ATOM     15  C   UNL     1      37.044 -21.336 -17.610  0.00  0.00    -0.035 C 
ATOM     16  C   UNL     1      35.706 -21.309 -19.703  0.00  0.00    +0.051 C 
ATOM     17  C   UNL     1      33.263 -21.821 -19.402  0.00  0.00    +0.030 C 
ATOM     18  C   UNL     1      34.281 -20.792 -19.882  0.00  0.00    +0.115 C 
ENDROOT
BRANCH   6  19
ATOM     19  O   UNL     1      36.460 -26.158 -11.959  0.00  0.00    -0.384 OA
ATOM     20  H   UNL     1      36.592 -26.106 -11.000  0.00  0.00    +0.210 HD
ENDBRANCH   6  19
BRANCH  18  21
ATOM     21  O   UNL     1      34.039 -20.528 -21.261  0.00  0.00    -0.384 OA
ATOM     22  H   UNL     1      33.535 -21.262 -21.646  0.00  0.00    +0.210 HD
ENDBRANCH  18  21
TORSDOF 2
ENDMDL
MODEL 2
REMARK VINA RESULT:      -8.3      3.290      6.159
REMARK  Name = 9900246
REMARK  2 active torsions:
REMARK  status: ('A' for Active; 'I' for Inactive)
REMARK    1  A    between atoms: C_6  and  O_19
REMARK    2  A    between atoms: C_18  and  O_21
REMARK                            x       y       z     vdW  Elec       q    Type
REMARK                         _______ _______ _______ _____ _____    ______ ____
ROOT
ATOM      1  C   UNL     1      31.649 -23.631 -16.090  0.00  0.00    +0.003 C 
ATOM      2  C   UNL     1      30.758 -23.887 -14.859  0.00  0.00    +0.025 C 
ATOM      3  C   UNL     1      33.100 -23.332 -15.714  0.00  0.00    +0.005 C 
ATOM      4  C   UNL     1      33.681 -24.536 -14.924  0.00  0.00    +0.004 C 
ATOM      5  C   UNL     1      31.289 -25.134 -14.142  0.00  0.00    +0.002 C 
ATOM      6  C   UNL     1      29.403 -24.075 -15.567  0.00  0.00    +0.110 C 
ATOM      7  C   UNL     1      32.770 -24.977 -13.752  0.00  0.00    +0.000 C 
ATOM      8  C   UNL     1      30.864 -22.597 -16.893  0.00  0.00    +0.003 C 
ATOM      9  C   UNL     1      35.132 -24.223 -14.449  0.00  0.00    +0.018 C 
ATOM     10  C   UNL     1      29.392 -22.981 -16.653  0.00  0.00    +0.029 C 
ATOM     11  C   UNL     1      33.963 -23.059 -16.955  0.00  0.00    +0.025 C 
ATOM     12  C   UNL     1      30.683 -22.706 -13.858  0.00  0.00    +0.002 C 
ATOM     13  C   UNL     1      35.957 -23.491 -15.498  0.00  0.00    -0.046 C 
ATOM     14  C   UNL     1      35.848 -25.520 -14.010  0.00  0.00    +0.007 C 
ATOM     15  C   UNL     1      35.424 -23.004 -16.632  0.00  0.00    -0.035 C 
ATOM     16  C   UNL     1      37.419 -23.311 -15.184  0.00  0.00    +0.051 C 
ATOM     17  C   UNL     1      37.311 -25.293 -13.641  0.00  0.00    +0.030 C 
ATOM     18  C   UNL     1      38.076 -24.629 -14.782  0.00  0.00    +0.115 C 
ENDROOT
BRANCH   6  19
ATOM     19  O   UNL     1      28.286 -23.942 -14.709  0.00  0.00    -0.384 OA
ATOM     20  H   UNL     1      28.592 -23.851 -13.793  0.00  0.00    +0.210 HD
ENDBRANCH   6  19
BRANCH  18  21
ATOM     21  O   UNL     1      39.410 -24.385 -14.348  0.00  0.00    -0.384 OA
ATOM     22  H   UNL     1      39.396 -24.019 -13.450  0.00  0.00    +0.210 HD
ENDBRANCH  18  21
TORSDOF 2
ENDMDL
MODEL 3
REMARK VINA RESULT:      -8.2      2.592      7.619
REMARK  Name = 9900246
REMARK  2 active torsions:
REMARK  status: ('A' for Active; 'I' for Inactive)
REMARK    1  A    between atoms: C_6  and  O_19
REMARK    2  A    between atoms: C_18  and  O_21
REMARK                            x       y       z     vdW  Elec       q    Type
REMARK                         _______ _______ _______ _____ _____    ______ ____
ROOT
ATOM      1  C   UNL     1      35.640 -19.773 -21.337  0.00  0.00    +0.003 C 
ATOM      2  C   UNL     1      34.404 -18.927 -21.700  0.00  0.00    +0.025 C 
ATOM      3  C   UNL     1      35.586 -20.309 -19.907  0.00  0.00    +0.005 C 
ATOM      4  C   UNL     1      34.318 -21.189 -19.739  0.00  0.00    +0.004 C 
ATOM      5  C   UNL     1      33.170 -19.835 -21.620  0.00  0.00    +0.002 C 
ATOM      6  C   UNL     1      34.804 -18.502 -23.126  0.00  0.00    +0.110 C 
ATOM      7  C   UNL     1      33.031 -20.482 -20.231  0.00  0.00    +0.000 C 
ATOM      8  C   UNL     1      36.814 -18.890 -21.753  0.00  0.00    +0.003 C 
ATOM      9  C   UNL     1      34.188 -21.677 -18.264  0.00  0.00    +0.018 C 
ATOM     10  C   UNL     1      36.303 -18.162 -23.009  0.00  0.00    +0.029 C 
ATOM     11  C   UNL     1      36.838 -21.130 -19.560  0.00  0.00    +0.025 C 
ATOM     12  C   UNL     1      34.188 -17.680 -20.806  0.00  0.00    +0.002 C 
ATOM     13  C   UNL     1      35.520 -22.083 -17.652  0.00  0.00    -0.046 C 
ATOM     14  C   UNL     1      33.175 -22.839 -18.168  0.00  0.00    +0.007 C 
ATOM     15  C   UNL     1      36.698 -21.861 -18.261  0.00  0.00    -0.035 C 
ATOM     16  C   UNL     1      35.456 -22.732 -16.295  0.00  0.00    +0.051 C 
ATOM     17  C   UNL     1      33.089 -23.435 -16.765  0.00  0.00    +0.030 C 
ATOM     18  C   UNL     1      34.458 -23.887 -16.269  0.00  0.00    +0.115 C 
ENDROOT
BRANCH   6  19
ATOM     19  O   UNL     1      34.073 -17.395 -23.618  0.00  0.00    -0.384 OA
ATOM     20  H   UNL     1      34.298 -16.604 -23.103  0.00  0.00    +0.210 HD
ENDBRANCH   6  19
BRANCH  18  21
ATOM     21  O   UNL     1      34.318 -24.368 -14.935  0.00  0.00    -0.384 OA
ATOM     22  H   UNL     1      33.563 -23.929 -14.512  0.00  0.00    +0.210 HD
ENDBRANCH  18  21
TORSDOF 2
ENDMDL
MODEL 4
REMARK VINA RESULT:      -8.2      2.606      4.013
REMARK  Name = 9900246
REMARK  2 active torsions:
REMARK  status: ('A' for Active; 'I' for Inactive)
REMARK    1  A    between atoms: C_6  and  O_19
REMARK    2  A    between atoms: C_18  and  O_21
REMARK                            x       y       z     vdW  Elec       q    Type
REMARK                         _______ _______ _______ _____ _____    ______ ____
ROOT
ATOM      1  C   UNL     1      36.034 -24.908 -13.466  0.00  0.00    +0.003 C 
ATOM      2  C   UNL     1      37.273 -24.128 -13.946  0.00  0.00    +0.025 C 
ATOM      3  C   UNL     1      34.727 -24.166 -13.745  0.00  0.00    +0.005 C 
ATOM      4  C   UNL     1      34.595 -23.919 -15.272  0.00  0.00    +0.004 C 
ATOM      5  C   UNL     1      37.174 -23.975 -15.469  0.00  0.00    +0.002 C 
ATOM      6  C   UNL     1      38.375 -25.091 -13.462  0.00  0.00    +0.110 C 
ATOM      7  C   UNL     1      35.866 -23.280 -15.886  0.00  0.00    +0.000 C 
ATOM      8  C   UNL     1      36.381 -25.282 -12.027  0.00  0.00    +0.003 C 
ATOM      9  C   UNL     1      33.316 -23.084 -15.578  0.00  0.00    +0.018 C 
ATOM     10  C   UNL     1      37.899 -25.534 -12.066  0.00  0.00    +0.029 C 
ATOM     11  C   UNL     1      33.508 -24.950 -13.237  0.00  0.00    +0.025 C 
ATOM     12  C   UNL     1      37.452 -22.733 -13.296  0.00  0.00    +0.002 C 
ATOM     13  C   UNL     1      32.118 -23.499 -14.736  0.00  0.00    -0.046 C 
ATOM     14  C   UNL     1      32.969 -23.159 -17.081  0.00  0.00    +0.007 C 
ATOM     15  C   UNL     1      32.215 -24.363 -13.711  0.00  0.00    -0.035 C 
ATOM     16  C   UNL     1      30.802 -22.863 -15.097  0.00  0.00    +0.051 C 
ATOM     17  C   UNL     1      31.660 -22.453 -17.424  0.00  0.00    +0.030 C 
ATOM     18  C   UNL     1      30.503 -22.991 -16.588  0.00  0.00    +0.115 C 
ENDROOT
BRANCH   6  19
ATOM     19  O   UNL     1      39.659 -24.500 -13.393  0.00  0.00    -0.384 OA
ATOM     20  H   UNL     1      40.174 -24.929 -12.692  0.00  0.00    +0.210 HD
ENDBRANCH   6  19
BRANCH  18  21
ATOM     21  O   UNL     1      29.332 -22.246 -16.907  0.00  0.00    -0.384 OA
ATOM     22  H   UNL     1      29.581 -21.449 -17.400  0.00  0.00    +0.210 HD
ENDBRANCH  18  21
TORSDOF 2
ENDMDL
MODEL 5
REMARK VINA RESULT:      -8.1      2.356      3.353
REMARK  Name = 9900246
REMARK  2 active torsions:
REMARK  status: ('A' for Active; 'I' for Inactive)
REMARK    1  A    between atoms: C_6  and  O_19
REMARK    2  A    between atoms: C_18  and  O_21
REMARK                            x       y       z     vdW  Elec       q    Type
REMARK                         _______ _______ _______ _____ _____    ______ ____
ROOT
ATOM      1  C   UNL     1      36.741 -23.996 -14.418  0.00  0.00    +0.003 C 
ATOM      2  C   UNL     1      36.749 -25.002 -13.251  0.00  0.00    +0.025 C 
ATOM      3  C   UNL     1      35.437 -24.029 -15.215  0.00  0.00    +0.005 C 
ATOM      4  C   UNL     1      34.251 -23.699 -14.268  0.00  0.00    +0.004 C 
ATOM      5  C   UNL     1      35.632 -24.606 -12.277  0.00  0.00    +0.002 C 
ATOM      6  C   UNL     1      38.179 -24.765 -12.728  0.00  0.00    +0.110 C 
ATOM      7  C   UNL     1      34.262 -24.554 -12.977  0.00  0.00    +0.000 C 
ATOM      8  C   UNL     1      38.057 -24.272 -15.140  0.00  0.00    +0.003 C 
ATOM      9  C   UNL     1      32.898 -23.815 -15.033  0.00  0.00    +0.018 C 
ATOM     10  C   UNL     1      39.030 -24.643 -14.006  0.00  0.00    +0.029 C 
ATOM     11  C   UNL     1      35.460 -23.035 -16.385  0.00  0.00    +0.025 C 
ATOM     12  C   UNL     1      36.568 -26.483 -13.672  0.00  0.00    +0.002 C 
ATOM     13  C   UNL     1      32.964 -23.254 -16.446  0.00  0.00    -0.046 C 
ATOM     14  C   UNL     1      31.767 -23.131 -14.235  0.00  0.00    +0.007 C 
ATOM     15  C   UNL     1      34.116 -22.878 -17.026  0.00  0.00    -0.035 C 
ATOM     16  C   UNL     1      31.655 -23.166 -17.186  0.00  0.00    +0.051 C 
ATOM     17  C   UNL     1      30.438 -23.112 -14.987  0.00  0.00    +0.030 C 
ATOM     18  C   UNL     1      30.585 -22.459 -16.357  0.00  0.00    +0.115 C 
ENDROOT
BRANCH   6  19
ATOM     19  O   UNL     1      38.663 -25.802 -11.897  0.00  0.00    -0.384 OA
ATOM     20  H   UNL     1      38.582 -26.651 -12.359  0.00  0.00    +0.210 HD
ENDBRANCH   6  19
BRANCH  18  21
ATOM     21  O   UNL     1      29.332 -22.536 -17.030  0.00  0.00    -0.384 OA
ATOM     22  H   UNL     1      29.247 -21.788 -17.641  0.00  0.00    +0.210 HD
ENDBRANCH  18  21
TORSDOF 2
ENDMDL
MODEL 6
REMARK VINA RESULT:      -8.1     10.300     13.954
REMARK  Name = 9900246
REMARK  2 active torsions:
REMARK  status: ('A' for Active; 'I' for Inactive)
REMARK    1  A    between atoms: C_6  and  O_19
REMARK    2  A    between atoms: C_18  and  O_21
REMARK                            x       y       z     vdW  Elec       q    Type
REMARK                         _______ _______ _______ _____ _____    ______ ____
ROOT
ATOM      1  C   UNL     1      32.244 -13.434 -21.279  0.00  0.00    +0.003 C 
ATOM      2  C   UNL     1      33.203 -13.998 -22.345  0.00  0.00    +0.025 C 
ATOM      3  C   UNL     1      32.452 -11.940 -21.033  0.00  0.00    +0.005 C 
ATOM      4  C   UNL     1      32.226 -11.167 -22.361  0.00  0.00    +0.004 C 
ATOM      5  C   UNL     1      32.903 -13.291 -23.673  0.00  0.00    +0.002 C 
ATOM      6  C   UNL     1      32.788 -15.481 -22.293  0.00  0.00    +0.110 C 
ATOM      7  C   UNL     1      33.030 -11.762 -23.543  0.00  0.00    +0.000 C 
ATOM      8  C   UNL     1      32.395 -14.404 -20.111  0.00  0.00    +0.003 C 
ATOM      9  C   UNL     1      32.519  -9.649 -22.161  0.00  0.00    +0.018 C 
ATOM     10  C   UNL     1      32.615 -15.769 -20.789  0.00  0.00    +0.029 C 
ATOM     11  C   UNL     1      31.501 -11.404 -19.952  0.00  0.00    +0.025 C 
ATOM     12  C   UNL     1      34.708 -13.847 -22.007  0.00  0.00    +0.002 C 
ATOM     13  C   UNL     1      32.002  -9.112 -20.834  0.00  0.00    -0.046 C 
ATOM     14  C   UNL     1      31.940  -8.829 -23.335  0.00  0.00    +0.007 C 
ATOM     15  C   UNL     1      31.518  -9.910 -19.867  0.00  0.00    -0.035 C 
ATOM     16  C   UNL     1      32.088  -7.621 -20.644  0.00  0.00    +0.051 C 
ATOM     17  C   UNL     1      32.097  -7.323 -23.140  0.00  0.00    +0.030 C 
ATOM     18  C   UNL     1      31.478  -6.866 -21.823  0.00  0.00    +0.115 C 
ENDROOT
BRANCH   6  19
ATOM     19  O   UNL     1      33.736 -16.360 -22.868  0.00  0.00    -0.384 OA
ATOM     20  H   UNL     1      34.273 -16.760 -22.167  0.00  0.00    +0.210 HD
ENDBRANCH   6  19
BRANCH  18  21
ATOM     21  O   UNL     1      31.719  -5.470 -21.672  0.00  0.00    -0.384 OA
ATOM     22  H   UNL     1      30.982  -4.972 -22.061  0.00  0.00    +0.210 HD
ENDBRANCH  18  21
TORSDOF 2
ENDMDL
MODEL 7
REMARK VINA RESULT:      -7.8      1.407      3.379
REMARK  Name = 9900246
REMARK  2 active torsions:
REMARK  status: ('A' for Active; 'I' for Inactive)
REMARK    1  A    between atoms: C_6  and  O_19
REMARK    2  A    between atoms: C_18  and  O_21
REMARK                            x       y       z     vdW  Elec       q    Type
REMARK                         _______ _______ _______ _____ _____    ______ ____
ROOT
ATOM      1  C   UNL     1      35.230 -23.641 -16.599  0.00  0.00    +0.003 C 
ATOM      2  C   UNL     1      36.327 -23.205 -15.608  0.00  0.00    +0.025 C 
ATOM      3  C   UNL     1      34.763 -22.499 -17.501  0.00  0.00    +0.005 C 
ATOM      4  C   UNL     1      35.974 -21.960 -18.310  0.00  0.00    +0.004 C 
ATOM      5  C   UNL     1      37.550 -22.764 -16.422  0.00  0.00    +0.002 C 
ATOM      6  C   UNL     1      36.505 -24.526 -14.837  0.00  0.00    +0.110 C 
ATOM      7  C   UNL     1      37.197 -21.641 -17.414  0.00  0.00    +0.000 C 
ATOM      8  C   UNL     1      34.208 -24.350 -15.714  0.00  0.00    +0.003 C 
ATOM      9  C   UNL     1      35.548 -20.734 -19.173  0.00  0.00    +0.018 C 
ATOM     10  C   UNL     1      35.066 -25.042 -14.638  0.00  0.00    +0.029 C 
ATOM     11  C   UNL     1      33.655 -22.951 -18.464  0.00  0.00    +0.025 C 
ATOM     12  C   UNL     1      35.910 -22.068 -14.642  0.00  0.00    +0.002 C 
ATOM     13  C   UNL     1      34.179 -20.906 -19.815  0.00  0.00    -0.046 C 
ATOM     14  C   UNL     1      36.614 -20.435 -20.250  0.00  0.00    +0.007 C 
ATOM     15  C   UNL     1      33.356 -21.925 -19.511  0.00  0.00    -0.035 C 
ATOM     16  C   UNL     1      33.774 -19.846 -20.805  0.00  0.00    +0.051 C 
ATOM     17  C   UNL     1      36.199 -19.314 -21.199  0.00  0.00    +0.030 C 
ATOM     18  C   UNL     1      34.855 -19.613 -21.857  0.00  0.00    +0.115 C 
ENDROOT
BRANCH   6  19
ATOM     19  O   UNL     1      37.162 -24.377 -13.593  0.00  0.00    -0.384 OA
ATOM     20  H   UNL     1      36.513 -24.443 -12.875  0.00  0.00    +0.210 HD
ENDBRANCH   6  19
BRANCH  18  21
ATOM     21  O   UNL     1      34.496 -18.502 -22.673  0.00  0.00    -0.384 OA
ATOM     22  H   UNL     1      34.972 -17.712 -22.371  0.00  0.00    +0.210 HD
ENDBRANCH  18  21
TORSDOF 2
ENDMDL
MODEL 8
REMARK VINA RESULT:      -7.8      2.883      6.524
REMARK  Name = 9900246
REMARK  2 active torsions:
REMARK  status: ('A' for Active; 'I' for Inactive)
REMARK    1  A    between atoms: C_6  and  O_19
REMARK    2  A    between atoms: C_18  and  O_21
REMARK                            x       y       z     vdW  Elec       q    Type
REMARK                         _______ _______ _______ _____ _____    ______ ____
ROOT
ATOM      1  C   UNL     1      31.787 -23.051 -14.693  0.00  0.00    +0.003 C 
ATOM      2  C   UNL     1      31.364 -23.274 -16.158  0.00  0.00    +0.025 C 
ATOM      3  C   UNL     1      33.019 -23.869 -14.306  0.00  0.00    +0.005 C 
ATOM      4  C   UNL     1      34.204 -23.477 -15.228  0.00  0.00    +0.004 C 
ATOM      5  C   UNL     1      32.509 -22.794 -17.059  0.00  0.00    +0.002 C 
ATOM      6  C   UNL     1      30.102 -22.391 -16.189  0.00  0.00    +0.110 C 
ATOM      7  C   UNL     1      33.829 -23.513 -16.731  0.00  0.00    +0.000 C 
ATOM      8  C   UNL     1      30.491 -23.247 -13.912  0.00  0.00    +0.003 C 
ATOM      9  C   UNL     1      35.450 -24.360 -14.916  0.00  0.00    +0.018 C 
ATOM     10  C   UNL     1      29.405 -22.685 -14.847  0.00  0.00    +0.029 C 
ATOM     11  C   UNL     1      33.408 -23.648 -12.836  0.00  0.00    +0.025 C 
ATOM     12  C   UNL     1      31.006 -24.739 -16.513  0.00  0.00    +0.002 C 
ATOM     13  C   UNL     1      35.651 -24.601 -13.427  0.00  0.00    -0.046 C 
ATOM     14  C   UNL     1      36.721 -23.740 -15.537  0.00  0.00    +0.007 C 
ATOM     15  C   UNL     1      34.740 -24.245 -12.504  0.00  0.00    -0.035 C 
ATOM     16  C   UNL     1      36.929 -25.293 -13.034  0.00  0.00    +0.051 C 
ATOM     17  C   UNL     1      37.992 -24.500 -15.170  0.00  0.00    +0.030 C 
ATOM     18  C   UNL     1      38.149 -24.621 -13.657  0.00  0.00    +0.115 C 
ENDROOT
BRANCH   6  19
ATOM     19  O   UNL     1      29.238 -22.666 -17.276  0.00  0.00    -0.384 OA
ATOM     20  H   UNL     1      28.436 -22.126 -17.196  0.00  0.00    +0.210 HD
ENDBRANCH   6  19
BRANCH  18  21
ATOM     21  O   UNL     1      39.313 -25.396 -13.385  0.00  0.00    -0.384 OA
ATOM     22  H   UNL     1      40.102 -24.841 -13.488  0.00  0.00    +0.210 HD
ENDBRANCH  18  21
TORSDOF 2
ENDMDL
MODEL 9
REMARK VINA RESULT:      -7.7      1.054      6.886
REMARK  Name = 9900246
REMARK  2 active torsions:
REMARK  status: ('A' for Active; 'I' for Inactive)
REMARK    1  A    between atoms: C_6  and  O_19
REMARK    2  A    between atoms: C_18  and  O_21
REMARK                            x       y       z     vdW  Elec       q    Type
REMARK                         _______ _______ _______ _____ _____    ______ ____
ROOT
ATOM      1  C   UNL     1      34.206 -21.398 -18.794  0.00  0.00    +0.003 C 
ATOM      2  C   UNL     1      35.395 -21.108 -19.730  0.00  0.00    +0.025 C 
ATOM      3  C   UNL     1      34.472 -22.570 -17.850  0.00  0.00    +0.005 C 
ATOM      4  C   UNL     1      35.720 -22.254 -16.982  0.00  0.00    +0.004 C 
ATOM      5  C   UNL     1      36.594 -20.706 -18.862  0.00  0.00    +0.002 C 
ATOM      6  C   UNL     1      34.784 -19.963 -20.561  0.00  0.00    +0.110 C 
ATOM      7  C   UNL     1      36.934 -21.793 -17.827  0.00  0.00    +0.000 C 
ATOM      8  C   UNL     1      33.012 -21.466 -19.741  0.00  0.00    +0.003 C 
ATOM      9  C   UNL     1      36.071 -23.470 -16.073  0.00  0.00    +0.018 C 
ATOM     10  C   UNL     1      33.337 -20.422 -20.825  0.00  0.00    +0.029 C 
ATOM     11  C   UNL     1      33.266 -22.854 -16.942  0.00  0.00    +0.025 C 
ATOM     12  C   UNL     1      35.796 -22.288 -20.652  0.00  0.00    +0.002 C 
ATOM     13  C   UNL     1      34.842 -24.142 -15.478  0.00  0.00    -0.046 C 
ATOM     14  C   UNL     1      37.045 -23.044 -14.953  0.00  0.00    +0.007 C 
ATOM     15  C   UNL     1      33.589 -23.831 -15.855  0.00  0.00    -0.035 C 
ATOM     16  C   UNL     1      35.103 -25.211 -14.449  0.00  0.00    +0.051 C 
ATOM     17  C   UNL     1      37.337 -24.167 -13.961  0.00  0.00    +0.030 C 
ATOM     18  C   UNL     1      36.051 -24.723 -13.358  0.00  0.00    +0.115 C 
ENDROOT
BRANCH   6  19
ATOM     19  O   UNL     1      35.463 -19.714 -21.777  0.00  0.00    -0.384 OA
ATOM     20  H   UNL     1      36.055 -20.457 -21.974  0.00  0.00    +0.210 HD
ENDBRANCH   6  19
BRANCH  18  21
ATOM     21  O   UNL     1      36.389 -25.807 -12.498  0.00  0.00    -0.384 OA
ATOM     22  H   UNL     1      36.297 -25.527 -11.574  0.00  0.00    +0.210 HD
ENDBRANCH  18  21
TORSDOF 2
ENDMDL
