MODEL 1
REMARK VINA RESULT:      -6.1      0.000      0.000
REMARK  Name = 444139
REMARK  4 active torsions:
REMARK  status: ('A' for Active; 'I' for Inactive)
REMARK    1  A    between atoms: C_2  and  N_8
REMARK    2  A    between atoms: C_3  and  O_12
REMARK    3  A    between atoms: C_5  and  O_14
REMARK    4  A    between atoms: C_6  and  O_16
REMARK                            x       y       z     vdW  Elec       q    Type
REMARK                         _______ _______ _______ _____ _____    ______ ____
ROOT
ATOM      1  O   UNL     1      37.549 -22.626 -13.333  0.00  0.00    -0.333 OA
ATOM      2  C   UNL     1      35.882 -24.360 -13.771  0.00  0.00    -0.008 C 
ATOM      3  C   UNL     1      35.862 -24.723 -12.277  0.00  0.00    +0.125 C 
ATOM      4  C   UNL     1      37.238 -23.748 -14.172  0.00  0.00    +0.101 C 
ATOM      5  C   UNL     1      36.332 -23.533 -11.435  0.00  0.00    +0.192 C 
ATOM      6  C   UNL     1      37.653 -22.963 -11.949  0.00  0.00    +0.262 C 
ATOM      7  C   UNL     1      37.252 -23.229 -15.608  0.00  0.00    +0.030 C 
ENDROOT
BRANCH   2   8
ATOM      8  N   UNL     1      35.583 -25.555 -14.564  0.00  0.00    +0.385 N 
ATOM      9  H   UNL     1      34.792 -25.363 -15.180  0.00  0.00    -0.089 HD
ATOM     10  H   UNL     1      35.348 -26.328 -13.941  0.00  0.00    -0.089 HD
ATOM     11  H   UNL     1      36.397 -25.804 -15.124  0.00  0.00    -0.089 HD
ENDBRANCH   2   8
BRANCH   3  12
ATOM     12  O   UNL     1      34.521 -25.048 -11.907  0.00  0.00    -0.384 OA
ATOM     13  H   UNL     1      34.430 -26.012 -11.834  0.00  0.00    +0.210 HD
ENDBRANCH   3  12
BRANCH   5  14
ATOM     14  O   UNL     1      36.489 -23.914 -10.074  0.00  0.00    -0.378 OA
ATOM     15  H   UNL     1      37.292 -24.449  -9.978  0.00  0.00    +0.211 HD
ENDBRANCH   5  14
BRANCH   6  16
ATOM     16  O   UNL     1      38.763 -23.821 -11.686  0.00  0.00    -0.358 OA
ATOM     17  H   UNL     1      38.945 -23.830 -10.733  0.00  0.00    +0.213 HD
ENDBRANCH   6  16
TORSDOF 4
ENDMDL
MODEL 2
REMARK VINA RESULT:      -6.0      2.268      2.769
REMARK  Name = 444139
REMARK  4 active torsions:
REMARK  status: ('A' for Active; 'I' for Inactive)
REMARK    1  A    between atoms: C_2  and  N_8
REMARK    2  A    between atoms: C_3  and  O_12
REMARK    3  A    between atoms: C_5  and  O_14
REMARK    4  A    between atoms: C_6  and  O_16
REMARK                            x       y       z     vdW  Elec       q    Type
REMARK                         _______ _______ _______ _____ _____    ______ ____
ROOT
ATOM      1  O   UNL     1      38.203 -24.077 -15.063  0.00  0.00    -0.333 OA
ATOM      2  C   UNL     1      35.954 -23.407 -14.377  0.00  0.00    -0.008 C 
ATOM      3  C   UNL     1      35.712 -24.806 -13.789  0.00  0.00    +0.125 C 
ATOM      4  C   UNL     1      36.989 -23.458 -15.517  0.00  0.00    +0.101 C 
ATOM      5  C   UNL     1      37.046 -25.476 -13.448  0.00  0.00    +0.192 C 
ATOM      6  C   UNL     1      38.023 -25.423 -14.622  0.00  0.00    +0.262 C 
ATOM      7  C   UNL     1      37.377 -22.072 -16.027  0.00  0.00    +0.030 C 
ENDROOT
BRANCH   2   8
ATOM      8  N   UNL     1      34.681 -22.849 -14.841  0.00  0.00    +0.385 N 
ATOM      9  H   UNL     1      34.081 -22.660 -14.037  0.00  0.00    -0.089 HD
ATOM     10  H   UNL     1      34.220 -23.518 -15.458  0.00  0.00    -0.089 HD
ATOM     11  H   UNL     1      34.854 -21.982 -15.347  0.00  0.00    -0.089 HD
ENDBRANCH   2   8
BRANCH   3  12
ATOM     12  O   UNL     1      34.945 -24.669 -12.590  0.00  0.00    -0.384 OA
ATOM     13  H   UNL     1      35.090 -25.444 -12.024  0.00  0.00    +0.210 HD
ENDBRANCH   3  12
BRANCH   5  14
ATOM     14  O   UNL     1      36.844 -26.834 -13.074  0.00  0.00    -0.378 OA
ATOM     15  H   UNL     1      37.652 -27.181 -12.666  0.00  0.00    +0.211 HD
ENDBRANCH   5  14
BRANCH   6  16
ATOM     16  O   UNL     1      37.649 -26.295 -15.689  0.00  0.00    -0.358 OA
ATOM     17  H   UNL     1      38.017 -25.962 -16.522  0.00  0.00    +0.213 HD
ENDBRANCH   6  16
TORSDOF 4
ENDMDL
MODEL 3
REMARK VINA RESULT:      -5.9      1.706      1.838
REMARK  Name = 444139
REMARK  4 active torsions:
REMARK  status: ('A' for Active; 'I' for Inactive)
REMARK    1  A    between atoms: C_2  and  N_8
REMARK    2  A    between atoms: C_3  and  O_12
REMARK    3  A    between atoms: C_5  and  O_14
REMARK    4  A    between atoms: C_6  and  O_16
REMARK                            x       y       z     vdW  Elec       q    Type
REMARK                         _______ _______ _______ _____ _____    ______ ____
ROOT
ATOM      1  O   UNL     1      36.390 -22.910 -13.652  0.00  0.00    -0.333 OA
ATOM      2  C   UNL     1      37.306 -25.031 -14.451  0.00  0.00    -0.008 C 
ATOM      3  C   UNL     1      37.131 -25.639 -13.050  0.00  0.00    +0.125 C 
ATOM      4  C   UNL     1      37.481 -23.502 -14.371  0.00  0.00    +0.101 C 
ATOM      5  C   UNL     1      36.048 -24.883 -12.275  0.00  0.00    +0.192 C 
ATOM      6  C   UNL     1      36.280 -23.373 -12.305  0.00  0.00    +0.262 C 
ATOM      7  C   UNL     1      37.503 -22.836 -15.745  0.00  0.00    +0.030 C 
ENDROOT
BRANCH   2   8
ATOM      8  N   UNL     1      38.450 -25.663 -15.114  0.00  0.00    +0.385 N 
ATOM      9  H   UNL     1      38.572 -26.609 -14.751  0.00  0.00    -0.089 HD
ATOM     10  H   UNL     1      39.293 -25.118 -14.933  0.00  0.00    -0.089 HD
ATOM     11  H   UNL     1      38.280 -25.703 -16.119  0.00  0.00    -0.089 HD
ENDBRANCH   2   8
BRANCH   3  12
ATOM     12  O   UNL     1      36.728 -27.003 -13.194  0.00  0.00    -0.384 OA
ATOM     13  H   UNL     1      36.641 -27.216 -14.137  0.00  0.00    +0.210 HD
ENDBRANCH   3  12
BRANCH   5  14
ATOM     14  O   UNL     1      36.004 -25.319 -10.922  0.00  0.00    -0.378 OA
ATOM     15  H   UNL     1      35.382 -26.059 -10.840  0.00  0.00    +0.211 HD
ENDBRANCH   5  14
BRANCH   6  16
ATOM     16  O   UNL     1      37.390 -22.971 -11.504  0.00  0.00    -0.358 OA
ATOM     17  H   UNL     1      37.879 -22.269 -11.960  0.00  0.00    +0.213 HD
ENDBRANCH   6  16
TORSDOF 4
ENDMDL
MODEL 4
REMARK VINA RESULT:      -5.8      2.243      3.013
REMARK  Name = 444139
REMARK  4 active torsions:
REMARK  status: ('A' for Active; 'I' for Inactive)
REMARK    1  A    between atoms: C_2  and  N_8
REMARK    2  A    between atoms: C_3  and  O_12
REMARK    3  A    between atoms: C_5  and  O_14
REMARK    4  A    between atoms: C_6  and  O_16
REMARK                            x       y       z     vdW  Elec       q    Type
REMARK                         _______ _______ _______ _____ _____    ______ ____
ROOT
ATOM      1  O   UNL     1      38.701 -25.962 -13.135  0.00  0.00    -0.333 OA
ATOM      2  C   UNL     1      37.957 -24.060 -14.479  0.00  0.00    -0.008 C 
ATOM      3  C   UNL     1      36.543 -24.193 -13.891  0.00  0.00    +0.125 C 
ATOM      4  C   UNL     1      38.691 -25.414 -14.462  0.00  0.00    +0.101 C 
ATOM      5  C   UNL     1      36.596 -24.906 -12.537  0.00  0.00    +0.192 C 
ATOM      6  C   UNL     1      37.394 -26.206 -12.613  0.00  0.00    +0.262 C 
ATOM      7  C   UNL     1      40.152 -25.300 -14.891  0.00  0.00    +0.030 C 
ENDROOT
BRANCH   2   8
ATOM      8  N   UNL     1      37.868 -23.520 -15.838  0.00  0.00    +0.385 N 
ATOM      9  H   UNL     1      38.772 -23.617 -16.301  0.00  0.00    -0.089 HD
ATOM     10  H   UNL     1      37.611 -22.534 -15.797  0.00  0.00    -0.089 HD
ATOM     11  H   UNL     1      37.161 -24.035 -16.363  0.00  0.00    -0.089 HD
ENDBRANCH   2   8
BRANCH   3  12
ATOM     12  O   UNL     1      36.004 -22.883 -13.702  0.00  0.00    -0.384 OA
ATOM     13  H   UNL     1      35.074 -22.951 -13.435  0.00  0.00    +0.210 HD
ENDBRANCH   3  12
BRANCH   5  14
ATOM     14  O   UNL     1      35.283 -25.194 -12.071  0.00  0.00    -0.378 OA
ATOM     15  H   UNL     1      34.649 -24.599 -12.500  0.00  0.00    +0.211 HD
ENDBRANCH   5  14
BRANCH   6  16
ATOM     16  O   UNL     1      36.710 -27.232 -13.331  0.00  0.00    -0.358 OA
ATOM     17  H   UNL     1      36.237 -26.840 -14.082  0.00  0.00    +0.213 HD
ENDBRANCH   6  16
TORSDOF 4
ENDMDL
MODEL 5
REMARK VINA RESULT:      -5.8      2.382      3.502
REMARK  Name = 444139
REMARK  4 active torsions:
REMARK  status: ('A' for Active; 'I' for Inactive)
REMARK    1  A    between atoms: C_2  and  N_8
REMARK    2  A    between atoms: C_3  and  O_12
REMARK    3  A    between atoms: C_5  and  O_14
REMARK    4  A    between atoms: C_6  and  O_16
REMARK                            x       y       z     vdW  Elec       q    Type
REMARK                         _______ _______ _______ _____ _____    ______ ____
ROOT
ATOM      1  O   UNL     1      37.513 -25.510 -11.929  0.00  0.00    -0.333 OA
ATOM      2  C   UNL     1      35.743 -24.630 -13.368  0.00  0.00    -0.008 C 
ATOM      3  C   UNL     1      36.602 -24.919 -14.609  0.00  0.00    +0.125 C 
ATOM      4  C   UNL     1      36.626 -24.399 -12.126  0.00  0.00    +0.101 C 
ATOM      5  C   UNL     1      37.623 -26.019 -14.303  0.00  0.00    +0.192 C 
ATOM      6  C   UNL     1      38.405 -25.725 -13.024  0.00  0.00    +0.262 C 
ATOM      7  C   UNL     1      35.815 -24.262 -10.840  0.00  0.00    +0.030 C 
ENDROOT
BRANCH   2   8
ATOM      8  N   UNL     1      34.884 -23.472 -13.632  0.00  0.00    +0.385 N 
ATOM      9  H   UNL     1      33.931 -23.681 -13.333  0.00  0.00    -0.089 HD
ATOM     10  H   UNL     1      34.889 -23.265 -14.631  0.00  0.00    -0.089 HD
ATOM     11  H   UNL     1      35.233 -22.665 -13.115  0.00  0.00    -0.089 HD
ENDBRANCH   2   8
BRANCH   3  12
ATOM     12  O   UNL     1      35.744 -25.366 -15.661  0.00  0.00    -0.384 OA
ATOM     13  H   UNL     1      34.902 -24.886 -15.617  0.00  0.00    +0.210 HD
ENDBRANCH   3  12
BRANCH   5  14
ATOM     14  O   UNL     1      38.537 -26.168 -15.382  0.00  0.00    -0.378 OA
ATOM     15  H   UNL     1      38.046 -26.275 -16.211  0.00  0.00    +0.211 HD
ENDBRANCH   5  14
BRANCH   6  16
ATOM     16  O   UNL     1      39.334 -24.654 -13.180  0.00  0.00    -0.358 OA
ATOM     17  H   UNL     1      39.034 -23.888 -12.667  0.00  0.00    +0.213 HD
ENDBRANCH   6  16
TORSDOF 4
ENDMDL
MODEL 6
REMARK VINA RESULT:      -5.7      1.812      2.163
REMARK  Name = 444139
REMARK  4 active torsions:
REMARK  status: ('A' for Active; 'I' for Inactive)
REMARK    1  A    between atoms: C_2  and  N_8
REMARK    2  A    between atoms: C_3  and  O_12
REMARK    3  A    between atoms: C_5  and  O_14
REMARK    4  A    between atoms: C_6  and  O_16
REMARK                            x       y       z     vdW  Elec       q    Type
REMARK                         _______ _______ _______ _____ _____    ______ ____
ROOT
ATOM      1  O   UNL     1      38.455 -23.827 -12.741  0.00  0.00    -0.333 OA
ATOM      2  C   UNL     1      37.336 -25.480 -14.152  0.00  0.00    -0.008 C 
ATOM      3  C   UNL     1      35.993 -25.150 -13.480  0.00  0.00    +0.125 C 
ATOM      4  C   UNL     1      38.515 -25.184 -13.205  0.00  0.00    +0.101 C 
ATOM      5  C   UNL     1      36.031 -23.741 -12.883  0.00  0.00    +0.192 C 
ATOM      6  C   UNL     1      37.266 -23.530 -12.008  0.00  0.00    +0.262 C 
ATOM      7  C   UNL     1      39.873 -25.348 -13.883  0.00  0.00    +0.030 C 
ENDROOT
BRANCH   2   8
ATOM      8  N   UNL     1      37.334 -26.882 -14.577  0.00  0.00    +0.385 N 
ATOM      9  H   UNL     1      37.878 -27.437 -13.916  0.00  0.00    -0.089 HD
ATOM     10  H   UNL     1      37.748 -26.958 -15.506  0.00  0.00    -0.089 HD
ATOM     11  H   UNL     1      36.376 -27.229 -14.602  0.00  0.00    -0.089 HD
ENDBRANCH   2   8
BRANCH   3  12
ATOM     12  O   UNL     1      34.964 -25.204 -14.471  0.00  0.00    -0.384 OA
ATOM     13  H   UNL     1      34.895 -24.342 -14.912  0.00  0.00    +0.210 HD
ENDBRANCH   3  12
BRANCH   5  14
ATOM     14  O   UNL     1      34.865 -23.495 -12.106  0.00  0.00    -0.378 OA
ATOM     15  H   UNL     1      34.156 -24.094 -12.387  0.00  0.00    +0.211 HD
ENDBRANCH   5  14
BRANCH   6  16
ATOM     16  O   UNL     1      37.198 -24.247 -10.777  0.00  0.00    -0.358 OA
ATOM     17  H   UNL     1      37.658 -23.747 -10.086  0.00  0.00    +0.213 HD
ENDBRANCH   6  16
TORSDOF 4
ENDMDL
MODEL 7
REMARK VINA RESULT:      -5.6      2.317      2.940
REMARK  Name = 444139
REMARK  4 active torsions:
REMARK  status: ('A' for Active; 'I' for Inactive)
REMARK    1  A    between atoms: C_2  and  N_8
REMARK    2  A    between atoms: C_3  and  O_12
REMARK    3  A    between atoms: C_5  and  O_14
REMARK    4  A    between atoms: C_6  and  O_16
REMARK                            x       y       z     vdW  Elec       q    Type
REMARK                         _______ _______ _______ _____ _____    ______ ____
ROOT
ATOM      1  O   UNL     1      36.834 -24.112 -15.526  0.00  0.00    -0.333 OA
ATOM      2  C   UNL     1      35.345 -24.415 -13.610  0.00  0.00    -0.008 C 
ATOM      3  C   UNL     1      36.338 -25.412 -12.991  0.00  0.00    +0.125 C 
ATOM      4  C   UNL     1      35.477 -24.386 -15.145  0.00  0.00    +0.101 C 
ATOM      5  C   UNL     1      37.748 -25.163 -13.534  0.00  0.00    +0.192 C 
ATOM      6  C   UNL     1      37.762 -25.093 -15.060  0.00  0.00    +0.262 C 
ATOM      7  C   UNL     1      34.622 -23.299 -15.792  0.00  0.00    +0.030 C 
ENDROOT
BRANCH   2   8
ATOM      8  N   UNL     1      33.984 -24.769 -13.201  0.00  0.00    +0.385 N 
ATOM      9  H   UNL     1      33.635 -24.071 -12.543  0.00  0.00    -0.089 HD
ATOM     10  H   UNL     1      33.990 -25.685 -12.752  0.00  0.00    -0.089 HD
ATOM     11  H   UNL     1      33.378 -24.796 -14.020  0.00  0.00    -0.089 HD
ENDBRANCH   2   8
BRANCH   3  12
ATOM     12  O   UNL     1      36.349 -25.221 -11.574  0.00  0.00    -0.384 OA
ATOM     13  H   UNL     1      37.263 -25.266 -11.250  0.00  0.00    +0.210 HD
ENDBRANCH   3  12
BRANCH   5  14
ATOM     14  O   UNL     1      38.637 -26.189 -13.109  0.00  0.00    -0.378 OA
ATOM     15  H   UNL     1      38.418 -27.017 -13.564  0.00  0.00    +0.211 HD
ENDBRANCH   5  14
BRANCH   6  16
ATOM     16  O   UNL     1      37.554 -26.365 -15.672  0.00  0.00    -0.358 OA
ATOM     17  H   UNL     1      37.009 -26.257 -16.467  0.00  0.00    +0.213 HD
ENDBRANCH   6  16
TORSDOF 4
ENDMDL
MODEL 8
REMARK VINA RESULT:      -5.5      4.261      5.680
REMARK  Name = 444139
REMARK  4 active torsions:
REMARK  status: ('A' for Active; 'I' for Inactive)
REMARK    1  A    between atoms: C_2  and  N_8
REMARK    2  A    between atoms: C_3  and  O_12
REMARK    3  A    between atoms: C_5  and  O_14
REMARK    4  A    between atoms: C_6  and  O_16
REMARK                            x       y       z     vdW  Elec       q    Type
REMARK                         _______ _______ _______ _____ _____    ______ ____
ROOT
ATOM      1  O   UNL     1      31.271 -24.016 -16.251  0.00  0.00    -0.333 OA
ATOM      2  C   UNL     1      33.385 -23.763 -15.050  0.00  0.00    -0.008 C 
ATOM      3  C   UNL     1      32.663 -24.019 -13.717  0.00  0.00    +0.125 C 
ATOM      4  C   UNL     1      32.421 -23.171 -16.096  0.00  0.00    +0.101 C 
ATOM      5  C   UNL     1      31.372 -24.807 -13.956  0.00  0.00    +0.192 C 
ATOM      6  C   UNL     1      30.515 -24.172 -15.050  0.00  0.00    +0.262 C 
ATOM      7  C   UNL     1      33.053 -23.046 -17.480  0.00  0.00    +0.030 C 
ENDROOT
BRANCH   2   8
ATOM      8  N   UNL     1      34.529 -22.877 -14.820  0.00  0.00    +0.385 N 
ATOM      9  H   UNL     1      35.293 -23.410 -14.404  0.00  0.00    -0.089 HD
ATOM     10  H   UNL     1      34.255 -22.125 -14.186  0.00  0.00    -0.089 HD
ATOM     11  H   UNL     1      34.835 -22.479 -15.707  0.00  0.00    -0.089 HD
ENDBRANCH   2   8
BRANCH   3  12
ATOM     12  O   UNL     1      33.524 -24.787 -12.874  0.00  0.00    -0.384 OA
ATOM     13  H   UNL     1      34.113 -24.192 -12.385  0.00  0.00    +0.210 HD
ENDBRANCH   3  12
BRANCH   5  14
ATOM     14  O   UNL     1      30.609 -24.892 -12.759  0.00  0.00    -0.378 OA
ATOM     15  H   UNL     1      29.802 -24.362 -12.851  0.00  0.00    +0.211 HD
ENDBRANCH   5  14
BRANCH   6  16
ATOM     16  O   UNL     1      29.907 -22.951 -14.633  0.00  0.00    -0.358 OA
ATOM     17  H   UNL     1      29.501 -22.514 -15.398  0.00  0.00    +0.213 HD
ENDBRANCH   6  16
TORSDOF 4
ENDMDL
MODEL 9
REMARK VINA RESULT:      -5.5     10.280     12.235
REMARK  Name = 444139
REMARK  4 active torsions:
REMARK  status: ('A' for Active; 'I' for Inactive)
REMARK    1  A    between atoms: C_2  and  N_8
REMARK    2  A    between atoms: C_3  and  O_12
REMARK    3  A    between atoms: C_5  and  O_14
REMARK    4  A    between atoms: C_6  and  O_16
REMARK                            x       y       z     vdW  Elec       q    Type
REMARK                         _______ _______ _______ _____ _____    ______ ____
ROOT
ATOM      1  O   UNL     1      35.223 -17.366 -20.720  0.00  0.00    -0.333 OA
ATOM      2  C   UNL     1      35.289 -18.291 -22.982  0.00  0.00    -0.008 C 
ATOM      3  C   UNL     1      34.697 -16.985 -23.537  0.00  0.00    +0.125 C 
ATOM      4  C   UNL     1      34.870 -18.507 -21.515  0.00  0.00    +0.101 C 
ATOM      5  C   UNL     1      34.986 -15.823 -22.583  0.00  0.00    +0.192 C 
ATOM      6  C   UNL     1      34.589 -16.159 -21.146  0.00  0.00    +0.262 C 
ATOM      7  C   UNL     1      35.560 -19.709 -20.874  0.00  0.00    +0.030 C 
ENDROOT
BRANCH   2   8
ATOM      8  N   UNL     1      34.867 -19.412 -23.826  0.00  0.00    +0.385 N 
ATOM      9  H   UNL     1      34.125 -19.102 -24.455  0.00  0.00    -0.089 HD
ATOM     10  H   UNL     1      34.519 -20.169 -23.238  0.00  0.00    -0.089 HD
ATOM     11  H   UNL     1      35.661 -19.743 -24.373  0.00  0.00    -0.089 HD
ENDBRANCH   2   8
BRANCH   3  12
ATOM     12  O   UNL     1      35.309 -16.709 -24.799  0.00  0.00    -0.384 OA
ATOM     13  H   UNL     1      35.026 -15.836 -25.112  0.00  0.00    +0.210 HD
ENDBRANCH   3  12
BRANCH   5  14
ATOM     14  O   UNL     1      34.292 -14.652 -22.995  0.00  0.00    -0.378 OA
ATOM     15  H   UNL     1      34.510 -13.920 -22.398  0.00  0.00    +0.211 HD
ENDBRANCH   5  14
BRANCH   6  16
ATOM     16  O   UNL     1      33.175 -16.198 -20.960  0.00  0.00    -0.358 OA
ATOM     17  H   UNL     1      32.759 -15.514 -21.506  0.00  0.00    +0.213 HD
ENDBRANCH   6  16
TORSDOF 4
ENDMDL
