MODEL 1
REMARK VINA RESULT:      -6.3      0.000      0.000
REMARK  Name = 448650
REMARK  2 active torsions:
REMARK  status: ('A' for Active; 'I' for Inactive)
REMARK    1  A    between atoms: C_5  and  C_9
REMARK    2  A    between atoms: C_9  and  O_10
REMARK                            x       y       z     vdW  Elec       q    Type
REMARK                         _______ _______ _______ _____ _____    ______ ____
ROOT
ATOM      1  O   UNL     1      37.377 -27.115 -13.821  0.00  0.00    -0.264 OA
ATOM      2  O   UNL     1      38.712 -24.194 -12.590  0.00  0.00    -0.262 OA
ATOM      3  N   UNL     1      37.306 -26.050 -12.896  0.00  0.00    -0.157 N 
ATOM      4  N   UNL     1      38.514 -26.941 -14.650  0.00  0.00    -0.040 NA
ATOM      5  C   UNL     1      39.083 -25.851 -14.251  0.00  0.00    +0.255 A 
ATOM      6  C   UNL     1      38.355 -25.221 -13.119  0.00  0.00    +0.315 A 
ATOM      7  H   UNL     1      36.612 -25.931 -12.207  0.00  0.00    +0.213 HD
ENDROOT
BRANCH   5   9
ATOM      8  O   UNL     1      41.105 -24.613 -14.415  0.00  0.00    -0.243 OA
ATOM      9  C   UNL     1      40.311 -25.378 -14.917  0.00  0.00    +0.364 C 
BRANCH   9  10
ATOM     10  O   UNL     1      40.390 -25.929 -16.143  0.00  0.00    -0.476 OA
ATOM     11  H   UNL     1      39.729 -26.527 -16.431  0.00  0.00    +0.295 HD
ENDBRANCH   9  10
ENDBRANCH   5   9
TORSDOF 2
ENDMDL
MODEL 2
REMARK VINA RESULT:      -6.2      2.942      5.007
REMARK  Name = 448650
REMARK  2 active torsions:
REMARK  status: ('A' for Active; 'I' for Inactive)
REMARK    1  A    between atoms: C_5  and  C_9
REMARK    2  A    between atoms: C_9  and  O_10
REMARK                            x       y       z     vdW  Elec       q    Type
REMARK                         _______ _______ _______ _____ _____    ______ ____
ROOT
ATOM      1  O   UNL     1      38.684 -23.123 -11.768  0.00  0.00    -0.264 OA
ATOM      2  O   UNL     1      37.375 -26.150 -12.743  0.00  0.00    -0.262 OA
ATOM      3  N   UNL     1      38.826 -24.318 -12.508  0.00  0.00    -0.157 N 
ATOM      4  N   UNL     1      37.435 -23.129 -11.099  0.00  0.00    -0.040 NA
ATOM      5  C   UNL     1      36.868 -24.248 -11.413  0.00  0.00    +0.255 A 
ATOM      6  C   UNL     1      37.711 -25.067 -12.323  0.00  0.00    +0.315 A 
ATOM      7  H   UNL     1      39.601 -24.563 -13.062  0.00  0.00    +0.213 HD
ENDROOT
BRANCH   5   9
ATOM      8  O   UNL     1      35.247 -24.530  -9.698  0.00  0.00    -0.243 OA
ATOM      9  C   UNL     1      35.533 -24.571 -10.875  0.00  0.00    +0.364 C 
BRANCH   9  10
ATOM     10  O   UNL     1      34.716 -24.909 -11.889  0.00  0.00    -0.476 OA
ATOM     11  H   UNL     1      33.789 -24.817 -11.795  0.00  0.00    +0.295 HD
ENDBRANCH   9  10
ENDBRANCH   5   9
TORSDOF 2
ENDMDL
MODEL 3
REMARK VINA RESULT:      -6.1      1.452      2.075
REMARK  Name = 448650
REMARK  2 active torsions:
REMARK  status: ('A' for Active; 'I' for Inactive)
REMARK    1  A    between atoms: C_5  and  C_9
REMARK    2  A    between atoms: C_9  and  O_10
REMARK                            x       y       z     vdW  Elec       q    Type
REMARK                         _______ _______ _______ _____ _____    ______ ____
ROOT
ATOM      1  O   UNL     1      36.805 -24.337 -14.035  0.00  0.00    -0.264 OA
ATOM      2  O   UNL     1      38.084 -27.455 -14.720  0.00  0.00    -0.262 OA
ATOM      3  N   UNL     1      36.596 -25.728 -14.154  0.00  0.00    -0.157 N 
ATOM      4  N   UNL     1      38.160 -24.039 -14.322  0.00  0.00    -0.040 NA
ATOM      5  C   UNL     1      38.724 -25.170 -14.595  0.00  0.00    +0.255 A 
ATOM      6  C   UNL     1      37.771 -26.306 -14.505  0.00  0.00    +0.315 A 
ATOM      7  H   UNL     1      35.742 -26.197 -14.007  0.00  0.00    +0.213 HD
ENDROOT
BRANCH   5   9
ATOM      8  O   UNL     1      41.029 -24.677 -14.291  0.00  0.00    -0.243 OA
ATOM      9  C   UNL     1      40.157 -25.211 -14.941  0.00  0.00    +0.364 C 
BRANCH   9  10
ATOM     10  O   UNL     1      40.319 -25.923 -16.071  0.00  0.00    -0.476 OA
ATOM     11  H   UNL     1      40.392 -25.484 -16.896  0.00  0.00    +0.295 HD
ENDBRANCH   9  10
ENDBRANCH   5   9
TORSDOF 2
ENDMDL
MODEL 4
REMARK VINA RESULT:      -6.1      2.447      3.578
REMARK  Name = 448650
REMARK  2 active torsions:
REMARK  status: ('A' for Active; 'I' for Inactive)
REMARK    1  A    between atoms: C_5  and  C_9
REMARK    2  A    between atoms: C_9  and  O_10
REMARK                            x       y       z     vdW  Elec       q    Type
REMARK                         _______ _______ _______ _____ _____    ______ ____
ROOT
ATOM      1  O   UNL     1      38.325 -22.852 -11.574  0.00  0.00    -0.264 OA
ATOM      2  O   UNL     1      35.733 -25.087 -11.239  0.00  0.00    -0.262 OA
ATOM      3  N   UNL     1      37.080 -23.180 -10.993  0.00  0.00    -0.157 N 
ATOM      4  N   UNL     1      38.739 -23.908 -12.424  0.00  0.00    -0.040 NA
ATOM      5  C   UNL     1      37.809 -24.804 -12.358  0.00  0.00    +0.255 A 
ATOM      6  C   UNL     1      36.705 -24.400 -11.450  0.00  0.00    +0.315 A 
ATOM      7  H   UNL     1      36.574 -22.617 -10.363  0.00  0.00    +0.213 HD
ENDROOT
BRANCH   5   9
ATOM      8  O   UNL     1      38.894 -26.330 -13.823  0.00  0.00    -0.243 OA
ATOM      9  C   UNL     1      37.934 -26.051 -13.137  0.00  0.00    +0.364 C 
BRANCH   9  10
ATOM     10  O   UNL     1      36.830 -26.798 -12.958  0.00  0.00    -0.476 OA
ATOM     11  H   UNL     1      36.730 -27.306 -12.177  0.00  0.00    +0.295 HD
ENDBRANCH   9  10
ENDBRANCH   5   9
TORSDOF 2
ENDMDL
MODEL 5
REMARK VINA RESULT:      -6.0      2.142      2.802
REMARK  Name = 448650
REMARK  2 active torsions:
REMARK  status: ('A' for Active; 'I' for Inactive)
REMARK    1  A    between atoms: C_5  and  C_9
REMARK    2  A    between atoms: C_9  and  O_10
REMARK                            x       y       z     vdW  Elec       q    Type
REMARK                         _______ _______ _______ _____ _____    ______ ____
ROOT
ATOM      1  O   UNL     1      35.994 -25.220 -11.020  0.00  0.00    -0.264 OA
ATOM      2  O   UNL     1      38.237 -22.696 -11.672  0.00  0.00    -0.262 OA
ATOM      3  N   UNL     1      36.459 -23.916 -10.741  0.00  0.00    -0.157 N 
ATOM      4  N   UNL     1      36.795 -25.797 -12.037  0.00  0.00    -0.040 NA
ATOM      5  C   UNL     1      37.677 -24.904 -12.346  0.00  0.00    +0.255 A 
ATOM      6  C   UNL     1      37.519 -23.661 -11.547  0.00  0.00    +0.315 A 
ATOM      7  H   UNL     1      36.078 -23.299 -10.075  0.00  0.00    +0.213 HD
ENDROOT
BRANCH   5   9
ATOM      8  O   UNL     1      39.377 -26.182 -13.408  0.00  0.00    -0.243 OA
ATOM      9  C   UNL     1      38.678 -25.192 -13.390  0.00  0.00    +0.364 C 
BRANCH   9  10
ATOM     10  O   UNL     1      38.679 -24.191 -14.291  0.00  0.00    -0.476 OA
ATOM     11  H   UNL     1      38.928 -24.360 -15.178  0.00  0.00    +0.295 HD
ENDBRANCH   9  10
ENDBRANCH   5   9
TORSDOF 2
ENDMDL
MODEL 6
REMARK VINA RESULT:      -6.0      2.056      3.496
REMARK  Name = 448650
REMARK  2 active torsions:
REMARK  status: ('A' for Active; 'I' for Inactive)
REMARK    1  A    between atoms: C_5  and  C_9
REMARK    2  A    between atoms: C_9  and  O_10
REMARK                            x       y       z     vdW  Elec       q    Type
REMARK                         _______ _______ _______ _____ _____    ______ ____
ROOT
ATOM      1  O   UNL     1      38.644 -25.542 -14.673  0.00  0.00    -0.264 OA
ATOM      2  O   UNL     1      36.963 -26.575 -11.856  0.00  0.00    -0.262 OA
ATOM      3  N   UNL     1      37.974 -26.571 -13.976  0.00  0.00    -0.157 N 
ATOM      4  N   UNL     1      38.654 -24.367 -13.881  0.00  0.00    -0.040 NA
ATOM      5  C   UNL     1      38.034 -24.670 -12.787  0.00  0.00    +0.255 A 
ATOM      6  C   UNL     1      37.566 -26.080 -12.780  0.00  0.00    +0.315 A 
ATOM      7  H   UNL     1      37.828 -27.488 -14.304  0.00  0.00    +0.213 HD
ENDROOT
BRANCH   5   9
ATOM      8  O   UNL     1      38.503 -22.623 -11.674  0.00  0.00    -0.243 OA
ATOM      9  C   UNL     1      37.866 -23.651 -11.733  0.00  0.00    +0.364 C 
BRANCH   9  10
ATOM     10  O   UNL     1      36.910 -24.055 -10.876  0.00  0.00    -0.476 OA
ATOM     11  H   UNL     1      36.908 -23.738  -9.994  0.00  0.00    +0.295 HD
ENDBRANCH   9  10
ENDBRANCH   5   9
TORSDOF 2
ENDMDL
MODEL 7
REMARK VINA RESULT:      -5.9      2.571      4.359
REMARK  Name = 448650
REMARK  2 active torsions:
REMARK  status: ('A' for Active; 'I' for Inactive)
REMARK    1  A    between atoms: C_5  and  C_9
REMARK    2  A    between atoms: C_9  and  O_10
REMARK                            x       y       z     vdW  Elec       q    Type
REMARK                         _______ _______ _______ _____ _____    ______ ____
ROOT
ATOM      1  O   UNL     1      38.229 -26.204 -13.192  0.00  0.00    -0.264 OA
ATOM      2  O   UNL     1      38.483 -23.116 -11.701  0.00  0.00    -0.262 OA
ATOM      3  N   UNL     1      38.996 -25.047 -12.936  0.00  0.00    -0.157 N 
ATOM      4  N   UNL     1      36.966 -26.081 -12.561  0.00  0.00    -0.040 NA
ATOM      5  C   UNL     1      36.975 -24.932 -11.968  0.00  0.00    +0.255 A 
ATOM      6  C   UNL     1      38.257 -24.208 -12.168  0.00  0.00    +0.315 A 
ATOM      7  H   UNL     1      39.911 -24.879 -13.259  0.00  0.00    +0.213 HD
ENDROOT
BRANCH   5   9
ATOM      8  O   UNL     1      34.671 -24.438 -11.661  0.00  0.00    -0.243 OA
ATOM      9  C   UNL     1      35.792 -24.490 -11.205  0.00  0.00    +0.364 C 
BRANCH   9  10
ATOM     10  O   UNL     1      36.168 -24.165  -9.954  0.00  0.00    -0.476 OA
ATOM     11  H   UNL     1      35.656 -24.449  -9.223  0.00  0.00    +0.295 HD
ENDBRANCH   9  10
ENDBRANCH   5   9
TORSDOF 2
ENDMDL
MODEL 8
REMARK VINA RESULT:      -5.9      1.909      3.279
REMARK  Name = 448650
REMARK  2 active torsions:
REMARK  status: ('A' for Active; 'I' for Inactive)
REMARK    1  A    between atoms: C_5  and  C_9
REMARK    2  A    between atoms: C_9  and  O_10
REMARK                            x       y       z     vdW  Elec       q    Type
REMARK                         _______ _______ _______ _____ _____    ______ ____
ROOT
ATOM      1  O   UNL     1      38.714 -26.556 -14.492  0.00  0.00    -0.264 OA
ATOM      2  O   UNL     1      37.838 -23.241 -14.758  0.00  0.00    -0.262 OA
ATOM      3  N   UNL     1      38.448 -25.440 -15.315  0.00  0.00    -0.157 N 
ATOM      4  N   UNL     1      38.561 -26.185 -13.133  0.00  0.00    -0.040 NA
ATOM      5  C   UNL     1      38.227 -24.936 -13.140  0.00  0.00    +0.255 A 
ATOM      6  C   UNL     1      38.135 -24.388 -14.518  0.00  0.00    +0.315 A 
ATOM      7  H   UNL     1      38.484 -25.428 -16.299  0.00  0.00    +0.213 HD
ENDROOT
BRANCH   5   9
ATOM      8  O   UNL     1      37.172 -24.577 -11.041  0.00  0.00    -0.243 OA
ATOM      9  C   UNL     1      37.989 -24.232 -11.865  0.00  0.00    +0.364 C 
BRANCH   9  10
ATOM     10  O   UNL     1      38.815 -23.173 -11.784  0.00  0.00    -0.476 OA
ATOM     11  H   UNL     1      39.146 -22.776 -12.566  0.00  0.00    +0.295 HD
ENDBRANCH   9  10
ENDBRANCH   5   9
TORSDOF 2
ENDMDL
MODEL 9
REMARK VINA RESULT:      -5.9      2.078      3.699
REMARK  Name = 448650
REMARK  2 active torsions:
REMARK  status: ('A' for Active; 'I' for Inactive)
REMARK    1  A    between atoms: C_5  and  C_9
REMARK    2  A    between atoms: C_9  and  O_10
REMARK                            x       y       z     vdW  Elec       q    Type
REMARK                         _______ _______ _______ _____ _____    ______ ____
ROOT
ATOM      1  O   UNL     1      38.400 -23.489 -15.060  0.00  0.00    -0.264 OA
ATOM      2  O   UNL     1      38.690 -26.846 -14.367  0.00  0.00    -0.262 OA
ATOM      3  N   UNL     1      38.812 -24.776 -15.471  0.00  0.00    -0.157 N 
ATOM      4  N   UNL     1      37.838 -23.569 -13.761  0.00  0.00    -0.040 NA
ATOM      5  C   UNL     1      37.908 -24.814 -13.418  0.00  0.00    +0.255 A 
ATOM      6  C   UNL     1      38.526 -25.652 -14.477  0.00  0.00    +0.315 A 
ATOM      7  H   UNL     1      39.233 -24.997 -16.333  0.00  0.00    +0.213 HD
ENDROOT
BRANCH   5   9
ATOM      8  O   UNL     1      37.459 -24.566 -11.097  0.00  0.00    -0.243 OA
ATOM      9  C   UNL     1      37.399 -25.242 -12.101  0.00  0.00    +0.364 C 
BRANCH   9  10
ATOM     10  O   UNL     1      36.874 -26.476 -12.209  0.00  0.00    -0.476 OA
ATOM     11  H   UNL     1      37.355 -27.153 -12.642  0.00  0.00    +0.295 HD
ENDBRANCH   9  10
ENDBRANCH   5   9
TORSDOF 2
ENDMDL
