MODEL 1
REMARK VINA RESULT:     -10.1      0.000      0.000
REMARK  Name = 10150441
REMARK  5 active torsions:
REMARK  status: ('A' for Active; 'I' for Inactive)
REMARK    1  A    between atoms: N_1  and  C_23
REMARK    2  A    between atoms: C_3  and  C_10
REMARK    3  A    between atoms: C_10  and  C_16
REMARK    4  A    between atoms: C_23  and  C_25
REMARK    5  A    between atoms: C_25  and  O_26
REMARK                            x       y       z     vdW  Elec       q    Type
REMARK                         _______ _______ _______ _____ _____    ______ ____
ROOT
ATOM      1  N   UNL     1      34.401 -23.281 -15.011  0.00  0.00    -0.261 N 
ATOM      2  N   UNL     1      32.310 -23.161 -13.819  0.00  0.00    -0.229 NA
ATOM      3  C   UNL     1      33.679 -23.340 -17.115  0.00  0.00    +0.003 C 
ATOM      4  C   UNL     1      32.548 -23.267 -16.258  0.00  0.00    +0.030 C 
ATOM      5  C   UNL     1      33.032 -23.231 -14.955  0.00  0.00    +0.136 C 
ATOM      6  C   UNL     1      34.804 -23.346 -16.319  0.00  0.00    +0.063 C 
ATOM      7  C   UNL     1      31.155 -23.225 -16.431  0.00  0.00    +0.004 C 
ATOM      8  C   UNL     1      30.359 -23.152 -15.290  0.00  0.00    +0.021 C 
ATOM      9  C   UNL     1      30.976 -23.124 -14.046  0.00  0.00    +0.100 C 
ENDROOT
BRANCH   3  10
ATOM     10  C   UNL     1      33.663 -23.397 -18.590  0.00  0.00    +0.094 C 
BRANCH  10  16
ATOM     11  S   UNL     1      35.732 -21.853 -19.543  0.00  0.00    -0.055 S 
ATOM     12  F   UNL     1      32.078 -18.757 -20.713  0.00  0.00    -0.222 F 
ATOM     13  F   UNL     1      37.518 -19.544 -20.847  0.00  0.00    -0.204 F 
ATOM     14  F   UNL     1      33.725 -16.873 -21.796  0.00  0.00    -0.205 F 
ATOM     15  N   UNL     1      33.239 -21.195 -19.628  0.00  0.00    -0.400 NA
ATOM     16  C   UNL     1      34.083 -22.099 -19.265  0.00  0.00    +0.143 C 
ATOM     17  C   UNL     1      33.950 -20.154 -20.208  0.00  0.00    +0.156 C 
ATOM     18  C   UNL     1      35.336 -20.332 -20.252  0.00  0.00    +0.087 C 
ATOM     19  C   UNL     1      33.403 -18.967 -20.739  0.00  0.00    +0.262 C 
ATOM     20  C   UNL     1      36.190 -19.367 -20.808  0.00  0.00    +0.150 C 
ATOM     21  C   UNL     1      34.247 -18.001 -21.294  0.00  0.00    +0.159 C 
ATOM     22  C   UNL     1      35.622 -18.200 -21.326  0.00  0.00    +0.059 C 
ENDBRANCH  10  16
ENDBRANCH   3  10
BRANCH   1  23
ATOM     23  C   UNL     1      35.293 -23.266 -13.873  0.00  0.00    +0.207 C 
BRANCH  23  25
ATOM     24  O   UNL     1      36.391 -25.428 -13.635  0.00  0.00    -0.248 OA
ATOM     25  C   UNL     1      35.517 -24.641 -13.304  0.00  0.00    +0.335 C 
BRANCH  25  26
ATOM     26  O   UNL     1      34.591 -24.903 -12.347  0.00  0.00    -0.479 OA
ATOM     27  H   UNL     1      34.696 -25.645 -11.786  0.00  0.00    +0.295 HD
ENDBRANCH  25  26
ENDBRANCH  23  25
ENDBRANCH   1  23
TORSDOF 5
ENDMDL
MODEL 2
REMARK VINA RESULT:     -10.1      6.473      9.917
REMARK  Name = 10150441
REMARK  5 active torsions:
REMARK  status: ('A' for Active; 'I' for Inactive)
REMARK    1  A    between atoms: N_1  and  C_23
REMARK    2  A    between atoms: C_3  and  C_10
REMARK    3  A    between atoms: C_10  and  C_16
REMARK    4  A    between atoms: C_23  and  C_25
REMARK    5  A    between atoms: C_25  and  O_26
REMARK                            x       y       z     vdW  Elec       q    Type
REMARK                         _______ _______ _______ _____ _____    ______ ____
ROOT
ATOM      1  N   UNL     1      33.480 -15.233 -24.720  0.00  0.00    -0.261 N 
ATOM      2  N   UNL     1      32.386 -13.916 -23.025  0.00  0.00    -0.229 NA
ATOM      3  C   UNL     1      34.987 -16.320 -23.495  0.00  0.00    +0.003 C 
ATOM      4  C   UNL     1      34.237 -15.477 -22.633  0.00  0.00    +0.030 C 
ATOM      5  C   UNL     1      33.307 -14.814 -23.426  0.00  0.00    +0.136 C 
ATOM      6  C   UNL     1      34.499 -16.149 -24.773  0.00  0.00    +0.063 C 
ATOM      7  C   UNL     1      34.232 -15.193 -21.258  0.00  0.00    +0.004 C 
ATOM      8  C   UNL     1      33.300 -14.269 -20.786  0.00  0.00    +0.021 C 
ATOM      9  C   UNL     1      32.429 -13.680 -21.692  0.00  0.00    +0.100 C 
ENDROOT
BRANCH   3  10
ATOM     10  C   UNL     1      36.090 -17.221 -23.105  0.00  0.00    +0.094 C 
BRANCH  10  16
ATOM     11  S   UNL     1      36.905 -19.194 -21.368  0.00  0.00    -0.055 S 
ATOM     12  F   UNL     1      32.052 -19.836 -20.780  0.00  0.00    -0.222 F 
ATOM     13  F   UNL     1      37.035 -21.587 -19.252  0.00  0.00    -0.204 F 
ATOM     14  F   UNL     1      32.316 -21.870 -18.983  0.00  0.00    -0.205 F 
ATOM     15  N   UNL     1      34.447 -18.601 -21.880  0.00  0.00    -0.400 NA
ATOM     16  C   UNL     1      35.679 -18.319 -22.135  0.00  0.00    +0.143 C 
ATOM     17  C   UNL     1      34.427 -19.640 -20.961  0.00  0.00    +0.156 C 
ATOM     18  C   UNL     1      35.684 -20.103 -20.559  0.00  0.00    +0.087 C 
ATOM     19  C   UNL     1      33.276 -20.249 -20.417  0.00  0.00    +0.262 C 
ATOM     20  C   UNL     1      35.827 -21.149 -19.634  0.00  0.00    +0.150 C 
ATOM     21  C   UNL     1      33.410 -21.292 -19.496  0.00  0.00    +0.159 C 
ATOM     22  C   UNL     1      34.671 -21.735 -19.112  0.00  0.00    +0.059 C 
ENDBRANCH  10  16
ENDBRANCH   3  10
BRANCH   1  23
ATOM     23  C   UNL     1      32.714 -14.786 -25.861  0.00  0.00    +0.207 C 
BRANCH  23  25
ATOM     24  O   UNL     1      33.820 -13.734 -27.761  0.00  0.00    -0.248 OA
ATOM     25  C   UNL     1      33.401 -13.679 -26.614  0.00  0.00    +0.335 C 
BRANCH  25  26
ATOM     26  O   UNL     1      33.501 -12.577 -25.827  0.00  0.00    -0.479 OA
ATOM     27  H   UNL     1      33.989 -12.614 -25.029  0.00  0.00    +0.295 HD
ENDBRANCH  25  26
ENDBRANCH  23  25
ENDBRANCH   1  23
TORSDOF 5
ENDMDL
MODEL 3
REMARK VINA RESULT:      -9.9      8.265     12.021
REMARK  Name = 10150441
REMARK  5 active torsions:
REMARK  status: ('A' for Active; 'I' for Inactive)
REMARK    1  A    between atoms: N_1  and  C_23
REMARK    2  A    between atoms: C_3  and  C_10
REMARK    3  A    between atoms: C_10  and  C_16
REMARK    4  A    between atoms: C_23  and  C_25
REMARK    5  A    between atoms: C_25  and  O_26
REMARK                            x       y       z     vdW  Elec       q    Type
REMARK                         _______ _______ _______ _____ _____    ______ ____
ROOT
ATOM      1  N   UNL     1      31.975 -10.688 -22.221  0.00  0.00    -0.261 N 
ATOM      2  N   UNL     1      33.017  -8.516 -22.295  0.00  0.00    -0.229 NA
ATOM      3  C   UNL     1      33.130 -11.758 -23.793  0.00  0.00    +0.003 C 
ATOM      4  C   UNL     1      33.626 -10.430 -23.703  0.00  0.00    +0.030 C 
ATOM      5  C   UNL     1      32.886  -9.790 -22.714  0.00  0.00    +0.136 C 
ATOM      6  C   UNL     1      32.116 -11.887 -22.869  0.00  0.00    +0.063 C 
ATOM      7  C   UNL     1      34.626  -9.683 -24.346  0.00  0.00    +0.004 C 
ATOM      8  C   UNL     1      34.805  -8.358 -23.952  0.00  0.00    +0.021 C 
ATOM      9  C   UNL     1      33.993  -7.845 -22.949  0.00  0.00    +0.100 C 
ENDROOT
BRANCH   3  10
ATOM     10  C   UNL     1      33.609 -12.816 -24.706  0.00  0.00    +0.094 C 
BRANCH  10  16
ATOM     11  S   UNL     1      34.249 -14.080 -22.347  0.00  0.00    -0.055 S 
ATOM     12  F   UNL     1      34.383 -18.076 -25.231  0.00  0.00    -0.222 F 
ATOM     13  F   UNL     1      35.009 -16.218 -20.094  0.00  0.00    -0.204 F 
ATOM     14  F   UNL     1      35.031 -19.785 -23.208  0.00  0.00    -0.205 F 
ATOM     15  N   UNL     1      34.025 -15.250 -24.635  0.00  0.00    -0.400 NA
ATOM     16  C   UNL     1      33.953 -14.125 -24.010  0.00  0.00    +0.143 C 
ATOM     17  C   UNL     1      34.353 -16.232 -23.711  0.00  0.00    +0.156 C 
ATOM     18  C   UNL     1      34.519 -15.782 -22.398  0.00  0.00    +0.087 C 
ATOM     19  C   UNL     1      34.530 -17.606 -23.984  0.00  0.00    +0.262 C 
ATOM     20  C   UNL     1      34.853 -16.656 -21.351  0.00  0.00    +0.150 C 
ATOM     21  C   UNL     1      34.862 -18.482 -22.947  0.00  0.00    +0.159 C 
ATOM     22  C   UNL     1      35.022 -18.011 -21.648  0.00  0.00    +0.059 C 
ENDBRANCH  10  16
ENDBRANCH   3  10
BRANCH   1  23
ATOM     23  C   UNL     1      31.010 -10.423 -21.177  0.00  0.00    +0.207 C 
BRANCH  23  25
ATOM     24  O   UNL     1      31.587 -11.570 -19.106  0.00  0.00    -0.248 OA
ATOM     25  C   UNL     1      31.602 -10.565 -19.802  0.00  0.00    +0.335 C 
BRANCH  25  26
ATOM     26  O   UNL     1      32.172  -9.393 -19.419  0.00  0.00    -0.479 OA
ATOM     27  H   UNL     1      32.070  -9.089 -18.539  0.00  0.00    +0.295 HD
ENDBRANCH  25  26
ENDBRANCH  23  25
ENDBRANCH   1  23
TORSDOF 5
ENDMDL
MODEL 4
REMARK VINA RESULT:      -9.9      8.472     12.176
REMARK  Name = 10150441
REMARK  5 active torsions:
REMARK  status: ('A' for Active; 'I' for Inactive)
REMARK    1  A    between atoms: N_1  and  C_23
REMARK    2  A    between atoms: C_3  and  C_10
REMARK    3  A    between atoms: C_10  and  C_16
REMARK    4  A    between atoms: C_23  and  C_25
REMARK    5  A    between atoms: C_25  and  O_26
REMARK                            x       y       z     vdW  Elec       q    Type
REMARK                         _______ _______ _______ _____ _____    ______ ____
ROOT
ATOM      1  N   UNL     1      32.010 -10.503 -22.133  0.00  0.00    -0.261 N 
ATOM      2  N   UNL     1      32.969  -8.295 -22.014  0.00  0.00    -0.229 NA
ATOM      3  C   UNL     1      33.163 -11.368 -23.828  0.00  0.00    +0.003 C 
ATOM      4  C   UNL     1      33.613 -10.037 -23.617  0.00  0.00    +0.030 C 
ATOM      5  C   UNL     1      32.874  -9.526 -22.555  0.00  0.00    +0.136 C 
ATOM      6  C   UNL     1      32.178 -11.626 -22.900  0.00  0.00    +0.063 C 
ATOM      7  C   UNL     1      34.568  -9.192 -24.204  0.00  0.00    +0.004 C 
ATOM      8  C   UNL     1      34.709  -7.907 -23.685  0.00  0.00    +0.021 C 
ATOM      9  C   UNL     1      33.904  -7.526 -22.620  0.00  0.00    +0.100 C 
ENDROOT
BRANCH   3  10
ATOM     10  C   UNL     1      33.657 -12.312 -24.850  0.00  0.00    +0.094 C 
BRANCH  10  16
ATOM     11  S   UNL     1      33.846 -15.001 -25.402  0.00  0.00    -0.055 S 
ATOM     12  F   UNL     1      34.978 -15.286 -20.612  0.00  0.00    -0.222 F 
ATOM     13  F   UNL     1      34.259 -18.167 -25.239  0.00  0.00    -0.204 F 
ATOM     14  F   UNL     1      35.297 -17.994 -20.623  0.00  0.00    -0.205 F 
ATOM     15  N   UNL     1      34.252 -13.938 -23.088  0.00  0.00    -0.400 NA
ATOM     16  C   UNL     1      33.942 -13.709 -24.317  0.00  0.00    +0.143 C 
ATOM     17  C   UNL     1      34.448 -15.304 -22.942  0.00  0.00    +0.156 C 
ATOM     18  C   UNL     1      34.268 -16.057 -24.106  0.00  0.00    +0.087 C 
ATOM     19  C   UNL     1      34.800 -15.972 -21.751  0.00  0.00    +0.262 C 
ATOM     20  C   UNL     1      34.431 -17.452 -24.120  0.00  0.00    +0.150 C 
ATOM     21  C   UNL     1      34.964 -17.361 -21.756  0.00  0.00    +0.159 C 
ATOM     22  C   UNL     1      34.780 -18.088 -22.926  0.00  0.00    +0.059 C 
ENDBRANCH  10  16
ENDBRANCH   3  10
BRANCH   1  23
ATOM     23  C   UNL     1      31.062 -10.379 -21.048  0.00  0.00    +0.207 C 
BRANCH  23  25
ATOM     24  O   UNL     1      31.691 -11.773 -19.152  0.00  0.00    -0.248 OA
ATOM     25  C   UNL     1      31.679 -10.686 -19.712  0.00  0.00    +0.335 C 
BRANCH  25  26
ATOM     26  O   UNL     1      32.238  -9.564 -19.190  0.00  0.00    -0.479 OA
ATOM     27  H   UNL     1      32.634  -8.932 -19.756  0.00  0.00    +0.295 HD
ENDBRANCH  25  26
ENDBRANCH  23  25
ENDBRANCH   1  23
TORSDOF 5
ENDMDL
MODEL 5
REMARK VINA RESULT:      -9.8      9.697     12.758
REMARK  Name = 10150441
REMARK  5 active torsions:
REMARK  status: ('A' for Active; 'I' for Inactive)
REMARK    1  A    between atoms: N_1  and  C_23
REMARK    2  A    between atoms: C_3  and  C_10
REMARK    3  A    between atoms: C_10  and  C_16
REMARK    4  A    between atoms: C_23  and  C_25
REMARK    5  A    between atoms: C_25  and  O_26
REMARK                            x       y       z     vdW  Elec       q    Type
REMARK                         _______ _______ _______ _____ _____    ______ ____
ROOT
ATOM      1  N   UNL     1      33.386 -13.627 -23.931  0.00  0.00    -0.261 N 
ATOM      2  N   UNL     1      34.628 -15.456 -22.974  0.00  0.00    -0.229 NA
ATOM      3  C   UNL     1      32.290 -12.885 -22.142  0.00  0.00    +0.003 C 
ATOM      4  C   UNL     1      33.091 -13.991 -21.747  0.00  0.00    +0.030 C 
ATOM      5  C   UNL     1      33.760 -14.429 -22.885  0.00  0.00    +0.136 C 
ATOM      6  C   UNL     1      32.493 -12.685 -23.490  0.00  0.00    +0.063 C 
ATOM      7  C   UNL     1      33.333 -14.681 -20.549  0.00  0.00    +0.004 C 
ATOM      8  C   UNL     1      34.222 -15.754 -20.583  0.00  0.00    +0.021 C 
ATOM      9  C   UNL     1      34.821 -16.085 -21.791  0.00  0.00    +0.100 C 
ENDROOT
BRANCH   3  10
ATOM     10  C   UNL     1      31.401 -12.088 -21.273  0.00  0.00    +0.094 C 
BRANCH  10  16
ATOM     11  S   UNL     1      32.090  -9.693 -20.107  0.00  0.00    -0.055 S 
ATOM     12  F   UNL     1      30.975  -7.898 -24.561  0.00  0.00    -0.222 F 
ATOM     13  F   UNL     1      32.706  -6.614 -19.503  0.00  0.00    -0.204 F 
ATOM     14  F   UNL     1      31.538  -5.313 -23.904  0.00  0.00    -0.205 F 
ATOM     15  N   UNL     1      31.304  -9.974 -22.548  0.00  0.00    -0.400 NA
ATOM     16  C   UNL     1      31.558 -10.584 -21.441  0.00  0.00    +0.143 C 
ATOM     17  C   UNL     1      31.552  -8.622 -22.358  0.00  0.00    +0.156 C 
ATOM     18  C   UNL     1      31.991  -8.271 -21.078  0.00  0.00    +0.087 C 
ATOM     19  C   UNL     1      31.398  -7.604 -23.323  0.00  0.00    +0.262 C 
ATOM     20  C   UNL     1      32.284  -6.942 -20.732  0.00  0.00    +0.150 C 
ATOM     21  C   UNL     1      31.687  -6.278 -22.987  0.00  0.00    +0.159 C 
ATOM     22  C   UNL     1      32.123  -5.954 -21.707  0.00  0.00    +0.059 C 
ENDBRANCH  10  16
ENDBRANCH   3  10
BRANCH   1  23
ATOM     23  C   UNL     1      33.853 -13.745 -25.294  0.00  0.00    +0.207 C 
BRANCH  23  25
ATOM     24  O   UNL     1      33.631 -15.999 -26.193  0.00  0.00    -0.248 OA
ATOM     25  C   UNL     1      33.185 -14.873 -26.032  0.00  0.00    +0.335 C 
BRANCH  25  26
ATOM     26  O   UNL     1      31.983 -14.463 -26.514  0.00  0.00    -0.479 OA
ATOM     27  H   UNL     1      31.863 -13.571 -26.774  0.00  0.00    +0.295 HD
ENDBRANCH  25  26
ENDBRANCH  23  25
ENDBRANCH   1  23
TORSDOF 5
ENDMDL
MODEL 6
REMARK VINA RESULT:      -9.6      9.648     12.654
REMARK  Name = 10150441
REMARK  5 active torsions:
REMARK  status: ('A' for Active; 'I' for Inactive)
REMARK    1  A    between atoms: N_1  and  C_23
REMARK    2  A    between atoms: C_3  and  C_10
REMARK    3  A    between atoms: C_10  and  C_16
REMARK    4  A    between atoms: C_23  and  C_25
REMARK    5  A    between atoms: C_25  and  O_26
REMARK                            x       y       z     vdW  Elec       q    Type
REMARK                         _______ _______ _______ _____ _____    ______ ____
ROOT
ATOM      1  N   UNL     1      33.413 -14.820 -24.548  0.00  0.00    -0.261 N 
ATOM      2  N   UNL     1      34.776 -16.448 -23.408  0.00  0.00    -0.229 NA
ATOM      3  C   UNL     1      32.650 -13.636 -22.826  0.00  0.00    +0.003 C 
ATOM      4  C   UNL     1      33.491 -14.664 -22.322  0.00  0.00    +0.030 C 
ATOM      5  C   UNL     1      33.950 -15.384 -23.420  0.00  0.00    +0.136 C 
ATOM      6  C   UNL     1      32.622 -13.757 -24.199  0.00  0.00    +0.063 C 
ATOM      7  C   UNL     1      33.925 -15.077 -21.052  0.00  0.00    +0.004 C 
ATOM      8  C   UNL     1      34.781 -16.174 -20.980  0.00  0.00    +0.021 C 
ATOM      9  C   UNL     1      35.160 -16.801 -22.159  0.00  0.00    +0.100 C 
ENDROOT
BRANCH   3  10
ATOM     10  C   UNL     1      31.933 -12.617 -22.033  0.00  0.00    +0.094 C 
BRANCH  10  16
ATOM     11  S   UNL     1      30.990 -10.040 -22.235  0.00  0.00    -0.055 S 
ATOM     12  F   UNL     1      35.434  -9.215 -24.204  0.00  0.00    -0.222 F 
ATOM     13  F   UNL     1      30.644  -6.912 -22.797  0.00  0.00    -0.204 F 
ATOM     14  F   UNL     1      34.998  -6.557 -24.624  0.00  0.00    -0.205 F 
ATOM     15  N   UNL     1      33.327 -10.821 -22.998  0.00  0.00    -0.400 NA
ATOM     16  C   UNL     1      32.211 -11.186 -22.468  0.00  0.00    +0.143 C 
ATOM     17  C   UNL     1      33.249  -9.462 -23.269  0.00  0.00    +0.156 C 
ATOM     18  C   UNL     1      32.038  -8.855 -22.921  0.00  0.00    +0.087 C 
ATOM     19  C   UNL     1      34.260  -8.670 -23.853  0.00  0.00    +0.262 C 
ATOM     20  C   UNL     1      31.807  -7.487 -23.134  0.00  0.00    +0.150 C 
ATOM     21  C   UNL     1      34.037  -7.307 -24.068  0.00  0.00    +0.159 C 
ATOM     22  C   UNL     1      32.825  -6.726 -23.713  0.00  0.00    +0.059 C 
ENDBRANCH  10  16
ENDBRANCH   3  10
BRANCH   1  23
ATOM     23  C   UNL     1      33.639 -15.269 -25.904  0.00  0.00    +0.207 C 
BRANCH  23  25
ATOM     24  O   UNL     1      33.887 -13.572 -27.634  0.00  0.00    -0.248 OA
ATOM     25  C   UNL     1      33.175 -14.266 -26.924  0.00  0.00    +0.335 C 
BRANCH  25  26
ATOM     26  O   UNL     1      31.818 -14.228 -26.952  0.00  0.00    -0.479 OA
ATOM     27  H   UNL     1      31.363 -14.367 -27.759  0.00  0.00    +0.295 HD
ENDBRANCH  25  26
ENDBRANCH  23  25
ENDBRANCH   1  23
TORSDOF 5
ENDMDL
MODEL 7
REMARK VINA RESULT:      -9.6      2.207      3.275
REMARK  Name = 10150441
REMARK  5 active torsions:
REMARK  status: ('A' for Active; 'I' for Inactive)
REMARK    1  A    between atoms: N_1  and  C_23
REMARK    2  A    between atoms: C_3  and  C_10
REMARK    3  A    between atoms: C_10  and  C_16
REMARK    4  A    between atoms: C_23  and  C_25
REMARK    5  A    between atoms: C_25  and  O_26
REMARK                            x       y       z     vdW  Elec       q    Type
REMARK                         _______ _______ _______ _____ _____    ______ ____
ROOT
ATOM      1  N   UNL     1      31.567 -22.979 -15.670  0.00  0.00    -0.261 N 
ATOM      2  N   UNL     1      32.805 -23.529 -13.677  0.00  0.00    -0.229 NA
ATOM      3  C   UNL     1      33.086 -23.414 -17.237  0.00  0.00    +0.003 C 
ATOM      4  C   UNL     1      33.663 -23.690 -15.968  0.00  0.00    +0.030 C 
ATOM      5  C   UNL     1      32.691 -23.409 -15.014  0.00  0.00    +0.136 C 
ATOM      6  C   UNL     1      31.796 -22.979 -17.021  0.00  0.00    +0.063 C 
ATOM      7  C   UNL     1      34.907 -24.152 -15.508  0.00  0.00    +0.004 C 
ATOM      8  C   UNL     1      35.080 -24.294 -14.132  0.00  0.00    +0.021 C 
ATOM      9  C   UNL     1      34.023 -23.975 -13.290  0.00  0.00    +0.100 C 
ENDROOT
BRANCH   3  10
ATOM     10  C   UNL     1      33.740 -23.564 -18.552  0.00  0.00    +0.094 C 
BRANCH  10  16
ATOM     11  S   UNL     1      35.762 -21.919 -19.432  0.00  0.00    -0.055 S 
ATOM     12  F   UNL     1      32.005 -18.996 -20.713  0.00  0.00    -0.222 F 
ATOM     13  F   UNL     1      37.478 -19.522 -20.671  0.00  0.00    -0.204 F 
ATOM     14  F   UNL     1      33.594 -17.031 -21.736  0.00  0.00    -0.205 F 
ATOM     15  N   UNL     1      33.245 -21.381 -19.598  0.00  0.00    -0.400 NA
ATOM     16  C   UNL     1      34.119 -22.245 -19.209  0.00  0.00    +0.143 C 
ATOM     17  C   UNL     1      33.924 -20.305 -20.151  0.00  0.00    +0.156 C 
ATOM     18  C   UNL     1      35.317 -20.416 -20.150  0.00  0.00    +0.087 C 
ATOM     19  C   UNL     1      33.338 -19.142 -20.696  0.00  0.00    +0.262 C 
ATOM     20  C   UNL     1      36.142 -19.408 -20.675  0.00  0.00    +0.150 C 
ATOM     21  C   UNL     1      34.152 -18.135 -21.221  0.00  0.00    +0.159 C 
ATOM     22  C   UNL     1      35.536 -18.268 -21.208  0.00  0.00    +0.059 C 
ENDBRANCH  10  16
ENDBRANCH   3  10
BRANCH   1  23
ATOM     23  C   UNL     1      30.325 -22.584 -15.044  0.00  0.00    +0.207 C 
BRANCH  23  25
ATOM     24  O   UNL     1      28.626 -21.986 -16.685  0.00  0.00    -0.248 OA
ATOM     25  C   UNL     1      29.137 -22.808 -15.939  0.00  0.00    +0.335 C 
BRANCH  25  26
ATOM     26  O   UNL     1      28.690 -24.083 -15.805  0.00  0.00    -0.479 OA
ATOM     27  H   UNL     1      27.891 -24.344 -16.219  0.00  0.00    +0.295 HD
ENDBRANCH  25  26
ENDBRANCH  23  25
ENDBRANCH   1  23
TORSDOF 5
ENDMDL
MODEL 8
REMARK VINA RESULT:      -9.6      9.832     13.193
REMARK  Name = 10150441
REMARK  5 active torsions:
REMARK  status: ('A' for Active; 'I' for Inactive)
REMARK    1  A    between atoms: N_1  and  C_23
REMARK    2  A    between atoms: C_3  and  C_10
REMARK    3  A    between atoms: C_10  and  C_16
REMARK    4  A    between atoms: C_23  and  C_25
REMARK    5  A    between atoms: C_25  and  O_26
REMARK                            x       y       z     vdW  Elec       q    Type
REMARK                         _______ _______ _______ _____ _____    ______ ____
ROOT
ATOM      1  N   UNL     1      32.533  -8.691 -21.831  0.00  0.00    -0.261 N 
ATOM      2  N   UNL     1      34.275  -8.326 -23.455  0.00  0.00    -0.229 NA
ATOM      3  C   UNL     1      31.975 -10.798 -22.284  0.00  0.00    +0.003 C 
ATOM      4  C   UNL     1      33.015 -10.412 -23.172  0.00  0.00    +0.030 C 
ATOM      5  C   UNL     1      33.339  -9.095 -22.863  0.00  0.00    +0.136 C 
ATOM      6  C   UNL     1      31.700  -9.719 -21.471  0.00  0.00    +0.063 C 
ATOM      7  C   UNL     1      33.730 -11.027 -24.212  0.00  0.00    +0.004 C 
ATOM      8  C   UNL     1      34.710 -10.278 -24.860  0.00  0.00    +0.021 C 
ATOM      9  C   UNL     1      34.931  -8.970 -24.450  0.00  0.00    +0.100 C 
ENDROOT
BRANCH   3  10
ATOM     10  C   UNL     1      31.306 -12.112 -22.232  0.00  0.00    +0.094 C 
BRANCH  10  16
ATOM     11  S   UNL     1      32.989 -13.893 -20.980  0.00  0.00    -0.055 S 
ATOM     12  F   UNL     1      33.589 -15.612 -25.561  0.00  0.00    -0.222 F 
ATOM     13  F   UNL     1      35.040 -16.249 -20.296  0.00  0.00    -0.204 F 
ATOM     14  F   UNL     1      35.329 -17.580 -24.831  0.00  0.00    -0.205 F 
ATOM     15  N   UNL     1      32.506 -13.851 -23.513  0.00  0.00    -0.400 NA
ATOM     16  C   UNL     1      32.252 -13.296 -22.378  0.00  0.00    +0.143 C 
ATOM     17  C   UNL     1      33.397 -14.891 -23.291  0.00  0.00    +0.156 C 
ATOM     18  C   UNL     1      33.781 -15.071 -21.959  0.00  0.00    +0.087 C 
ATOM     19  C   UNL     1      33.930 -15.754 -24.272  0.00  0.00    +0.262 C 
ATOM     20  C   UNL     1      34.676 -16.082 -21.576  0.00  0.00    +0.150 C 
ATOM     21  C   UNL     1      34.822 -16.763 -23.898  0.00  0.00    +0.159 C 
ATOM     22  C   UNL     1      35.190 -16.922 -22.567  0.00  0.00    +0.059 C 
ENDBRANCH  10  16
ENDBRANCH   3  10
BRANCH   1  23
ATOM     23  C   UNL     1      32.548  -7.386 -21.209  0.00  0.00    +0.207 C 
BRANCH  23  25
ATOM     24  O   UNL     1      30.784  -6.683 -22.736  0.00  0.00    -0.248 OA
ATOM     25  C   UNL     1      31.636  -6.412 -21.902  0.00  0.00    +0.335 C 
BRANCH  25  26
ATOM     26  O   UNL     1      31.890  -5.150 -21.469  0.00  0.00    -0.479 OA
ATOM     27  H   UNL     1      31.181  -4.572 -21.272  0.00  0.00    +0.295 HD
ENDBRANCH  25  26
ENDBRANCH  23  25
ENDBRANCH   1  23
TORSDOF 5
ENDMDL
MODEL 9
REMARK VINA RESULT:      -9.6      6.560     10.166
REMARK  Name = 10150441
REMARK  5 active torsions:
REMARK  status: ('A' for Active; 'I' for Inactive)
REMARK    1  A    between atoms: N_1  and  C_23
REMARK    2  A    between atoms: C_3  and  C_10
REMARK    3  A    between atoms: C_10  and  C_16
REMARK    4  A    between atoms: C_23  and  C_25
REMARK    5  A    between atoms: C_25  and  O_26
REMARK                            x       y       z     vdW  Elec       q    Type
REMARK                         _______ _______ _______ _____ _____    ______ ____
ROOT
ATOM      1  N   UNL     1      33.481 -15.106 -24.665  0.00  0.00    -0.261 N 
ATOM      2  N   UNL     1      32.420 -13.783 -22.954  0.00  0.00    -0.229 NA
ATOM      3  C   UNL     1      34.941 -16.265 -23.450  0.00  0.00    +0.003 C 
ATOM      4  C   UNL     1      34.213 -15.413 -22.577  0.00  0.00    +0.030 C 
ATOM      5  C   UNL     1      33.312 -14.705 -23.365  0.00  0.00    +0.136 C 
ATOM      6  C   UNL     1      34.469 -16.055 -24.727  0.00  0.00    +0.063 C 
ATOM      7  C   UNL     1      34.207 -15.153 -21.197  0.00  0.00    +0.004 C 
ATOM      8  C   UNL     1      33.304 -14.207 -20.716  0.00  0.00    +0.021 C 
ATOM      9  C   UNL     1      32.460 -13.572 -21.617  0.00  0.00    +0.100 C 
ENDROOT
BRANCH   3  10
ATOM     10  C   UNL     1      36.010 -17.210 -23.067  0.00  0.00    +0.094 C 
BRANCH  10  16
ATOM     11  S   UNL     1      33.928 -18.796 -22.219  0.00  0.00    -0.055 S 
ATOM     12  F   UNL     1      37.379 -20.689 -19.250  0.00  0.00    -0.222 F 
ATOM     13  F   UNL     1      32.093 -20.956 -20.739  0.00  0.00    -0.204 F 
ATOM     14  F   UNL     1      35.696 -22.483 -18.074  0.00  0.00    -0.205 F 
ATOM     15  N   UNL     1      36.338 -18.914 -21.309  0.00  0.00    -0.400 NA
ATOM     16  C   UNL     1      35.549 -18.325 -22.140  0.00  0.00    +0.143 C 
ATOM     17  C   UNL     1      35.604 -19.873 -20.627  0.00  0.00    +0.156 C 
ATOM     18  C   UNL     1      34.256 -19.958 -20.988  0.00  0.00    +0.087 C 
ATOM     19  C   UNL     1      36.093 -20.741 -19.627  0.00  0.00    +0.262 C 
ATOM     20  C   UNL     1      33.384 -20.880 -20.387  0.00  0.00    +0.150 C 
ATOM     21  C   UNL     1      35.231 -21.661 -19.024  0.00  0.00    +0.159 C 
ATOM     22  C   UNL     1      33.894 -21.727 -19.400  0.00  0.00    +0.059 C 
ENDBRANCH  10  16
ENDBRANCH   3  10
BRANCH   1  23
ATOM     23  C   UNL     1      32.739 -14.613 -25.803  0.00  0.00    +0.207 C 
BRANCH  23  25
ATOM     24  O   UNL     1      33.591 -12.334 -25.930  0.00  0.00    -0.248 OA
ATOM     25  C   UNL     1      33.401 -13.425 -26.446  0.00  0.00    +0.335 C 
BRANCH  25  26
ATOM     26  O   UNL     1      33.770 -13.732 -27.717  0.00  0.00    -0.479 OA
ATOM     27  H   UNL     1      34.652 -13.585 -27.996  0.00  0.00    +0.295 HD
ENDBRANCH  25  26
ENDBRANCH  23  25
ENDBRANCH   1  23
TORSDOF 5
ENDMDL
