MODEL 1
REMARK VINA RESULT:      -8.1      0.000      0.000
REMARK  Name = 736104
REMARK  6 active torsions:
REMARK  status: ('A' for Active; 'I' for Inactive)
REMARK    1  A    between atoms: N_2  and  CA_5
REMARK    2  A    between atoms: C_3  and  O_11
REMARK    3  A    between atoms: CA_5  and  C_8
REMARK    4  A    between atoms: C_8  and  O_9
REMARK    5  A    between atoms: O_11  and  C_12
REMARK    6  A    between atoms: C_12  and  C_13
REMARK                            x       y       z     vdW  Elec       q    Type
REMARK                         _______ _______ _______ _____ _____    ______ ____
ROOT
ATOM      1  O   UNL     1      37.397 -22.860 -14.367  0.00  0.00    -0.226 OA
ATOM      2  N   UNL     1      38.098 -24.966 -15.040  0.00  0.00    -0.262 N 
ATOM      3  C   ACE A   0      37.284 -23.854 -15.076  0.00  0.00    +0.402 C 
ATOM      4  H   UNL     1      37.905 -25.704 -15.661  0.00  0.00    +0.153 HD
ENDROOT
BRANCH   2   5
ATOM      5  CA  UNL     1      39.220 -25.110 -14.140  0.00  0.00    +0.174 C 
ATOM      6  CB  UNL     1      38.774 -25.726 -12.822  0.00  0.00    +0.033 C 
BRANCH   5   8
ATOM      7  OXT UNL     1      41.148 -26.567 -14.092  0.00  0.00    -0.248 OA
ATOM      8  C   UNL     1      40.335 -25.935 -14.760  0.00  0.00    +0.332 C 
BRANCH   8   9
ATOM      9  O   UNL     1      40.372 -25.911 -16.113  0.00  0.00    -0.479 OA
ATOM     10  H   UNL     1      39.688 -25.489 -16.593  0.00  0.00    +0.295 HD
ENDBRANCH   8   9
ENDBRANCH   5   8
ENDBRANCH   2   5
BRANCH   3  11
ATOM     11  O   UNL     1      36.318 -24.022 -16.028  0.00  0.00    -0.430 OA
BRANCH  11  12
ATOM     12  C   UNL     1      35.301 -23.015 -16.072  0.00  0.00    +0.237 C 
BRANCH  12  13
ATOM     13  C   UNL     1      35.280 -22.398 -17.439  0.00  0.00    +0.021 C 
ATOM     14  C   UNL     1      34.111 -22.437 -18.192  0.00  0.00    -0.001 C 
ATOM     15  C   UNL     1      36.427 -21.794 -17.940  0.00  0.00    -0.001 C 
ATOM     16  C   UNL     1      34.091 -21.863 -19.464  0.00  0.00    -0.000 C 
ATOM     17  C   UNL     1      36.406 -21.221 -19.212  0.00  0.00    -0.000 C 
ATOM     18  C   UNL     1      35.238 -21.256 -19.974  0.00  0.00    -0.000 C 
ENDBRANCH  12  13
ENDBRANCH  11  12
ENDBRANCH   3  11
TORSDOF 6
ENDMDL
MODEL 2
REMARK VINA RESULT:      -8.0      5.575      7.661
REMARK  Name = 736104
REMARK  6 active torsions:
REMARK  status: ('A' for Active; 'I' for Inactive)
REMARK    1  A    between atoms: N_2  and  CA_5
REMARK    2  A    between atoms: C_3  and  O_11
REMARK    3  A    between atoms: CA_5  and  C_8
REMARK    4  A    between atoms: C_8  and  O_9
REMARK    5  A    between atoms: O_11  and  C_12
REMARK    6  A    between atoms: C_12  and  C_13
REMARK                            x       y       z     vdW  Elec       q    Type
REMARK                         _______ _______ _______ _____ _____    ______ ____
ROOT
ATOM      1  O   UNL     1      32.326 -23.565 -16.132  0.00  0.00    -0.226 OA
ATOM      2  N   UNL     1      30.339 -22.799 -17.052  0.00  0.00    -0.262 N 
ATOM      3  C   ACE A   0      31.706 -22.976 -17.011  0.00  0.00    +0.402 C 
ATOM      4  H   UNL     1      29.957 -22.306 -17.813  0.00  0.00    +0.153 HD
ENDROOT
BRANCH   2   5
ATOM      5  CA  UNL     1      29.435 -23.296 -16.040  0.00  0.00    +0.174 C 
ATOM      6  CB  UNL     1      29.440 -22.384 -14.822  0.00  0.00    +0.033 C 
BRANCH   5   8
ATOM      7  OXT UNL     1      27.748 -24.174 -17.532  0.00  0.00    -0.248 OA
ATOM      8  C   UNL     1      28.022 -23.454 -16.577  0.00  0.00    +0.332 C 
BRANCH   8   9
ATOM      9  O   UNL     1      27.085 -22.727 -15.926  0.00  0.00    -0.479 OA
ATOM     10  H   UNL     1      27.344 -22.087 -15.292  0.00  0.00    +0.295 HD
ENDBRANCH   8   9
ENDBRANCH   5   8
ENDBRANCH   2   5
BRANCH   3  11
ATOM     11  O   UNL     1      32.279 -22.392 -18.105  0.00  0.00    -0.430 OA
BRANCH  11  12
ATOM     12  C   UNL     1      33.651 -22.724 -18.345  0.00  0.00    +0.237 C 
BRANCH  12  13
ATOM     13  C   UNL     1      34.255 -21.689 -19.248  0.00  0.00    +0.021 C 
ATOM     14  C   UNL     1      33.425 -20.829 -19.960  0.00  0.00    -0.001 C 
ATOM     15  C   UNL     1      35.637 -21.599 -19.365  0.00  0.00    -0.001 C 
ATOM     16  C   UNL     1      33.987 -19.867 -20.799  0.00  0.00    -0.000 C 
ATOM     17  C   UNL     1      36.198 -20.637 -20.205  0.00  0.00    -0.000 C 
ATOM     18  C   UNL     1      35.373 -19.771 -20.922  0.00  0.00    -0.000 C 
ENDBRANCH  12  13
ENDBRANCH  11  12
ENDBRANCH   3  11
TORSDOF 6
ENDMDL
MODEL 3
REMARK VINA RESULT:      -8.0      7.172     10.379
REMARK  Name = 736104
REMARK  6 active torsions:
REMARK  status: ('A' for Active; 'I' for Inactive)
REMARK    1  A    between atoms: N_2  and  CA_5
REMARK    2  A    between atoms: C_3  and  O_11
REMARK    3  A    between atoms: CA_5  and  C_8
REMARK    4  A    between atoms: C_8  and  O_9
REMARK    5  A    between atoms: O_11  and  C_12
REMARK    6  A    between atoms: C_12  and  C_13
REMARK                            x       y       z     vdW  Elec       q    Type
REMARK                         _______ _______ _______ _____ _____    ______ ____
ROOT
ATOM      1  O   UNL     1      33.359 -16.306 -21.034  0.00  0.00    -0.226 OA
ATOM      2  N   UNL     1      34.727 -16.622 -22.880  0.00  0.00    -0.262 N 
ATOM      3  C   ACE A   0      34.370 -16.763 -21.556  0.00  0.00    +0.402 C 
ATOM      4  H   UNL     1      35.567 -17.037 -23.181  0.00  0.00    +0.153 HD
ENDROOT
BRANCH   2   5
ATOM      5  CA  UNL     1      33.937 -15.901 -23.852  0.00  0.00    +0.174 C 
ATOM      6  CB  UNL     1      34.214 -14.408 -23.764  0.00  0.00    +0.033 C 
BRANCH   5   8
ATOM      7  OXT UNL     1      34.683 -17.499 -25.505  0.00  0.00    -0.248 OA
ATOM      8  C   UNL     1      34.185 -16.404 -25.264  0.00  0.00    +0.332 C 
BRANCH   8   9
ATOM      9  O   UNL     1      33.826 -15.541 -26.243  0.00  0.00    -0.479 OA
ATOM     10  H   UNL     1      34.276 -15.550 -27.065  0.00  0.00    +0.295 HD
ENDBRANCH   8   9
ENDBRANCH   5   8
ENDBRANCH   2   5
BRANCH   3  11
ATOM     11  O   UNL     1      35.319 -17.494 -20.899  0.00  0.00    -0.430 OA
BRANCH  11  12
ATOM     12  C   UNL     1      35.707 -18.722 -21.525  0.00  0.00    +0.237 C 
BRANCH  12  13
ATOM     13  C   UNL     1      35.186 -19.872 -20.715  0.00  0.00    +0.021 C 
ATOM     14  C   UNL     1      33.814 -20.070 -20.605  0.00  0.00    -0.001 C 
ATOM     15  C   UNL     1      36.079 -20.730 -20.082  0.00  0.00    -0.001 C 
ATOM     16  C   UNL     1      33.329 -21.139 -19.852  0.00  0.00    -0.000 C 
ATOM     17  C   UNL     1      35.593 -21.798 -19.329  0.00  0.00    -0.000 C 
ATOM     18  C   UNL     1      34.218 -22.003 -19.214  0.00  0.00    -0.000 C 
ENDBRANCH  12  13
ENDBRANCH  11  12
ENDBRANCH   3  11
TORSDOF 6
ENDMDL
MODEL 4
REMARK VINA RESULT:      -8.0      4.037      5.195
REMARK  Name = 736104
REMARK  6 active torsions:
REMARK  status: ('A' for Active; 'I' for Inactive)
REMARK    1  A    between atoms: N_2  and  CA_5
REMARK    2  A    between atoms: C_3  and  O_11
REMARK    3  A    between atoms: CA_5  and  C_8
REMARK    4  A    between atoms: C_8  and  O_9
REMARK    5  A    between atoms: O_11  and  C_12
REMARK    6  A    between atoms: C_12  and  C_13
REMARK                            x       y       z     vdW  Elec       q    Type
REMARK                         _______ _______ _______ _____ _____    ______ ____
ROOT
ATOM      1  O   UNL     1      35.101 -23.146 -15.180  0.00  0.00    -0.226 OA
ATOM      2  N   UNL     1      32.895 -23.314 -15.875  0.00  0.00    -0.262 N 
ATOM      3  C   ACE A   0      34.258 -23.242 -16.066  0.00  0.00    +0.402 C 
ATOM      4  H   UNL     1      32.318 -23.388 -16.669  0.00  0.00    +0.153 HD
ENDROOT
BRANCH   2   5
ATOM      5  CA  UNL     1      32.264 -23.285 -14.575  0.00  0.00    +0.174 C 
ATOM      6  CB  UNL     1      30.821 -22.817 -14.691  0.00  0.00    +0.033 C 
BRANCH   5   8
ATOM      7  OXT UNL     1      31.476 -25.509 -14.048  0.00  0.00    -0.248 OA
ATOM      8  C   UNL     1      32.328 -24.640 -13.890  0.00  0.00    +0.332 C 
BRANCH   8   9
ATOM      9  O   UNL     1      33.395 -24.813 -13.076  0.00  0.00    -0.479 OA
ATOM     10  H   UNL     1      33.711 -24.098 -12.558  0.00  0.00    +0.295 HD
ENDBRANCH   8   9
ENDBRANCH   5   8
ENDBRANCH   2   5
BRANCH   3  11
ATOM     11  O   UNL     1      34.540 -23.292 -17.402  0.00  0.00    -0.430 OA
BRANCH  11  12
ATOM     12  C   UNL     1      33.502 -22.838 -18.278  0.00  0.00    +0.237 C 
BRANCH  12  13
ATOM     13  C   UNL     1      34.058 -21.788 -19.194  0.00  0.00    +0.021 C 
ATOM     14  C   UNL     1      33.192 -20.919 -19.850  0.00  0.00    -0.001 C 
ATOM     15  C   UNL     1      35.433 -21.692 -19.378  0.00  0.00    -0.001 C 
ATOM     16  C   UNL     1      33.709 -19.942 -20.701  0.00  0.00    -0.000 C 
ATOM     17  C   UNL     1      35.949 -20.716 -20.230  0.00  0.00    -0.000 C 
ATOM     18  C   UNL     1      35.087 -19.841 -20.892  0.00  0.00    -0.000 C 
ENDBRANCH  12  13
ENDBRANCH  11  12
ENDBRANCH   3  11
TORSDOF 6
ENDMDL
MODEL 5
REMARK VINA RESULT:      -7.9      7.114     10.487
REMARK  Name = 736104
REMARK  6 active torsions:
REMARK  status: ('A' for Active; 'I' for Inactive)
REMARK    1  A    between atoms: N_2  and  CA_5
REMARK    2  A    between atoms: C_3  and  O_11
REMARK    3  A    between atoms: CA_5  and  C_8
REMARK    4  A    between atoms: C_8  and  O_9
REMARK    5  A    between atoms: O_11  and  C_12
REMARK    6  A    between atoms: C_12  and  C_13
REMARK                            x       y       z     vdW  Elec       q    Type
REMARK                         _______ _______ _______ _____ _____    ______ ____
ROOT
ATOM      1  O   UNL     1      34.996 -15.896 -19.922  0.00  0.00    -0.226 OA
ATOM      2  N   UNL     1      34.475 -15.893 -22.182  0.00  0.00    -0.262 N 
ATOM      3  C   ACE A   0      34.951 -16.451 -21.014  0.00  0.00    +0.402 C 
ATOM      4  H   UNL     1      34.492 -16.441 -22.999  0.00  0.00    +0.153 HD
ENDROOT
BRANCH   2   5
ATOM      5  CA  UNL     1      33.953 -14.548 -22.274  0.00  0.00    +0.174 C 
ATOM      6  CB  UNL     1      34.099 -14.014 -23.691  0.00  0.00    +0.033 C 
BRANCH   5   8
ATOM      7  OXT UNL     1      31.936 -15.397 -21.248  0.00  0.00    -0.248 OA
ATOM      8  C   UNL     1      32.503 -14.476 -21.827  0.00  0.00    +0.332 C 
BRANCH   8   9
ATOM      9  O   UNL     1      31.874 -13.316 -22.131  0.00  0.00    -0.479 OA
ATOM     10  H   UNL     1      30.967 -13.206 -21.923  0.00  0.00    +0.295 HD
ENDBRANCH   8   9
ENDBRANCH   5   8
ENDBRANCH   2   5
BRANCH   3  11
ATOM     11  O   UNL     1      35.372 -17.729 -21.253  0.00  0.00    -0.430 OA
BRANCH  11  12
ATOM     12  C   UNL     1      34.355 -18.663 -21.629  0.00  0.00    +0.237 C 
BRANCH  12  13
ATOM     13  C   UNL     1      34.440 -19.867 -20.737  0.00  0.00    +0.021 C 
ATOM     14  C   UNL     1      35.686 -20.396 -20.415  0.00  0.00    -0.001 C 
ATOM     15  C   UNL     1      33.276 -20.441 -20.241  0.00  0.00    -0.001 C 
ATOM     16  C   UNL     1      35.766 -21.514 -19.585  0.00  0.00    -0.000 C 
ATOM     17  C   UNL     1      33.356 -21.560 -19.413  0.00  0.00    -0.000 C 
ATOM     18  C   UNL     1      34.601 -22.097 -19.085  0.00  0.00    -0.000 C 
ENDBRANCH  12  13
ENDBRANCH  11  12
ENDBRANCH   3  11
TORSDOF 6
ENDMDL
MODEL 6
REMARK VINA RESULT:      -7.9      7.103     10.449
REMARK  Name = 736104
REMARK  6 active torsions:
REMARK  status: ('A' for Active; 'I' for Inactive)
REMARK    1  A    between atoms: N_2  and  CA_5
REMARK    2  A    between atoms: C_3  and  O_11
REMARK    3  A    between atoms: CA_5  and  C_8
REMARK    4  A    between atoms: C_8  and  O_9
REMARK    5  A    between atoms: O_11  and  C_12
REMARK    6  A    between atoms: C_12  and  C_13
REMARK                            x       y       z     vdW  Elec       q    Type
REMARK                         _______ _______ _______ _____ _____    ______ ____
ROOT
ATOM      1  O   UNL     1      34.943 -15.360 -20.138  0.00  0.00    -0.226 OA
ATOM      2  N   UNL     1      34.382 -16.142 -22.248  0.00  0.00    -0.262 N 
ATOM      3  C   ACE A   0      34.869 -16.263 -20.964  0.00  0.00    +0.402 C 
ATOM      4  H   UNL     1      34.375 -16.944 -22.819  0.00  0.00    +0.153 HD
ENDROOT
BRANCH   2   5
ATOM      5  CA  UNL     1      33.883 -14.905 -22.803  0.00  0.00    +0.174 C 
ATOM      6  CB  UNL     1      33.674 -15.039 -24.304  0.00  0.00    +0.033 C 
BRANCH   5   8
ATOM      7  OXT UNL     1      32.107 -13.350 -22.285  0.00  0.00    -0.248 OA
ATOM      8  C   UNL     1      32.596 -14.464 -22.127  0.00  0.00    +0.332 C 
BRANCH   8   9
ATOM      9  O   UNL     1      32.033 -15.394 -21.321  0.00  0.00    -0.479 OA
ATOM     10  H   UNL     1      32.565 -16.054 -20.922  0.00  0.00    +0.295 HD
ENDBRANCH   8   9
ENDBRANCH   5   8
ENDBRANCH   2   5
BRANCH   3  11
ATOM     11  O   UNL     1      35.263 -17.552 -20.740  0.00  0.00    -0.430 OA
BRANCH  11  12
ATOM     12  C   UNL     1      34.558 -18.559 -21.475  0.00  0.00    +0.237 C 
BRANCH  12  13
ATOM     13  C   UNL     1      34.529 -19.825 -20.671  0.00  0.00    +0.021 C 
ATOM     14  C   UNL     1      33.309 -20.352 -20.263  0.00  0.00    -0.001 C 
ATOM     15  C   UNL     1      35.722 -20.459 -20.341  0.00  0.00    -0.001 C 
ATOM     16  C   UNL     1      33.281 -21.530 -19.516  0.00  0.00    -0.000 C 
ATOM     17  C   UNL     1      35.694 -21.635 -19.593  0.00  0.00    -0.000 C 
ATOM     18  C   UNL     1      34.474 -22.171 -19.180  0.00  0.00    -0.000 C 
ENDBRANCH  12  13
ENDBRANCH  11  12
ENDBRANCH   3  11
TORSDOF 6
ENDMDL
MODEL 7
REMARK VINA RESULT:      -7.7      1.677      2.816
REMARK  Name = 736104
REMARK  6 active torsions:
REMARK  status: ('A' for Active; 'I' for Inactive)
REMARK    1  A    between atoms: N_2  and  CA_5
REMARK    2  A    between atoms: C_3  and  O_11
REMARK    3  A    between atoms: CA_5  and  C_8
REMARK    4  A    between atoms: C_8  and  O_9
REMARK    5  A    between atoms: O_11  and  C_12
REMARK    6  A    between atoms: C_12  and  C_13
REMARK                            x       y       z     vdW  Elec       q    Type
REMARK                         _______ _______ _______ _____ _____    ______ ____
ROOT
ATOM      1  O   UNL     1      37.440 -22.883 -14.340  0.00  0.00    -0.226 OA
ATOM      2  N   UNL     1      38.129 -24.994 -15.009  0.00  0.00    -0.262 N 
ATOM      3  C   ACE A   0      37.317 -23.880 -15.042  0.00  0.00    +0.402 C 
ATOM      4  H   UNL     1      37.927 -25.735 -15.625  0.00  0.00    +0.153 HD
ENDROOT
BRANCH   2   5
ATOM      5  CA  UNL     1      39.260 -25.136 -14.120  0.00  0.00    +0.174 C 
ATOM      6  CB  UNL     1      38.826 -25.750 -12.797  0.00  0.00    +0.033 C 
BRANCH   5   8
ATOM      7  OXT UNL     1      41.163 -26.625 -14.090  0.00  0.00    -0.248 OA
ATOM      8  C   UNL     1      40.369 -25.963 -14.749  0.00  0.00    +0.332 C 
BRANCH   8   9
ATOM      9  O   UNL     1      40.422 -25.903 -16.100  0.00  0.00    -0.479 OA
ATOM     10  H   UNL     1      41.250 -25.863 -16.536  0.00  0.00    +0.295 HD
ENDBRANCH   8   9
ENDBRANCH   5   8
ENDBRANCH   2   5
BRANCH   3  11
ATOM     11  O   UNL     1      36.341 -24.050 -15.984  0.00  0.00    -0.430 OA
BRANCH  11  12
ATOM     12  C   UNL     1      35.587 -22.881 -16.321  0.00  0.00    +0.237 C 
BRANCH  12  13
ATOM     13  C   UNL     1      34.141 -23.120 -15.999  0.00  0.00    +0.021 C 
ATOM     14  C   UNL     1      33.188 -23.032 -17.009  0.00  0.00    -0.001 C 
ATOM     15  C   UNL     1      33.767 -23.429 -14.697  0.00  0.00    -0.001 C 
ATOM     16  C   UNL     1      31.844 -23.255 -16.711  0.00  0.00    -0.000 C 
ATOM     17  C   UNL     1      32.423 -23.651 -14.399  0.00  0.00    -0.000 C 
ATOM     18  C   UNL     1      31.461 -23.564 -15.406  0.00  0.00    -0.000 C 
ENDBRANCH  12  13
ENDBRANCH  11  12
ENDBRANCH   3  11
TORSDOF 6
ENDMDL
MODEL 8
REMARK VINA RESULT:      -7.6      4.302      6.226
REMARK  Name = 736104
REMARK  6 active torsions:
REMARK  status: ('A' for Active; 'I' for Inactive)
REMARK    1  A    between atoms: N_2  and  CA_5
REMARK    2  A    between atoms: C_3  and  O_11
REMARK    3  A    between atoms: CA_5  and  C_8
REMARK    4  A    between atoms: C_8  and  O_9
REMARK    5  A    between atoms: O_11  and  C_12
REMARK    6  A    between atoms: C_12  and  C_13
REMARK                            x       y       z     vdW  Elec       q    Type
REMARK                         _______ _______ _______ _____ _____    ______ ____
ROOT
ATOM      1  O   UNL     1      34.581 -24.229 -15.935  0.00  0.00    -0.226 OA
ATOM      2  N   UNL     1      32.611 -23.188 -16.577  0.00  0.00    -0.262 N 
ATOM      3  C   ACE A   0      33.951 -23.493 -16.686  0.00  0.00    +0.402 C 
ATOM      4  H   UNL     1      32.217 -22.581 -17.244  0.00  0.00    +0.153 HD
ENDROOT
BRANCH   2   5
ATOM      5  CA  UNL     1      31.752 -23.707 -15.537  0.00  0.00    +0.174 C 
ATOM      6  CB  UNL     1      31.830 -22.835 -14.293  0.00  0.00    +0.033 C 
BRANCH   5   8
ATOM      7  OXT UNL     1      29.576 -24.752 -15.667  0.00  0.00    -0.248 OA
ATOM      8  C   UNL     1      30.312 -23.831 -16.007  0.00  0.00    +0.332 C 
BRANCH   8   9
ATOM      9  O   UNL     1      29.904 -22.850 -16.846  0.00  0.00    -0.479 OA
ATOM     10  H   UNL     1      30.150 -21.961 -16.682  0.00  0.00    +0.295 HD
ENDBRANCH   8   9
ENDBRANCH   5   8
ENDBRANCH   2   5
BRANCH   3  11
ATOM     11  O   UNL     1      34.483 -22.849 -17.767  0.00  0.00    -0.430 OA
BRANCH  11  12
ATOM     12  C   UNL     1      33.564 -22.520 -18.815  0.00  0.00    +0.237 C 
BRANCH  12  13
ATOM     13  C   UNL     1      34.127 -21.390 -19.625  0.00  0.00    +0.021 C 
ATOM     14  C   UNL     1      35.506 -21.249 -19.742  0.00  0.00    -0.001 C 
ATOM     15  C   UNL     1      33.267 -20.495 -20.251  0.00  0.00    -0.001 C 
ATOM     16  C   UNL     1      36.031 -20.198 -20.496  0.00  0.00    -0.000 C 
ATOM     17  C   UNL     1      33.792 -19.445 -21.004  0.00  0.00    -0.000 C 
ATOM     18  C   UNL     1      35.174 -19.296 -21.126  0.00  0.00    -0.000 C 
ENDBRANCH  12  13
ENDBRANCH  11  12
ENDBRANCH   3  11
TORSDOF 6
ENDMDL
MODEL 9
REMARK VINA RESULT:      -7.6      6.347      8.932
REMARK  Name = 736104
REMARK  6 active torsions:
REMARK  status: ('A' for Active; 'I' for Inactive)
REMARK    1  A    between atoms: N_2  and  CA_5
REMARK    2  A    between atoms: C_3  and  O_11
REMARK    3  A    between atoms: CA_5  and  C_8
REMARK    4  A    between atoms: C_8  and  O_9
REMARK    5  A    between atoms: O_11  and  C_12
REMARK    6  A    between atoms: C_12  and  C_13
REMARK                            x       y       z     vdW  Elec       q    Type
REMARK                         _______ _______ _______ _____ _____    ______ ____
ROOT
ATOM      1  O   UNL     1      34.882 -19.457 -22.918  0.00  0.00    -0.226 OA
ATOM      2  N   UNL     1      35.173 -19.435 -20.617  0.00  0.00    -0.262 N 
ATOM      3  C   ACE A   0      35.178 -18.878 -21.878  0.00  0.00    +0.402 C 
ATOM      4  H   UNL     1      35.432 -18.866 -19.857  0.00  0.00    +0.153 HD
ENDROOT
BRANCH   2   5
ATOM      5  CA  UNL     1      34.808 -20.807 -20.347  0.00  0.00    +0.174 C 
ATOM      6  CB  UNL     1      35.712 -21.401 -19.277  0.00  0.00    +0.033 C 
BRANCH   5   8
ATOM      7  OXT UNL     1      32.528 -20.040 -20.119  0.00  0.00    -0.248 OA
ATOM      8  C   UNL     1      33.350 -20.932 -19.937  0.00  0.00    +0.332 C 
BRANCH   8   9
ATOM      9  O   UNL     1      33.028 -22.104 -19.340  0.00  0.00    -0.479 OA
ATOM     10  H   UNL     1      33.062 -22.903 -19.828  0.00  0.00    +0.295 HD
ENDBRANCH   8   9
ENDBRANCH   5   8
ENDBRANCH   2   5
BRANCH   3  11
ATOM     11  O   UNL     1      35.567 -17.571 -21.802  0.00  0.00    -0.430 OA
BRANCH  11  12
ATOM     12  C   UNL     1      34.875 -16.767 -20.840  0.00  0.00    +0.237 C 
BRANCH  12  13
ATOM     13  C   UNL     1      34.156 -15.659 -21.553  0.00  0.00    +0.021 C 
ATOM     14  C   UNL     1      34.580 -15.268 -22.819  0.00  0.00    -0.001 C 
ATOM     15  C   UNL     1      33.074 -15.036 -20.943  0.00  0.00    -0.001 C 
ATOM     16  C   UNL     1      33.911 -14.238 -23.482  0.00  0.00    -0.000 C 
ATOM     17  C   UNL     1      32.406 -14.007 -21.606  0.00  0.00    -0.000 C 
ATOM     18  C   UNL     1      32.825 -13.608 -22.875  0.00  0.00    -0.000 C 
ENDBRANCH  12  13
ENDBRANCH  11  12
ENDBRANCH   3  11
TORSDOF 6
ENDMDL
