MODEL 1
REMARK VINA RESULT:     -10.4      0.000      0.000
REMARK  Name = 25113172
REMARK  6 active torsions:
REMARK  status: ('A' for Active; 'I' for Inactive)
REMARK    1  A    between atoms: N_1  and  C_9
REMARK    2  A    between atoms: C_4  and  C_21
REMARK    3  A    between atoms: C_19  and  C_25
REMARK    4  A    between atoms: N_24  and  CA_27
REMARK    5  A    between atoms: CA_27  and  C_29
REMARK    6  A    between atoms: C_29  and  O_30
REMARK                            x       y       z     vdW  Elec       q    Type
REMARK                         _______ _______ _______ _____ _____    ______ ____
ROOT
ATOM      1  N   UNL     1      32.018 -22.714 -17.761  0.00  0.00    -0.247 N 
ATOM      2  N   UNL     1      33.027 -23.431 -15.767  0.00  0.00    -0.334 NA
ATOM      3  N   UNL     1      30.688 -23.833 -16.185  0.00  0.00    -0.170 NA
ATOM      4  C   UNL     1      32.882 -24.053 -14.578  0.00  0.00    +0.181 C 
ATOM      5  C   UNL     1      31.905 -23.357 -16.509  0.00  0.00    +0.149 C 
ATOM      6  C   UNL     1      31.690 -24.583 -14.129  0.00  0.00    +0.058 C 
ATOM      7  C   UNL     1      30.615 -24.442 -14.983  0.00  0.00    +0.114 C 
ATOM      8  H   UNL     1      31.176 -22.685 -18.269  0.00  0.00    +0.165 HD
ENDROOT
BRANCH   1   9
ATOM      9  C   UNL     1      33.100 -22.108 -18.425  0.00  0.00    +0.057 C 
ATOM     10  C   UNL     1      35.479 -21.753 -18.658  0.00  0.00    -0.021 C 
ATOM     11  C   UNL     1      33.941 -20.658 -20.166  0.00  0.00    -0.021 C 
ATOM     12  C   UNL     1      32.868 -21.259 -19.508  0.00  0.00    +0.011 C 
ATOM     13  C   UNL     1      34.405 -22.355 -18.001  0.00  0.00    +0.011 C 
ATOM     14  C   UNL     1      35.246 -20.906 -19.741  0.00  0.00    -0.008 C 
ATOM     15  C   UNL     1      36.875 -22.017 -18.204  0.00  0.00    +0.031 C 
ATOM     16  C   UNL     1      33.693 -19.753 -21.325  0.00  0.00    +0.031 C 
ENDBRANCH   1   9
BRANCH   4  21
ATOM     17  S   UNL     1      35.603 -24.092 -14.590  0.00  0.00    -0.065 S 
ATOM     18  N   UNL     1      34.122 -24.230 -12.476  0.00  0.00    -0.400 NA
ATOM     19  C   UNL     1      36.386 -24.219 -13.070  0.00  0.00    +0.178 C 
ATOM     20  C   UNL     1      35.441 -24.280 -12.066  0.00  0.00    +0.107 C 
ATOM     21  C   UNL     1      34.087 -24.130 -13.786  0.00  0.00    +0.187 C 
ATOM     22  C   UNL     1      35.713 -24.393 -10.619  0.00  0.00    +0.063 C 
BRANCH  19  25
ATOM     23  O   UNL     1      38.440 -23.631 -12.104  0.00  0.00    -0.274 OA
ATOM     24  N   UNL     1      38.505 -25.009 -13.968  0.00  0.00    -0.302 N 
ATOM     25  C   ACE A   0      37.869 -24.248 -13.000  0.00  0.00    +0.239 C 
ATOM     26  H   UNL     1      37.957 -25.467 -14.647  0.00  0.00    +0.149 HD
BRANCH  24  27
ATOM     27  CA  UNL     1      39.942 -25.156 -14.018  0.00  0.00    +0.101 C 
ATOM     28  CB  UNL     1      40.330 -26.581 -13.648  0.00  0.00    +0.024 C 
BRANCH  27  29
ATOM     29  C   UNL     1      40.474 -24.780 -15.399  0.00  0.00    +0.157 C 
BRANCH  29  30
ATOM     30  O   UNL     1      40.546 -25.947 -16.211  0.00  0.00    -0.380 OA
ATOM     31  H   UNL     1      41.214 -26.551 -15.850  0.00  0.00    +0.211 HD
ENDBRANCH  29  30
ENDBRANCH  27  29
ENDBRANCH  24  27
ENDBRANCH  19  25
ENDBRANCH   4  21
TORSDOF 6
ENDMDL
MODEL 2
REMARK VINA RESULT:     -10.4      0.051      1.619
REMARK  Name = 25113172
REMARK  6 active torsions:
REMARK  status: ('A' for Active; 'I' for Inactive)
REMARK    1  A    between atoms: N_1  and  C_9
REMARK    2  A    between atoms: C_4  and  C_21
REMARK    3  A    between atoms: C_19  and  C_25
REMARK    4  A    between atoms: N_24  and  CA_27
REMARK    5  A    between atoms: CA_27  and  C_29
REMARK    6  A    between atoms: C_29  and  O_30
REMARK                            x       y       z     vdW  Elec       q    Type
REMARK                         _______ _______ _______ _____ _____    ______ ____
ROOT
ATOM      1  N   UNL     1      31.993 -22.765 -17.728  0.00  0.00    -0.247 N 
ATOM      2  N   UNL     1      33.019 -23.473 -15.741  0.00  0.00    -0.334 NA
ATOM      3  N   UNL     1      30.681 -23.896 -16.144  0.00  0.00    -0.170 NA
ATOM      4  C   UNL     1      32.888 -24.096 -14.551  0.00  0.00    +0.181 C 
ATOM      5  C   UNL     1      31.893 -23.409 -16.476  0.00  0.00    +0.149 C 
ATOM      6  C   UNL     1      31.703 -24.636 -14.093  0.00  0.00    +0.058 C 
ATOM      7  C   UNL     1      30.622 -24.505 -14.942  0.00  0.00    +0.114 C 
ATOM      8  H   UNL     1      31.147 -22.744 -18.231  0.00  0.00    +0.165 HD
ENDROOT
BRANCH   1   9
ATOM      9  C   UNL     1      33.065 -22.150 -18.399  0.00  0.00    +0.057 C 
ATOM     10  C   UNL     1      33.878 -20.686 -20.141  0.00  0.00    -0.021 C 
ATOM     11  C   UNL     1      35.439 -21.783 -18.659  0.00  0.00    -0.021 C 
ATOM     12  C   UNL     1      34.376 -22.393 -17.992  0.00  0.00    +0.011 C 
ATOM     13  C   UNL     1      32.815 -21.296 -19.473  0.00  0.00    +0.011 C 
ATOM     14  C   UNL     1      35.189 -20.929 -19.733  0.00  0.00    -0.008 C 
ATOM     15  C   UNL     1      33.612 -19.773 -21.291  0.00  0.00    +0.031 C 
ATOM     16  C   UNL     1      36.841 -22.042 -18.222  0.00  0.00    +0.031 C 
ENDBRANCH   1   9
BRANCH   4  21
ATOM     17  S   UNL     1      35.609 -24.115 -14.579  0.00  0.00    -0.065 S 
ATOM     18  N   UNL     1      34.142 -24.258 -12.455  0.00  0.00    -0.400 NA
ATOM     19  C   UNL     1      36.402 -24.233 -13.063  0.00  0.00    +0.178 C 
ATOM     20  C   UNL     1      35.463 -24.298 -12.054  0.00  0.00    +0.107 C 
ATOM     21  C   UNL     1      34.098 -24.163 -13.766  0.00  0.00    +0.187 C 
ATOM     22  C   UNL     1      35.745 -24.405 -10.608  0.00  0.00    +0.063 C 
BRANCH  19  25
ATOM     23  O   UNL     1      38.459 -23.608 -12.127  0.00  0.00    -0.274 OA
ATOM     24  N   UNL     1      38.520 -25.033 -13.955  0.00  0.00    -0.302 N 
ATOM     25  C   ACE A   0      37.885 -24.251 -13.002  0.00  0.00    +0.239 C 
ATOM     26  H   UNL     1      37.970 -25.511 -14.618  0.00  0.00    +0.149 HD
BRANCH  24  27
ATOM     27  CA  UNL     1      39.957 -25.172 -14.011  0.00  0.00    +0.101 C 
ATOM     28  CB  UNL     1      40.354 -26.597 -13.648  0.00  0.00    +0.024 C 
BRANCH  27  29
ATOM     29  C   UNL     1      40.483 -24.788 -15.392  0.00  0.00    +0.157 C 
BRANCH  29  30
ATOM     30  O   UNL     1      40.537 -25.947 -16.215  0.00  0.00    -0.380 OA
ATOM     31  H   UNL     1      40.108 -26.688 -15.759  0.00  0.00    +0.211 HD
ENDBRANCH  29  30
ENDBRANCH  27  29
ENDBRANCH  24  27
ENDBRANCH  19  25
ENDBRANCH   4  21
TORSDOF 6
ENDMDL
MODEL 3
REMARK VINA RESULT:      -9.9      3.967      7.083
REMARK  Name = 25113172
REMARK  6 active torsions:
REMARK  status: ('A' for Active; 'I' for Inactive)
REMARK    1  A    between atoms: N_1  and  C_9
REMARK    2  A    between atoms: C_4  and  C_21
REMARK    3  A    between atoms: C_19  and  C_25
REMARK    4  A    between atoms: N_24  and  CA_27
REMARK    5  A    between atoms: CA_27  and  C_29
REMARK    6  A    between atoms: C_29  and  O_30
REMARK                            x       y       z     vdW  Elec       q    Type
REMARK                         _______ _______ _______ _____ _____    ______ ____
ROOT
ATOM      1  N   UNL     1      36.910 -21.649 -18.101  0.00  0.00    -0.247 N 
ATOM      2  N   UNL     1      35.260 -22.541 -16.691  0.00  0.00    -0.334 NA
ATOM      3  N   UNL     1      37.600 -22.823 -16.190  0.00  0.00    -0.170 NA
ATOM      4  C   UNL     1      34.975 -23.237 -15.571  0.00  0.00    +0.181 C 
ATOM      5  C   UNL     1      36.573 -22.374 -16.937  0.00  0.00    +0.149 C 
ATOM      6  C   UNL     1      35.933 -23.751 -14.721  0.00  0.00    +0.058 C 
ATOM      7  C   UNL     1      37.243 -23.510 -15.085  0.00  0.00    +0.114 C 
ATOM      8  H   UNL     1      37.879 -21.550 -18.239  0.00  0.00    +0.165 HD
ENDROOT
BRANCH   1   9
ATOM      9  C   UNL     1      36.131 -21.039 -19.101  0.00  0.00    +0.057 C 
ATOM     10  C   UNL     1      33.999 -20.732 -20.196  0.00  0.00    -0.021 C 
ATOM     11  C   UNL     1      35.945 -19.535 -20.983  0.00  0.00    -0.021 C 
ATOM     12  C   UNL     1      36.717 -20.139 -19.991  0.00  0.00    +0.011 C 
ATOM     13  C   UNL     1      34.772 -21.336 -19.204  0.00  0.00    +0.011 C 
ATOM     14  C   UNL     1      34.585 -19.832 -21.085  0.00  0.00    -0.008 C 
ATOM     15  C   UNL     1      32.546 -21.050 -20.306  0.00  0.00    +0.031 C 
ATOM     16  C   UNL     1      36.571 -18.571 -21.933  0.00  0.00    +0.031 C 
ENDBRANCH   1   9
BRANCH   4  21
ATOM     17  S   UNL     1      32.492 -23.537 -16.645  0.00  0.00    -0.065 S 
ATOM     18  N   UNL     1      33.023 -23.490 -14.116  0.00  0.00    -0.400 NA
ATOM     19  C   UNL     1      31.186 -23.706 -15.548  0.00  0.00    +0.178 C 
ATOM     20  C   UNL     1      31.659 -23.658 -14.253  0.00  0.00    +0.107 C 
ATOM     21  C   UNL     1      33.565 -23.414 -15.311  0.00  0.00    +0.187 C 
ATOM     22  C   UNL     1      30.847 -23.768 -13.024  0.00  0.00    +0.063 C 
BRANCH  19  25
ATOM     23  O   UNL     1      29.476 -24.939 -16.577  0.00  0.00    -0.274 OA
ATOM     24  N   UNL     1      28.962 -22.782 -15.898  0.00  0.00    -0.302 N 
ATOM     25  C   ACE A   0      29.803 -23.871 -16.063  0.00  0.00    +0.239 C 
ATOM     26  H   UNL     1      29.319 -21.968 -15.474  0.00  0.00    +0.149 HD
BRANCH  24  27
ATOM     27  CA  UNL     1      27.581 -22.797 -16.325  0.00  0.00    +0.101 C 
ATOM     28  CB  UNL     1      26.729 -21.995 -15.351  0.00  0.00    +0.024 C 
BRANCH  27  29
ATOM     29  C   UNL     1      27.450 -22.255 -17.747  0.00  0.00    +0.157 C 
BRANCH  29  30
ATOM     30  O   UNL     1      26.722 -21.033 -17.721  0.00  0.00    -0.380 OA
ATOM     31  H   UNL     1      26.927 -20.517 -18.517  0.00  0.00    +0.211 HD
ENDBRANCH  29  30
ENDBRANCH  27  29
ENDBRANCH  24  27
ENDBRANCH  19  25
ENDBRANCH   4  21
TORSDOF 6
ENDMDL
MODEL 4
REMARK VINA RESULT:      -9.9      3.940      7.040
REMARK  Name = 25113172
REMARK  6 active torsions:
REMARK  status: ('A' for Active; 'I' for Inactive)
REMARK    1  A    between atoms: N_1  and  C_9
REMARK    2  A    between atoms: C_4  and  C_21
REMARK    3  A    between atoms: C_19  and  C_25
REMARK    4  A    between atoms: N_24  and  CA_27
REMARK    5  A    between atoms: CA_27  and  C_29
REMARK    6  A    between atoms: C_29  and  O_30
REMARK                            x       y       z     vdW  Elec       q    Type
REMARK                         _______ _______ _______ _____ _____    ______ ____
ROOT
ATOM      1  N   UNL     1      36.933 -21.673 -18.062  0.00  0.00    -0.247 N 
ATOM      2  N   UNL     1      35.292 -22.571 -16.646  0.00  0.00    -0.334 NA
ATOM      3  N   UNL     1      37.635 -22.842 -16.152  0.00  0.00    -0.170 NA
ATOM      4  C   UNL     1      35.014 -23.267 -15.524  0.00  0.00    +0.181 C 
ATOM      5  C   UNL     1      36.604 -22.398 -16.897  0.00  0.00    +0.149 C 
ATOM      6  C   UNL     1      35.977 -23.776 -14.677  0.00  0.00    +0.058 C 
ATOM      7  C   UNL     1      37.285 -23.530 -15.046  0.00  0.00    +0.114 C 
ATOM      8  H   UNL     1      37.902 -21.570 -18.204  0.00  0.00    +0.165 HD
ENDROOT
BRANCH   1   9
ATOM      9  C   UNL     1      36.149 -21.067 -19.060  0.00  0.00    +0.057 C 
ATOM     10  C   UNL     1      35.950 -19.554 -20.933  0.00  0.00    -0.021 C 
ATOM     11  C   UNL     1      34.014 -20.773 -20.155  0.00  0.00    -0.021 C 
ATOM     12  C   UNL     1      34.792 -21.375 -19.166  0.00  0.00    +0.011 C 
ATOM     13  C   UNL     1      36.727 -20.157 -19.944  0.00  0.00    +0.011 C 
ATOM     14  C   UNL     1      34.594 -19.863 -21.039  0.00  0.00    -0.008 C 
ATOM     15  C   UNL     1      36.569 -18.579 -21.878  0.00  0.00    +0.031 C 
ATOM     16  C   UNL     1      32.565 -21.104 -20.269  0.00  0.00    +0.031 C 
ENDBRANCH   1   9
BRANCH   4  21
ATOM     17  S   UNL     1      32.527 -23.564 -16.589  0.00  0.00    -0.065 S 
ATOM     18  N   UNL     1      33.070 -23.537 -14.062  0.00  0.00    -0.400 NA
ATOM     19  C   UNL     1      31.226 -23.746 -15.487  0.00  0.00    +0.178 C 
ATOM     20  C   UNL     1      31.706 -23.708 -14.194  0.00  0.00    +0.107 C 
ATOM     21  C   UNL     1      33.606 -23.450 -15.259  0.00  0.00    +0.187 C 
ATOM     22  C   UNL     1      30.899 -23.830 -12.963  0.00  0.00    +0.063 C 
BRANCH  19  25
ATOM     23  O   UNL     1      29.508 -24.982 -16.497  0.00  0.00    -0.274 OA
ATOM     24  N   UNL     1      29.006 -22.815 -15.843  0.00  0.00    -0.302 N 
ATOM     25  C   ACE A   0      29.841 -23.910 -15.997  0.00  0.00    +0.239 C 
ATOM     26  H   UNL     1      29.368 -21.997 -15.430  0.00  0.00    +0.149 HD
BRANCH  24  27
ATOM     27  CA  UNL     1      27.625 -22.828 -16.267  0.00  0.00    +0.101 C 
ATOM     28  CB  UNL     1      26.774 -22.034 -15.284  0.00  0.00    +0.024 C 
BRANCH  27  29
ATOM     29  C   UNL     1      27.490 -22.274 -17.684  0.00  0.00    +0.157 C 
BRANCH  29  30
ATOM     30  O   UNL     1      26.708 -21.086 -17.654  0.00  0.00    -0.380 OA
ATOM     31  H   UNL     1      27.153 -20.393 -18.168  0.00  0.00    +0.211 HD
ENDBRANCH  29  30
ENDBRANCH  27  29
ENDBRANCH  24  27
ENDBRANCH  19  25
ENDBRANCH   4  21
TORSDOF 6
ENDMDL
MODEL 5
REMARK VINA RESULT:      -9.6      9.211     13.061
REMARK  Name = 25113172
REMARK  6 active torsions:
REMARK  status: ('A' for Active; 'I' for Inactive)
REMARK    1  A    between atoms: N_1  and  C_9
REMARK    2  A    between atoms: C_4  and  C_21
REMARK    3  A    between atoms: C_19  and  C_25
REMARK    4  A    between atoms: N_24  and  CA_27
REMARK    5  A    between atoms: CA_27  and  C_29
REMARK    6  A    between atoms: C_29  and  O_30
REMARK                            x       y       z     vdW  Elec       q    Type
REMARK                         _______ _______ _______ _____ _____    ______ ____
ROOT
ATOM      1  N   UNL     1      32.790  -9.868 -23.792  0.00  0.00    -0.247 N 
ATOM      2  N   UNL     1      33.451 -12.113 -23.624  0.00  0.00    -0.334 NA
ATOM      3  N   UNL     1      33.388 -10.998 -25.760  0.00  0.00    -0.170 NA
ATOM      4  C   UNL     1      33.872 -13.226 -24.261  0.00  0.00    +0.181 C 
ATOM      5  C   UNL     1      33.231 -11.051 -24.423  0.00  0.00    +0.149 C 
ATOM      6  C   UNL     1      34.072 -13.303 -25.624  0.00  0.00    +0.058 C 
ATOM      7  C   UNL     1      33.811 -12.145 -26.330  0.00  0.00    +0.114 C 
ATOM      8  H   UNL     1      32.644  -9.119 -24.413  0.00  0.00    +0.165 HD
ENDROOT
BRANCH   1   9
ATOM      9  C   UNL     1      32.520  -9.549 -22.449  0.00  0.00    +0.057 C 
ATOM     10  C   UNL     1      31.770 -10.216 -20.250  0.00  0.00    -0.021 C 
ATOM     11  C   UNL     1      32.463  -7.936 -20.651  0.00  0.00    -0.021 C 
ATOM     12  C   UNL     1      32.731  -8.252 -21.982  0.00  0.00    +0.011 C 
ATOM     13  C   UNL     1      32.039 -10.532 -21.583  0.00  0.00    +0.011 C 
ATOM     14  C   UNL     1      31.983  -8.919 -19.785  0.00  0.00    -0.008 C 
ATOM     15  C   UNL     1      31.255 -11.266 -19.325  0.00  0.00    +0.031 C 
ATOM     16  C   UNL     1      32.692  -6.549 -20.152  0.00  0.00    +0.031 C 
ENDBRANCH   1   9
BRANCH   4  21
ATOM     17  S   UNL     1      34.163 -15.927 -24.103  0.00  0.00    -0.065 S 
ATOM     18  N   UNL     1      34.287 -14.298 -22.100  0.00  0.00    -0.400 NA
ATOM     19  C   UNL     1      34.449 -16.589 -22.547  0.00  0.00    +0.178 C 
ATOM     20  C   UNL     1      34.483 -15.575 -21.612  0.00  0.00    +0.107 C 
ATOM     21  C   UNL     1      34.108 -14.362 -23.401  0.00  0.00    +0.187 C 
ATOM     22  C   UNL     1      34.706 -15.736 -20.161  0.00  0.00    +0.063 C 
BRANCH  19  25
ATOM     23  O   UNL     1      35.280 -18.680 -23.208  0.00  0.00    -0.274 OA
ATOM     24  N   UNL     1      34.005 -18.614 -21.273  0.00  0.00    -0.302 N 
ATOM     25  C   ACE A   0      34.615 -18.056 -22.385  0.00  0.00    +0.239 C 
ATOM     26  H   UNL     1      33.490 -18.028 -20.671  0.00  0.00    +0.149 HD
BRANCH  24  27
ATOM     27  CA  UNL     1      34.095 -20.023 -20.965  0.00  0.00    +0.101 C 
ATOM     28  CB  UNL     1      35.445 -20.328 -20.329  0.00  0.00    +0.024 C 
BRANCH  27  29
ATOM     29  C   UNL     1      32.947 -20.450 -20.053  0.00  0.00    +0.157 C 
BRANCH  29  30
ATOM     30  O   UNL     1      32.905 -21.871 -19.981  0.00  0.00    -0.380 OA
ATOM     31  H   UNL     1      32.951 -22.241 -20.877  0.00  0.00    +0.211 HD
ENDBRANCH  29  30
ENDBRANCH  27  29
ENDBRANCH  24  27
ENDBRANCH  19  25
ENDBRANCH   4  21
TORSDOF 6
ENDMDL
MODEL 6
REMARK VINA RESULT:      -9.5     11.178     15.843
REMARK  Name = 25113172
REMARK  6 active torsions:
REMARK  status: ('A' for Active; 'I' for Inactive)
REMARK    1  A    between atoms: N_1  and  C_9
REMARK    2  A    between atoms: C_4  and  C_21
REMARK    3  A    between atoms: C_19  and  C_25
REMARK    4  A    between atoms: N_24  and  CA_27
REMARK    5  A    between atoms: CA_27  and  C_29
REMARK    6  A    between atoms: C_29  and  O_30
REMARK                            x       y       z     vdW  Elec       q    Type
REMARK                         _______ _______ _______ _____ _____    ______ ____
ROOT
ATOM      1  N   UNL     1      33.952 -15.905 -24.760  0.00  0.00    -0.247 N 
ATOM      2  N   UNL     1      33.765 -13.567 -24.716  0.00  0.00    -0.334 NA
ATOM      3  N   UNL     1      33.634 -14.780 -26.794  0.00  0.00    -0.170 NA
ATOM      4  C   UNL     1      33.594 -12.425 -25.415  0.00  0.00    +0.181 C 
ATOM      5  C   UNL     1      33.776 -14.691 -25.458  0.00  0.00    +0.149 C 
ATOM      6  C   UNL     1      33.438 -12.380 -26.785  0.00  0.00    +0.058 C 
ATOM      7  C   UNL     1      33.467 -13.601 -27.429  0.00  0.00    +0.114 C 
ATOM      8  H   UNL     1      33.951 -16.700 -25.341  0.00  0.00    +0.165 HD
ENDROOT
BRANCH   1   9
ATOM      9  C   UNL     1      34.127 -16.203 -23.396  0.00  0.00    +0.057 C 
ATOM     10  C   UNL     1      33.576 -15.797 -21.079  0.00  0.00    -0.021 C 
ATOM     11  C   UNL     1      35.197 -17.493 -21.655  0.00  0.00    -0.021 C 
ATOM     12  C   UNL     1      35.024 -17.198 -23.007  0.00  0.00    +0.011 C 
ATOM     13  C   UNL     1      33.403 -15.503 -22.432  0.00  0.00    +0.011 C 
ATOM     14  C   UNL     1      34.472 -16.792 -20.691  0.00  0.00    -0.008 C 
ATOM     15  C   UNL     1      32.802 -15.047 -20.047  0.00  0.00    +0.031 C 
ATOM     16  C   UNL     1      36.155 -18.558 -21.240  0.00  0.00    +0.031 C 
ENDBRANCH   1   9
BRANCH   4  21
ATOM     17  S   UNL     1      32.375 -11.050 -23.407  0.00  0.00    -0.065 S 
ATOM     18  N   UNL     1      34.435 -10.230 -24.737  0.00  0.00    -0.400 NA
ATOM     19  C   UNL     1      33.035  -9.520 -23.002  0.00  0.00    +0.178 C 
ATOM     20  C   UNL     1      34.120  -9.254 -23.811  0.00  0.00    +0.107 C 
ATOM     21  C   UNL     1      33.583 -11.223 -24.615  0.00  0.00    +0.187 C 
ATOM     22  C   UNL     1      34.958  -8.039 -23.772  0.00  0.00    +0.063 C 
BRANCH  19  25
ATOM     23  O   UNL     1      32.396  -9.159 -20.774  0.00  0.00    -0.274 OA
ATOM     24  N   UNL     1      31.927  -7.472 -22.294  0.00  0.00    -0.302 N 
ATOM     25  C   ACE A   0      32.420  -8.712 -21.918  0.00  0.00    +0.239 C 
ATOM     26  H   UNL     1      31.991  -7.203 -23.239  0.00  0.00    +0.149 HD
BRANCH  24  27
ATOM     27  CA  UNL     1      31.321  -6.560 -21.349  0.00  0.00    +0.101 C 
ATOM     28  CB  UNL     1      32.395  -5.948 -20.460  0.00  0.00    +0.024 C 
BRANCH  27  29
ATOM     29  C   UNL     1      30.527  -5.479 -22.078  0.00  0.00    +0.157 C 
BRANCH  29  30
ATOM     30  O   UNL     1      31.296  -4.283 -22.132  0.00  0.00    -0.380 OA
ATOM     31  H   UNL     1      30.705  -3.523 -22.249  0.00  0.00    +0.211 HD
ENDBRANCH  29  30
ENDBRANCH  27  29
ENDBRANCH  24  27
ENDBRANCH  19  25
ENDBRANCH   4  21
TORSDOF 6
ENDMDL
MODEL 7
REMARK VINA RESULT:      -9.5     10.933     14.833
REMARK  Name = 25113172
REMARK  6 active torsions:
REMARK  status: ('A' for Active; 'I' for Inactive)
REMARK    1  A    between atoms: N_1  and  C_9
REMARK    2  A    between atoms: C_4  and  C_21
REMARK    3  A    between atoms: C_19  and  C_25
REMARK    4  A    between atoms: N_24  and  CA_27
REMARK    5  A    between atoms: CA_27  and  C_29
REMARK    6  A    between atoms: C_29  and  O_30
REMARK                            x       y       z     vdW  Elec       q    Type
REMARK                         _______ _______ _______ _____ _____    ______ ____
ROOT
ATOM      1  N   UNL     1      31.764  -8.223 -21.184  0.00  0.00    -0.247 N 
ATOM      2  N   UNL     1      32.223 -10.432 -21.830  0.00  0.00    -0.334 NA
ATOM      3  N   UNL     1      31.314  -9.943 -19.652  0.00  0.00    -0.170 NA
ATOM      4  C   UNL     1      32.212 -11.740 -21.499  0.00  0.00    +0.181 C 
ATOM      5  C   UNL     1      31.768  -9.600 -20.873  0.00  0.00    +0.149 C 
ATOM      6  C   UNL     1      31.774 -12.221 -20.282  0.00  0.00    +0.058 C 
ATOM      7  C   UNL     1      31.331 -11.266 -19.389  0.00  0.00    +0.114 C 
ATOM      8  H   UNL     1      31.422  -7.654 -20.458  0.00  0.00    +0.165 HD
ENDROOT
BRANCH   1   9
ATOM      9  C   UNL     1      32.152  -7.505 -22.330  0.00  0.00    +0.057 C 
ATOM     10  C   UNL     1      31.669  -5.852 -24.025  0.00  0.00    -0.021 C 
ATOM     11  C   UNL     1      33.784  -7.021 -24.045  0.00  0.00    -0.021 C 
ATOM     12  C   UNL     1      33.400  -7.733 -22.909  0.00  0.00    +0.011 C 
ATOM     13  C   UNL     1      31.286  -6.565 -22.888  0.00  0.00    +0.011 C 
ATOM     14  C   UNL     1      32.917  -6.080 -24.603  0.00  0.00    -0.008 C 
ATOM     15  C   UNL     1      30.743  -4.847 -24.623  0.00  0.00    +0.031 C 
ATOM     16  C   UNL     1      35.119  -7.263 -24.663  0.00  0.00    +0.031 C 
ENDBRANCH   1   9
BRANCH   4  21
ATOM     17  S   UNL     1      33.291 -14.173 -22.067  0.00  0.00    -0.065 S 
ATOM     18  N   UNL     1      32.732 -12.349 -23.812  0.00  0.00    -0.400 NA
ATOM     19  C   UNL     1      33.623 -14.511 -23.716  0.00  0.00    +0.178 C 
ATOM     20  C   UNL     1      33.260 -13.429 -24.492  0.00  0.00    +0.107 C 
ATOM     21  C   UNL     1      32.701 -12.628 -22.528  0.00  0.00    +0.187 C 
ATOM     22  C   UNL     1      33.388 -13.329 -25.960  0.00  0.00    +0.063 C 
BRANCH  19  25
ATOM     23  O   UNL     1      34.170 -16.175 -25.274  0.00  0.00    -0.274 OA
ATOM     24  N   UNL     1      34.804 -16.539 -23.074  0.00  0.00    -0.302 N 
ATOM     25  C   ACE A   0      34.214 -15.817 -24.100  0.00  0.00    +0.239 C 
ATOM     26  H   UNL     1      34.787 -16.167 -22.162  0.00  0.00    +0.149 HD
BRANCH  24  27
ATOM     27  CA  UNL     1      35.443 -17.817 -23.293  0.00  0.00    +0.101 C 
ATOM     28  CB  UNL     1      36.296 -18.182 -22.086  0.00  0.00    +0.024 C 
BRANCH  27  29
ATOM     29  C   UNL     1      34.402 -18.898 -23.580  0.00  0.00    +0.157 C 
BRANCH  29  30
ATOM     30  O   UNL     1      34.337 -19.129 -24.982  0.00  0.00    -0.380 OA
ATOM     31  H   UNL     1      33.685 -18.531 -25.379  0.00  0.00    +0.211 HD
ENDBRANCH  29  30
ENDBRANCH  27  29
ENDBRANCH  24  27
ENDBRANCH  19  25
ENDBRANCH   4  21
TORSDOF 6
ENDMDL
MODEL 8
REMARK VINA RESULT:      -9.5      9.174     13.057
REMARK  Name = 25113172
REMARK  6 active torsions:
REMARK  status: ('A' for Active; 'I' for Inactive)
REMARK    1  A    between atoms: N_1  and  C_9
REMARK    2  A    between atoms: C_4  and  C_21
REMARK    3  A    between atoms: C_19  and  C_25
REMARK    4  A    between atoms: N_24  and  CA_27
REMARK    5  A    between atoms: CA_27  and  C_29
REMARK    6  A    between atoms: C_29  and  O_30
REMARK                            x       y       z     vdW  Elec       q    Type
REMARK                         _______ _______ _______ _____ _____    ______ ____
ROOT
ATOM      1  N   UNL     1      32.776  -9.926 -23.830  0.00  0.00    -0.247 N 
ATOM      2  N   UNL     1      33.438 -12.169 -23.646  0.00  0.00    -0.334 NA
ATOM      3  N   UNL     1      33.355 -11.076 -25.792  0.00  0.00    -0.170 NA
ATOM      4  C   UNL     1      33.853 -13.289 -24.275  0.00  0.00    +0.181 C 
ATOM      5  C   UNL     1      33.210 -11.116 -24.453  0.00  0.00    +0.149 C 
ATOM      6  C   UNL     1      34.039 -13.380 -25.639  0.00  0.00    +0.058 C 
ATOM      7  C   UNL     1      33.772 -12.229 -26.355  0.00  0.00    +0.114 C 
ATOM      8  H   UNL     1      32.624  -9.183 -24.458  0.00  0.00    +0.165 HD
ENDROOT
BRANCH   1   9
ATOM      9  C   UNL     1      32.519  -9.594 -22.488  0.00  0.00    +0.057 C 
ATOM     10  C   UNL     1      32.485  -7.960 -20.707  0.00  0.00    -0.021 C 
ATOM     11  C   UNL     1      31.793 -10.234 -20.274  0.00  0.00    -0.021 C 
ATOM     12  C   UNL     1      32.047 -10.564 -21.605  0.00  0.00    +0.011 C 
ATOM     13  C   UNL     1      32.738  -8.291 -22.039  0.00  0.00    +0.011 C 
ATOM     14  C   UNL     1      32.012  -8.931 -19.825  0.00  0.00    -0.008 C 
ATOM     15  C   UNL     1      32.720  -6.568 -20.227  0.00  0.00    +0.031 C 
ATOM     16  C   UNL     1      31.286 -11.272 -19.331  0.00  0.00    +0.031 C 
ENDBRANCH   1   9
BRANCH   4  21
ATOM     17  S   UNL     1      34.192 -15.984 -24.099  0.00  0.00    -0.065 S 
ATOM     18  N   UNL     1      34.253 -14.342 -22.103  0.00  0.00    -0.400 NA
ATOM     19  C   UNL     1      34.466 -16.632 -22.536  0.00  0.00    +0.178 C 
ATOM     20  C   UNL     1      34.466 -15.614 -21.605  0.00  0.00    +0.107 C 
ATOM     21  C   UNL     1      34.096 -14.416 -23.405  0.00  0.00    +0.187 C 
ATOM     22  C   UNL     1      34.669 -15.764 -20.150  0.00  0.00    +0.063 C 
BRANCH  19  25
ATOM     23  O   UNL     1      35.348 -18.710 -23.172  0.00  0.00    -0.274 OA
ATOM     24  N   UNL     1      34.039 -18.660 -21.259  0.00  0.00    -0.302 N 
ATOM     25  C   ACE A   0      34.657 -18.095 -22.364  0.00  0.00    +0.239 C 
ATOM     26  H   UNL     1      33.503 -18.081 -20.668  0.00  0.00    +0.149 HD
BRANCH  24  27
ATOM     27  CA  UNL     1      34.151 -20.065 -20.943  0.00  0.00    +0.101 C 
ATOM     28  CB  UNL     1      35.488 -20.339 -20.266  0.00  0.00    +0.024 C 
BRANCH  27  29
ATOM     29  C   UNL     1      32.986 -20.514 -20.063  0.00  0.00    +0.157 C 
BRANCH  29  30
ATOM     30  O   UNL     1      32.986 -21.934 -19.969  0.00  0.00    -0.380 OA
ATOM     31  H   UNL     1      33.306 -22.313 -20.803  0.00  0.00    +0.211 HD
ENDBRANCH  29  30
ENDBRANCH  27  29
ENDBRANCH  24  27
ENDBRANCH  19  25
ENDBRANCH   4  21
TORSDOF 6
ENDMDL
MODEL 9
REMARK VINA RESULT:      -9.5      4.076      8.360
REMARK  Name = 25113172
REMARK  6 active torsions:
REMARK  status: ('A' for Active; 'I' for Inactive)
REMARK    1  A    between atoms: N_1  and  C_9
REMARK    2  A    between atoms: C_4  and  C_21
REMARK    3  A    between atoms: C_19  and  C_25
REMARK    4  A    between atoms: N_24  and  CA_27
REMARK    5  A    between atoms: CA_27  and  C_29
REMARK    6  A    between atoms: C_29  and  O_30
REMARK                            x       y       z     vdW  Elec       q    Type
REMARK                         _______ _______ _______ _____ _____    ______ ____
ROOT
ATOM      1  N   UNL     1      37.679 -22.893 -16.409  0.00  0.00    -0.247 N 
ATOM      2  N   UNL     1      35.339 -23.032 -16.509  0.00  0.00    -0.334 NA
ATOM      3  N   UNL     1      36.593 -21.985 -18.281  0.00  0.00    -0.170 NA
ATOM      4  C   UNL     1      34.211 -22.758 -17.197  0.00  0.00    +0.181 C 
ATOM      5  C   UNL     1      36.478 -22.622 -17.100  0.00  0.00    +0.149 C 
ATOM      6  C   UNL     1      34.193 -22.110 -18.415  0.00  0.00    +0.058 C 
ATOM      7  C   UNL     1      35.427 -21.743 -18.914  0.00  0.00    +0.114 C 
ATOM      8  H   UNL     1      38.485 -22.578 -16.879  0.00  0.00    +0.165 HD
ENDROOT
BRANCH   1   9
ATOM      9  C   UNL     1      37.951 -23.525 -15.183  0.00  0.00    +0.057 C 
ATOM     10  C   UNL     1      39.209 -25.135 -13.892  0.00  0.00    -0.021 C 
ATOM     11  C   UNL     1      37.501 -23.801 -12.824  0.00  0.00    -0.021 C 
ATOM     12  C   UNL     1      37.232 -23.173 -14.040  0.00  0.00    +0.011 C 
ATOM     13  C   UNL     1      38.939 -24.506 -15.109  0.00  0.00    +0.011 C 
ATOM     14  C   UNL     1      38.490 -24.782 -12.751  0.00  0.00    -0.008 C 
ATOM     15  C   UNL     1      40.266 -26.185 -13.813  0.00  0.00    +0.031 C 
ATOM     16  C   UNL     1      36.733 -23.423 -11.603  0.00  0.00    +0.031 C 
ENDBRANCH   1   9
BRANCH   4  21
ATOM     17  S   UNL     1      31.491 -22.788 -17.284  0.00  0.00    -0.065 S 
ATOM     18  N   UNL     1      32.934 -23.900 -15.450  0.00  0.00    -0.400 NA
ATOM     19  C   UNL     1      30.682 -23.612 -16.017  0.00  0.00    +0.178 C 
ATOM     20  C   UNL     1      31.608 -24.137 -15.140  0.00  0.00    +0.107 C 
ATOM     21  C   UNL     1      32.992 -23.198 -16.559  0.00  0.00    +0.187 C 
ATOM     22  C   UNL     1      31.310 -24.916 -13.921  0.00  0.00    +0.063 C 
BRANCH  19  25
ATOM     23  O   UNL     1      28.637 -24.508 -15.300  0.00  0.00    -0.274 OA
ATOM     24  N   UNL     1      28.548 -22.725 -16.779  0.00  0.00    -0.302 N 
ATOM     25  C   ACE A   0      29.198 -23.668 -15.999  0.00  0.00    +0.239 C 
ATOM     26  H   UNL     1      29.088 -22.092 -17.307  0.00  0.00    +0.149 HD
BRANCH  24  27
ATOM     27  CA  UNL     1      27.107 -22.635 -16.847  0.00  0.00    +0.101 C 
ATOM     28  CB  UNL     1      26.571 -21.954 -15.595  0.00  0.00    +0.024 C 
BRANCH  27  29
ATOM     29  C   UNL     1      26.672 -21.892 -18.109  0.00  0.00    +0.157 C 
BRANCH  29  30
ATOM     30  O   UNL     1      26.350 -20.547 -17.777  0.00  0.00    -0.380 OA
ATOM     31  H   UNL     1      26.960 -19.946 -18.234  0.00  0.00    +0.211 HD
ENDBRANCH  29  30
ENDBRANCH  27  29
ENDBRANCH  24  27
ENDBRANCH  19  25
ENDBRANCH   4  21
TORSDOF 6
ENDMDL
