MODEL 1
REMARK VINA RESULT:     -12.0      0.000      0.000
REMARK  Name = 54682555
REMARK  3 active torsions:
REMARK  status: ('A' for Active; 'I' for Inactive)
REMARK    1  A    between atoms: C_4  and  C_19
REMARK    2  A    between atoms: C_5  and  C_9
REMARK    3  A    between atoms: C_6  and  O_25
REMARK                            x       y       z     vdW  Elec       q    Type
REMARK                         _______ _______ _______ _____ _____    ______ ____
ROOT
ATOM      1  O   UNL     1      32.316 -10.599 -22.399  0.00  0.00    -0.418 OA
ATOM      2  O   UNL     1      31.598 -12.733 -21.957  0.00  0.00    -0.244 OA
ATOM      3  C   UNL     1      33.267 -10.113 -23.289  0.00  0.00    +0.182 C 
ATOM      4  C   UNL     1      33.319 -12.359 -23.587  0.00  0.00    +0.113 C 
ATOM      5  C   UNL     1      33.517  -8.804 -23.397  0.00  0.00    +0.041 C 
ATOM      6  C   UNL     1      33.855 -11.207 -23.986  0.00  0.00    +0.175 C 
ATOM      7  C   UNL     1      32.326 -11.963 -22.566  0.00  0.00    +0.349 C 
ENDROOT
BRANCH   5   9
ATOM      8  C   UNL     1      32.392  -6.557 -23.238  0.00  0.00    +0.000 C 
ATOM      9  C   UNL     1      32.864  -7.737 -22.641  0.00  0.00    +0.003 C 
ATOM     10  C   UNL     1      31.772  -5.574 -22.431  0.00  0.00    +0.000 C 
ATOM     11  C   UNL     1      32.727  -7.945 -21.267  0.00  0.00    +0.000 C 
ATOM     12  C   UNL     1      32.521  -6.332 -24.618  0.00  0.00    +0.000 C 
ATOM     13  C   UNL     1      31.642  -5.799 -21.051  0.00  0.00    +0.000 C 
ATOM     14  C   UNL     1      31.300  -4.393 -23.029  0.00  0.00    +0.000 C 
ATOM     15  C   UNL     1      32.117  -6.977 -20.475  0.00  0.00    +0.000 C 
ATOM     16  C   UNL     1      32.047  -5.154 -25.195  0.00  0.00    +0.000 C 
ATOM     17  C   UNL     1      31.437  -4.187 -24.402  0.00  0.00    +0.000 C 
ENDBRANCH   5   9
BRANCH   4  19
ATOM     18 CL   UNL     1      34.594 -17.927 -25.334  0.00  0.00    -0.082 Cl
ATOM     19  C   UNL     1      33.631 -13.722 -24.014  0.00  0.00    +0.009 C 
ATOM     20  C   UNL     1      33.176 -14.187 -25.248  0.00  0.00    +0.001 C 
ATOM     21  C   UNL     1      34.383 -14.556 -23.189  0.00  0.00    +0.001 C 
ATOM     22  C   UNL     1      33.473 -15.487 -25.657  0.00  0.00    +0.011 C 
ATOM     23  C   UNL     1      34.682 -15.857 -23.597  0.00  0.00    +0.011 C 
ATOM     24  C   UNL     1      34.226 -16.322 -24.831  0.00  0.00    +0.058 C 
ENDBRANCH   4  19
BRANCH   6  25
ATOM     25  O   UNL     1      34.851 -11.055 -24.907  0.00  0.00    -0.503 OA
ATOM     26  H   UNL     1      35.329 -10.250 -24.951  0.00  0.00    +0.292 HD
ENDBRANCH   6  25
TORSDOF 3
ENDMDL
MODEL 2
REMARK VINA RESULT:     -11.9      3.185      8.929
REMARK  Name = 54682555
REMARK  3 active torsions:
REMARK  status: ('A' for Active; 'I' for Inactive)
REMARK    1  A    between atoms: C_4  and  C_19
REMARK    2  A    between atoms: C_5  and  C_9
REMARK    3  A    between atoms: C_6  and  O_25
REMARK                            x       y       z     vdW  Elec       q    Type
REMARK                         _______ _______ _______ _____ _____    ______ ____
ROOT
ATOM      1  O   UNL     1      33.805 -12.162 -23.969  0.00  0.00    -0.418 OA
ATOM      2  O   UNL     1      34.411 -10.016 -24.511  0.00  0.00    -0.244 OA
ATOM      3  C   UNL     1      32.776 -12.655 -23.175  0.00  0.00    +0.182 C 
ATOM      4  C   UNL     1      32.548 -10.404 -23.050  0.00  0.00    +0.113 C 
ATOM      5  C   UNL     1      32.591 -13.969 -23.009  0.00  0.00    +0.041 C 
ATOM      6  C   UNL     1      32.041 -11.562 -22.633  0.00  0.00    +0.175 C 
ATOM      7  C   UNL     1      33.683 -10.795 -23.913  0.00  0.00    +0.349 C 
ENDROOT
BRANCH   5   9
ATOM      8  C   UNL     1      34.143 -15.944 -22.843  0.00  0.00    +0.000 C 
ATOM      9  C   UNL     1      33.395 -15.034 -23.606  0.00  0.00    +0.003 C 
ATOM     10  C   UNL     1      34.895 -16.945 -23.503  0.00  0.00    +0.000 C 
ATOM     11  C   UNL     1      33.387 -15.110 -25.000  0.00  0.00    +0.000 C 
ATOM     12  C   UNL     1      34.162 -15.883 -21.441  0.00  0.00    +0.000 C 
ATOM     13  C   UNL     1      34.876 -17.008 -24.905  0.00  0.00    +0.000 C 
ATOM     14  C   UNL     1      35.645 -17.856 -22.739  0.00  0.00    +0.000 C 
ATOM     15  C   UNL     1      34.126 -16.095 -25.648  0.00  0.00    +0.000 C 
ATOM     16  C   UNL     1      34.912 -16.795 -20.698  0.00  0.00    +0.000 C 
ATOM     17  C   UNL     1      35.652 -17.779 -21.346  0.00  0.00    +0.000 C 
ENDBRANCH   5   9
BRANCH   4  19
ATOM     18 CL   UNL     1      30.827  -4.836 -21.743  0.00  0.00    -0.082 Cl
ATOM     19  C   UNL     1      32.127  -9.041 -22.730  0.00  0.00    +0.009 C 
ATOM     20  C   UNL     1      31.372  -8.311 -23.648  0.00  0.00    +0.001 C 
ATOM     21  C   UNL     1      32.480  -8.471 -21.507  0.00  0.00    +0.001 C 
ATOM     22  C   UNL     1      30.970  -7.010 -23.343  0.00  0.00    +0.011 C 
ATOM     23  C   UNL     1      32.078  -7.171 -21.201  0.00  0.00    +0.011 C 
ATOM     24  C   UNL     1      31.323  -6.440 -22.119  0.00  0.00    +0.058 C 
ENDBRANCH   4  19
BRANCH   6  25
ATOM     25  O   UNL     1      30.987 -11.723 -21.780  0.00  0.00    -0.503 OA
ATOM     26  H   UNL     1      30.438 -12.481 -21.851  0.00  0.00    +0.292 HD
ENDBRANCH   6  25
TORSDOF 3
ENDMDL
MODEL 3
REMARK VINA RESULT:     -11.6      6.916     10.647
REMARK  Name = 54682555
REMARK  3 active torsions:
REMARK  status: ('A' for Active; 'I' for Inactive)
REMARK    1  A    between atoms: C_4  and  C_19
REMARK    2  A    between atoms: C_5  and  C_9
REMARK    3  A    between atoms: C_6  and  O_25
REMARK                            x       y       z     vdW  Elec       q    Type
REMARK                         _______ _______ _______ _____ _____    ______ ____
ROOT
ATOM      1  O   UNL     1      33.781 -19.604 -21.077  0.00  0.00    -0.418 OA
ATOM      2  O   UNL     1      32.339 -20.660 -19.640  0.00  0.00    -0.244 OA
ATOM      3  C   UNL     1      35.165 -19.660 -21.201  0.00  0.00    +0.182 C 
ATOM      4  C   UNL     1      34.701 -21.043 -19.466  0.00  0.00    +0.113 C 
ATOM      5  C   UNL     1      35.811 -18.962 -22.141  0.00  0.00    +0.041 C 
ATOM      6  C   UNL     1      35.685 -20.537 -20.207  0.00  0.00    +0.175 C 
ATOM      7  C   UNL     1      33.475 -20.440 -20.032  0.00  0.00    +0.349 C 
ENDROOT
BRANCH   5   9
ATOM      8  C   UNL     1      34.782 -16.772 -22.835  0.00  0.00    +0.000 C 
ATOM      9  C   UNL     1      35.198 -18.080 -23.132  0.00  0.00    +0.003 C 
ATOM     10  C   UNL     1      34.196 -15.985 -23.855  0.00  0.00    +0.000 C 
ATOM     11  C   UNL     1      35.040 -18.604 -24.416  0.00  0.00    +0.000 C 
ATOM     12  C   UNL     1      34.933 -16.229 -21.549  0.00  0.00    +0.000 C 
ATOM     13  C   UNL     1      34.045 -16.527 -25.141  0.00  0.00    +0.000 C 
ATOM     14  C   UNL     1      33.779 -14.676 -23.558  0.00  0.00    +0.000 C 
ATOM     15  C   UNL     1      34.464 -17.829 -25.418  0.00  0.00    +0.000 C 
ATOM     16  C   UNL     1      34.514 -14.928 -21.272  0.00  0.00    +0.000 C 
ATOM     17  C   UNL     1      33.938 -14.153 -22.274  0.00  0.00    +0.000 C 
ENDBRANCH   5   9
BRANCH   4  19
ATOM     18 CL   UNL     1      35.006 -24.793 -14.827  0.00  0.00    -0.082 Cl
ATOM     19  C   UNL     1      34.775 -21.961 -18.331  0.00  0.00    +0.009 C 
ATOM     20  C   UNL     1      35.921 -21.996 -17.536  0.00  0.00    +0.001 C 
ATOM     21  C   UNL     1      33.700 -22.801 -18.041  0.00  0.00    +0.001 C 
ATOM     22  C   UNL     1      35.993 -22.872 -16.453  0.00  0.00    +0.011 C 
ATOM     23  C   UNL     1      33.771 -23.676 -16.958  0.00  0.00    +0.011 C 
ATOM     24  C   UNL     1      34.918 -23.712 -16.164  0.00  0.00    +0.058 C 
ENDBRANCH   4  19
BRANCH   6  25
ATOM     25  O   UNL     1      37.020 -20.775 -20.048  0.00  0.00    -0.503 OA
ATOM     26  H   UNL     1      37.648 -20.245 -20.500  0.00  0.00    +0.292 HD
ENDBRANCH   6  25
TORSDOF 3
ENDMDL
MODEL 4
REMARK VINA RESULT:     -10.9      8.609     13.903
REMARK  Name = 54682555
REMARK  3 active torsions:
REMARK  status: ('A' for Active; 'I' for Inactive)
REMARK    1  A    between atoms: C_4  and  C_19
REMARK    2  A    between atoms: C_5  and  C_9
REMARK    3  A    between atoms: C_6  and  O_25
REMARK                            x       y       z     vdW  Elec       q    Type
REMARK                         _______ _______ _______ _____ _____    ______ ____
ROOT
ATOM      1  O   UNL     1      35.261 -21.221 -18.821  0.00  0.00    -0.418 OA
ATOM      2  O   UNL     1      36.846 -19.978 -19.920  0.00  0.00    -0.244 OA
ATOM      3  C   UNL     1      33.918 -21.451 -19.094  0.00  0.00    +0.182 C 
ATOM      4  C   UNL     1      34.598 -20.064 -20.753  0.00  0.00    +0.113 C 
ATOM      5  C   UNL     1      33.172 -22.241 -18.315  0.00  0.00    +0.041 C 
ATOM      6  C   UNL     1      33.552 -20.731 -20.268  0.00  0.00    +0.175 C 
ATOM      7  C   UNL     1      35.698 -20.385 -19.819  0.00  0.00    +0.349 C 
ENDROOT
BRANCH   5   9
ATOM      8  C   UNL     1      32.747 -23.428 -16.136  0.00  0.00    +0.000 C 
ATOM      9  C   UNL     1      33.627 -22.950 -17.120  0.00  0.00    +0.003 C 
ATOM     10  C   UNL     1      33.272 -24.103 -15.009  0.00  0.00    +0.000 C 
ATOM     11  C   UNL     1      35.005 -23.135 -16.996  0.00  0.00    +0.000 C 
ATOM     12  C   UNL     1      31.359 -23.250 -16.245  0.00  0.00    +0.000 C 
ATOM     13  C   UNL     1      34.661 -24.282 -14.900  0.00  0.00    +0.000 C 
ATOM     14  C   UNL     1      32.392 -24.582 -14.023  0.00  0.00    +0.000 C 
ATOM     15  C   UNL     1      35.520 -23.800 -15.888  0.00  0.00    +0.000 C 
ATOM     16  C   UNL     1      30.500 -23.731 -15.257  0.00  0.00    +0.000 C 
ATOM     17  C   UNL     1      31.015 -24.395 -14.149  0.00  0.00    +0.000 C 
ENDBRANCH   5   9
BRANCH   4  19
ATOM     18 CL   UNL     1      34.911 -16.478 -25.519  0.00  0.00    -0.082 Cl
ATOM     19  C   UNL     1      34.675 -19.187 -21.920  0.00  0.00    +0.009 C 
ATOM     20  C   UNL     1      34.671 -17.802 -21.752  0.00  0.00    +0.001 C 
ATOM     21  C   UNL     1      34.751 -19.734 -23.200  0.00  0.00    +0.001 C 
ATOM     22  C   UNL     1      34.745 -16.964 -22.865  0.00  0.00    +0.011 C 
ATOM     23  C   UNL     1      34.824 -18.896 -24.314  0.00  0.00    +0.011 C 
ATOM     24  C   UNL     1      34.821 -17.511 -24.146  0.00  0.00    +0.058 C 
ENDBRANCH   4  19
BRANCH   6  25
ATOM     25  O   UNL     1      32.284 -20.726 -20.774  0.00  0.00    -0.503 OA
ATOM     26  H   UNL     1      32.078 -21.250 -21.525  0.00  0.00    +0.292 HD
ENDBRANCH   6  25
TORSDOF 3
ENDMDL
MODEL 5
REMARK VINA RESULT:     -10.8      4.583     10.544
REMARK  Name = 54682555
REMARK  3 active torsions:
REMARK  status: ('A' for Active; 'I' for Inactive)
REMARK    1  A    between atoms: C_4  and  C_19
REMARK    2  A    between atoms: C_5  and  C_9
REMARK    3  A    between atoms: C_6  and  O_25
REMARK                            x       y       z     vdW  Elec       q    Type
REMARK                         _______ _______ _______ _____ _____    ______ ____
ROOT
ATOM      1  O   UNL     1      35.015 -16.228 -20.822  0.00  0.00    -0.418 OA
ATOM      2  O   UNL     1      34.864 -14.107 -19.962  0.00  0.00    -0.244 OA
ATOM      3  C   UNL     1      34.639 -16.752 -22.054  0.00  0.00    +0.182 C 
ATOM      4  C   UNL     1      34.041 -14.568 -22.168  0.00  0.00    +0.113 C 
ATOM      5  C   UNL     1      34.841 -18.038 -22.357  0.00  0.00    +0.041 C 
ATOM      6  C   UNL     1      34.050 -15.719 -22.838  0.00  0.00    +0.175 C 
ATOM      7  C   UNL     1      34.667 -14.900 -20.870  0.00  0.00    +0.349 C 
ENDROOT
BRANCH   5   9
ATOM      8  C   UNL     1      34.713 -19.954 -20.730  0.00  0.00    +0.000 C 
ATOM      9  C   UNL     1      35.459 -19.040 -21.490  0.00  0.00    +0.003 C 
ATOM     10  C   UNL     1      35.391 -20.892 -19.916  0.00  0.00    +0.000 C 
ATOM     11  C   UNL     1      36.854 -19.050 -21.449  0.00  0.00    +0.000 C 
ATOM     12  C   UNL     1      33.309 -19.959 -20.760  0.00  0.00    +0.000 C 
ATOM     13  C   UNL     1      36.795 -20.888 -19.885  0.00  0.00    +0.000 C 
ATOM     14  C   UNL     1      34.644 -21.807 -19.154  0.00  0.00    +0.000 C 
ATOM     15  C   UNL     1      37.520 -19.972 -20.648  0.00  0.00    +0.000 C 
ATOM     16  C   UNL     1      32.583 -20.874 -19.998  0.00  0.00    +0.000 C 
ATOM     17  C   UNL     1      33.249 -21.796 -19.196  0.00  0.00    +0.000 C 
ENDBRANCH   5   9
BRANCH   4  19
ATOM     18 CL   UNL     1      31.909  -9.242 -23.828  0.00  0.00    -0.082 Cl
ATOM     19  C   UNL     1      33.520 -13.265 -22.574  0.00  0.00    +0.009 C 
ATOM     20  C   UNL     1      32.428 -12.711 -21.905  0.00  0.00    +0.001 C 
ATOM     21  C   UNL     1      34.113 -12.575 -23.631  0.00  0.00    +0.001 C 
ATOM     22  C   UNL     1      31.930 -11.467 -22.292  0.00  0.00    +0.011 C 
ATOM     23  C   UNL     1      33.615 -11.331 -24.019  0.00  0.00    +0.011 C 
ATOM     24  C   UNL     1      32.523 -10.777 -23.349  0.00  0.00    +0.058 C 
ENDBRANCH   4  19
BRANCH   6  25
ATOM     25  O   UNL     1      33.546 -15.929 -24.090  0.00  0.00    -0.503 OA
ATOM     26  H   UNL     1      33.247 -16.783 -24.337  0.00  0.00    +0.292 HD
ENDBRANCH   6  25
TORSDOF 3
ENDMDL
MODEL 6
REMARK VINA RESULT:     -10.7      3.217      8.389
REMARK  Name = 54682555
REMARK  3 active torsions:
REMARK  status: ('A' for Active; 'I' for Inactive)
REMARK    1  A    between atoms: C_4  and  C_19
REMARK    2  A    between atoms: C_5  and  C_9
REMARK    3  A    between atoms: C_6  and  O_25
REMARK                            x       y       z     vdW  Elec       q    Type
REMARK                         _______ _______ _______ _____ _____    ______ ____
ROOT
ATOM      1  O   UNL     1      33.840 -11.381 -23.270  0.00  0.00    -0.418 OA
ATOM      2  O   UNL     1      34.706  -9.436 -24.124  0.00  0.00    -0.244 OA
ATOM      3  C   UNL     1      32.628 -11.654 -22.646  0.00  0.00    +0.182 C 
ATOM      4  C   UNL     1      32.543  -9.432 -23.087  0.00  0.00    +0.113 C 
ATOM      5  C   UNL     1      32.315 -12.888 -22.236  0.00  0.00    +0.041 C 
ATOM      6  C   UNL     1      31.873 -10.450 -22.549  0.00  0.00    +0.175 C 
ATOM      7  C   UNL     1      33.809 -10.037 -23.553  0.00  0.00    +0.349 C 
ENDROOT
BRANCH   5   9
ATOM      8  C   UNL     1      33.352 -14.731 -23.603  0.00  0.00    +0.000 C 
ATOM      9  C   UNL     1      33.151 -14.079 -22.376  0.00  0.00    +0.003 C 
ATOM     10  C   UNL     1      34.177 -15.879 -23.649  0.00  0.00    +0.000 C 
ATOM     11  C   UNL     1      33.755 -14.553 -21.210  0.00  0.00    +0.000 C 
ATOM     12  C   UNL     1      32.753 -14.267 -24.785  0.00  0.00    +0.000 C 
ATOM     13  C   UNL     1      34.777 -16.343 -22.467  0.00  0.00    +0.000 C 
ATOM     14  C   UNL     1      34.378 -16.532 -24.877  0.00  0.00    +0.000 C 
ATOM     15  C   UNL     1      34.567 -15.683 -21.256  0.00  0.00    +0.000 C 
ATOM     16  C   UNL     1      32.963 -14.927 -25.996  0.00  0.00    +0.000 C 
ATOM     17  C   UNL     1      33.773 -16.057 -26.042  0.00  0.00    +0.000 C 
ENDBRANCH   5   9
BRANCH   4  19
ATOM     18 CL   UNL     1      30.988  -3.680 -23.499  0.00  0.00    -0.082 Cl
ATOM     19  C   UNL     1      32.162  -8.025 -23.188  0.00  0.00    +0.009 C 
ATOM     20  C   UNL     1      32.537  -7.127 -22.188  0.00  0.00    +0.001 C 
ATOM     21  C   UNL     1      31.424  -7.579 -24.284  0.00  0.00    +0.001 C 
ATOM     22  C   UNL     1      32.174  -5.784 -22.284  0.00  0.00    +0.011 C 
ATOM     23  C   UNL     1      31.061  -6.235 -24.381  0.00  0.00    +0.011 C 
ATOM     24  C   UNL     1      31.436  -5.338 -23.380  0.00  0.00    +0.058 C 
ENDBRANCH   4  19
BRANCH   6  25
ATOM     25  O   UNL     1      30.648 -10.385 -21.951  0.00  0.00    -0.503 OA
ATOM     26  H   UNL     1      30.225  -9.555 -21.838  0.00  0.00    +0.292 HD
ENDBRANCH   6  25
TORSDOF 3
ENDMDL
MODEL 7
REMARK VINA RESULT:     -10.6      8.130     13.612
REMARK  Name = 54682555
REMARK  3 active torsions:
REMARK  status: ('A' for Active; 'I' for Inactive)
REMARK    1  A    between atoms: C_4  and  C_19
REMARK    2  A    between atoms: C_5  and  C_9
REMARK    3  A    between atoms: C_6  and  O_25
REMARK                            x       y       z     vdW  Elec       q    Type
REMARK                         _______ _______ _______ _____ _____    ______ ____
ROOT
ATOM      1  O   UNL     1      36.447 -20.447 -19.459  0.00  0.00    -0.418 OA
ATOM      2  O   UNL     1      37.568 -19.035 -20.878  0.00  0.00    -0.244 OA
ATOM      3  C   UNL     1      35.127 -20.885 -19.449  0.00  0.00    +0.182 C 
ATOM      4  C   UNL     1      35.240 -19.490 -21.232  0.00  0.00    +0.113 C 
ATOM      5  C   UNL     1      34.682 -21.739 -18.521  0.00  0.00    +0.041 C 
ATOM      6  C   UNL     1      34.428 -20.282 -20.533  0.00  0.00    +0.175 C 
ATOM      7  C   UNL     1      36.541 -19.602 -20.538  0.00  0.00    +0.349 C 
ENDROOT
BRANCH   5   9
ATOM      8  C   UNL     1      34.895 -23.028 -16.369  0.00  0.00    +0.000 C 
ATOM      9  C   UNL     1      35.471 -22.318 -17.435  0.00  0.00    +0.003 C 
ATOM     10  C   UNL     1      35.732 -23.554 -15.357  0.00  0.00    +0.000 C 
ATOM     11  C   UNL     1      36.852 -22.129 -17.502  0.00  0.00    +0.000 C 
ATOM     12  C   UNL     1      33.508 -23.226 -16.286  0.00  0.00    +0.000 C 
ATOM     13  C   UNL     1      37.120 -23.356 -15.440  0.00  0.00    +0.000 C 
ATOM     14  C   UNL     1      35.156 -24.264 -14.290  0.00  0.00    +0.000 C 
ATOM     15  C   UNL     1      37.674 -22.648 -16.507  0.00  0.00    +0.000 C 
ATOM     16  C   UNL     1      32.952 -23.934 -15.220  0.00  0.00    +0.000 C 
ATOM     17  C   UNL     1      33.775 -24.452 -14.223  0.00  0.00    +0.000 C 
ENDBRANCH   5   9
BRANCH   4  19
ATOM     18 CL   UNL     1      34.038 -16.120 -26.014  0.00  0.00    -0.082 Cl
ATOM     19  C   UNL     1      34.946 -18.666 -22.403  0.00  0.00    +0.009 C 
ATOM     20  C   UNL     1      34.821 -17.283 -22.268  0.00  0.00    +0.001 C 
ATOM     21  C   UNL     1      34.789 -19.261 -23.654  0.00  0.00    +0.001 C 
ATOM     22  C   UNL     1      34.541 -16.495 -23.384  0.00  0.00    +0.011 C 
ATOM     23  C   UNL     1      34.509 -18.474 -24.771  0.00  0.00    +0.011 C 
ATOM     24  C   UNL     1      34.385 -17.091 -24.636  0.00  0.00    +0.058 C 
ENDBRANCH   4  19
BRANCH   6  25
ATOM     25  O   UNL     1      33.099 -20.487 -20.770  0.00  0.00    -0.503 OA
ATOM     26  H   UNL     1      32.583 -19.810 -21.162  0.00  0.00    +0.292 HD
ENDBRANCH   6  25
TORSDOF 3
ENDMDL
MODEL 8
REMARK VINA RESULT:     -10.6      3.155      8.647
REMARK  Name = 54682555
REMARK  3 active torsions:
REMARK  status: ('A' for Active; 'I' for Inactive)
REMARK    1  A    between atoms: C_4  and  C_19
REMARK    2  A    between atoms: C_5  and  C_9
REMARK    3  A    between atoms: C_6  and  O_25
REMARK                            x       y       z     vdW  Elec       q    Type
REMARK                         _______ _______ _______ _____ _____    ______ ____
ROOT
ATOM      1  O   UNL     1      32.878 -12.481 -22.047  0.00  0.00    -0.418 OA
ATOM      2  O   UNL     1      31.666 -10.773 -21.111  0.00  0.00    -0.244 OA
ATOM      3  C   UNL     1      33.619 -12.548 -23.221  0.00  0.00    +0.182 C 
ATOM      4  C   UNL     1      32.779 -10.443 -23.210  0.00  0.00    +0.113 C 
ATOM      5  C   UNL     1      34.275 -13.660 -23.570  0.00  0.00    +0.041 C 
ATOM      6  C   UNL     1      33.531 -11.299 -23.899  0.00  0.00    +0.175 C 
ATOM      7  C   UNL     1      32.362 -11.208 -22.015  0.00  0.00    +0.349 C 
ENDROOT
BRANCH   5   9
ATOM      8  C   UNL     1      34.395 -16.170 -23.424  0.00  0.00    +0.000 C 
ATOM      9  C   UNL     1      34.316 -14.909 -22.812  0.00  0.00    +0.003 C 
ATOM     10  C   UNL     1      34.429 -17.330 -22.615  0.00  0.00    +0.000 C 
ATOM     11  C   UNL     1      34.271 -14.793 -21.422  0.00  0.00    +0.000 C 
ATOM     12  C   UNL     1      34.441 -16.305 -24.821  0.00  0.00    +0.000 C 
ATOM     13  C   UNL     1      34.384 -17.196 -21.218  0.00  0.00    +0.000 C 
ATOM     14  C   UNL     1      34.508 -18.593 -23.227  0.00  0.00    +0.000 C 
ATOM     15  C   UNL     1      34.305 -15.935 -20.627  0.00  0.00    +0.000 C 
ATOM     16  C   UNL     1      34.519 -17.566 -25.412  0.00  0.00    +0.000 C 
ATOM     17  C   UNL     1      34.552 -18.708 -24.617  0.00  0.00    +0.000 C 
ENDBRANCH   5   9
BRANCH   4  19
ATOM     18 CL   UNL     1      31.255  -4.825 -24.546  0.00  0.00    -0.082 Cl
ATOM     19  C   UNL     1      32.406  -9.068 -23.537  0.00  0.00    +0.009 C 
ATOM     20  C   UNL     1      33.396  -8.104 -23.732  0.00  0.00    +0.001 C 
ATOM     21  C   UNL     1      31.061  -8.719 -23.653  0.00  0.00    +0.001 C 
ATOM     22  C   UNL     1      33.040  -6.792 -24.044  0.00  0.00    +0.011 C 
ATOM     23  C   UNL     1      30.705  -7.407 -23.966  0.00  0.00    +0.011 C 
ATOM     24  C   UNL     1      31.694  -6.444 -24.161  0.00  0.00    +0.058 C 
ENDBRANCH   4  19
BRANCH   6  25
ATOM     25  O   UNL     1      34.126 -11.062 -25.105  0.00  0.00    -0.503 OA
ATOM     26  H   UNL     1      34.415 -11.780 -25.634  0.00  0.00    +0.292 HD
ENDBRANCH   6  25
TORSDOF 3
ENDMDL
MODEL 9
REMARK VINA RESULT:     -10.5      3.691      6.065
REMARK  Name = 54682555
REMARK  3 active torsions:
REMARK  status: ('A' for Active; 'I' for Inactive)
REMARK    1  A    between atoms: C_4  and  C_19
REMARK    2  A    between atoms: C_5  and  C_9
REMARK    3  A    between atoms: C_6  and  O_25
REMARK                            x       y       z     vdW  Elec       q    Type
REMARK                         _______ _______ _______ _____ _____    ______ ____
ROOT
ATOM      1  O   UNL     1      34.363 -15.321 -22.723  0.00  0.00    -0.418 OA
ATOM      2  O   UNL     1      35.854 -17.063 -22.803  0.00  0.00    -0.244 OA
ATOM      3  C   UNL     1      33.154 -15.174 -22.052  0.00  0.00    +0.182 C 
ATOM      4  C   UNL     1      33.842 -17.265 -21.513  0.00  0.00    +0.113 C 
ATOM      5  C   UNL     1      32.444 -14.043 -22.133  0.00  0.00    +0.041 C 
ATOM      6  C   UNL     1      32.871 -16.371 -21.335  0.00  0.00    +0.175 C 
ATOM      7  C   UNL     1      34.803 -16.583 -22.406  0.00  0.00    +0.349 C 
ENDROOT
BRANCH   5   9
ATOM      8  C   UNL     1      32.488 -11.550 -22.476  0.00  0.00    +0.000 C 
ATOM      9  C   UNL     1      32.808 -12.850 -22.896  0.00  0.00    +0.003 C 
ATOM     10  C   UNL     1      32.878 -10.449 -23.275  0.00  0.00    +0.000 C 
ATOM     11  C   UNL     1      33.503 -13.064 -24.087  0.00  0.00    +0.000 C 
ATOM     12  C   UNL     1      31.789 -11.317 -21.280  0.00  0.00    +0.000 C 
ATOM     13  C   UNL     1      33.577 -10.681 -24.471  0.00  0.00    +0.000 C 
ATOM     14  C   UNL     1      32.556  -9.147 -22.856  0.00  0.00    +0.000 C 
ATOM     15  C   UNL     1      33.887 -11.981 -24.872  0.00  0.00    +0.000 C 
ATOM     16  C   UNL     1      31.478 -10.018 -20.879  0.00  0.00    +0.000 C 
ATOM     17  C   UNL     1      31.861  -8.935 -21.665  0.00  0.00    +0.000 C 
ENDBRANCH   5   9
BRANCH   4  19
ATOM     18 CL   UNL     1      34.308 -22.818 -19.364  0.00  0.00    -0.082 Cl
ATOM     19  C   UNL     1      33.956 -18.624 -20.987  0.00  0.00    +0.009 C 
ATOM     20  C   UNL     1      35.214 -19.198 -20.804  0.00  0.00    +0.001 C 
ATOM     21  C   UNL     1      32.807 -19.347 -20.667  0.00  0.00    +0.001 C 
ATOM     22  C   UNL     1      35.324 -20.495 -20.303  0.00  0.00    +0.011 C 
ATOM     23  C   UNL     1      32.916 -20.643 -20.165  0.00  0.00    +0.011 C 
ATOM     24  C   UNL     1      34.174 -21.218 -19.983  0.00  0.00    +0.058 C 
ENDBRANCH   4  19
BRANCH   6  25
ATOM     25  O   UNL     1      31.733 -16.549 -20.602  0.00  0.00    -0.503 OA
ATOM     26  H   UNL     1      31.777 -16.955 -19.758  0.00  0.00    +0.292 HD
ENDBRANCH   6  25
TORSDOF 3
ENDMDL
