MODEL 1
REMARK VINA RESULT:      -6.0      0.000      0.000
REMARK  Name = 7264
REMARK  2 active torsions:
REMARK  status: ('A' for Active; 'I' for Inactive)
REMARK    1  A    between atoms: C_2  and  N_8
REMARK    2  A    between atoms: C_5  and  O_11
REMARK                            x       y       z     vdW  Elec       q    Type
REMARK                         _______ _______ _______ _____ _____    ______ ____
ROOT
ATOM      1  C   UNL     1      34.736 -19.787 -20.998  0.00  0.00    -0.020 C 
ATOM      2  C   UNL     1      33.821 -21.404 -19.454  0.00  0.00    +0.075 C 
ATOM      3  C   UNL     1      33.634 -20.431 -20.437  0.00  0.00    +0.013 C 
ATOM      4  C   UNL     1      36.025 -20.115 -20.577  0.00  0.00    -0.001 C 
ATOM      5  C   UNL     1      35.109 -21.731 -19.033  0.00  0.00    +0.146 C 
ATOM      6  C   UNL     1      36.211 -21.087 -19.594  0.00  0.00    +0.038 C 
ATOM      7  C   UNL     1      34.538 -18.748 -22.049  0.00  0.00    +0.031 C 
ENDROOT
BRANCH   2   8
ATOM      8  N   UNL     1      32.695 -22.048 -18.894  0.00  0.00    -0.355 N 
ATOM      9  H   UNL     1      31.880 -21.532 -18.696  0.00  0.00    +0.142 HD
ATOM     10  H   UNL     1      32.726 -23.013 -18.704  0.00  0.00    +0.142 HD
ENDBRANCH   2   8
BRANCH   5  11
ATOM     11  O   UNL     1      35.312 -22.678 -18.073  0.00  0.00    -0.504 OA
ATOM     12  H   UNL     1      35.759 -22.452 -17.280  0.00  0.00    +0.292 HD
ENDBRANCH   5  11
TORSDOF 2
ENDMDL
MODEL 2
REMARK VINA RESULT:      -6.0      1.538      2.263
REMARK  Name = 7264
REMARK  2 active torsions:
REMARK  status: ('A' for Active; 'I' for Inactive)
REMARK    1  A    between atoms: C_2  and  N_8
REMARK    2  A    between atoms: C_5  and  O_11
REMARK                            x       y       z     vdW  Elec       q    Type
REMARK                         _______ _______ _______ _____ _____    ______ ____
ROOT
ATOM      1  C   UNL     1      35.073 -19.415 -21.161  0.00  0.00    -0.020 C 
ATOM      2  C   UNL     1      34.877 -21.236 -19.585  0.00  0.00    +0.075 C 
ATOM      3  C   UNL     1      35.670 -20.359 -20.326  0.00  0.00    +0.013 C 
ATOM      4  C   UNL     1      33.683 -19.347 -21.255  0.00  0.00    -0.001 C 
ATOM      5  C   UNL     1      33.487 -21.167 -19.679  0.00  0.00    +0.146 C 
ATOM      6  C   UNL     1      32.890 -20.223 -20.514  0.00  0.00    +0.038 C 
ATOM      7  C   UNL     1      35.920 -18.477 -21.953  0.00  0.00    +0.031 C 
ENDROOT
BRANCH   2   8
ATOM      8  N   UNL     1      35.495 -22.187 -18.744  0.00  0.00    -0.355 N 
ATOM      9  H   UNL     1      35.915 -21.900 -17.901  0.00  0.00    +0.142 HD
ATOM     10  H   UNL     1      35.505 -23.137 -19.001  0.00  0.00    +0.142 HD
ENDBRANCH   2   8
BRANCH   5  11
ATOM     11  O   UNL     1      32.694 -22.015 -18.964  0.00  0.00    -0.504 OA
ATOM     12  H   UNL     1      33.005 -22.378 -18.158  0.00  0.00    +0.292 HD
ENDBRANCH   5  11
TORSDOF 2
ENDMDL
MODEL 3
REMARK VINA RESULT:      -5.7      4.881      6.260
REMARK  Name = 7264
REMARK  2 active torsions:
REMARK  status: ('A' for Active; 'I' for Inactive)
REMARK    1  A    between atoms: C_2  and  N_8
REMARK    2  A    between atoms: C_5  and  O_11
REMARK                            x       y       z     vdW  Elec       q    Type
REMARK                         _______ _______ _______ _____ _____    ______ ____
ROOT
ATOM      1  C   UNL     1      35.010 -18.583 -22.616  0.00  0.00    -0.020 C 
ATOM      2  C   UNL     1      34.686 -16.402 -23.602  0.00  0.00    +0.075 C 
ATOM      3  C   UNL     1      34.940 -17.196 -22.484  0.00  0.00    +0.013 C 
ATOM      4  C   UNL     1      34.826 -19.175 -23.866  0.00  0.00    -0.001 C 
ATOM      5  C   UNL     1      34.502 -16.993 -24.852  0.00  0.00    +0.146 C 
ATOM      6  C   UNL     1      34.573 -18.379 -24.984  0.00  0.00    +0.038 C 
ATOM      7  C   UNL     1      35.281 -19.434 -21.422  0.00  0.00    +0.031 C 
ENDROOT
BRANCH   2   8
ATOM      8  N   UNL     1      34.618 -14.999 -23.454  0.00  0.00    -0.355 N 
ATOM      9  H   UNL     1      34.386 -14.606 -22.581  0.00  0.00    +0.142 HD
ATOM     10  H   UNL     1      34.802 -14.413 -24.223  0.00  0.00    +0.142 HD
ENDBRANCH   2   8
BRANCH   5  11
ATOM     11  O   UNL     1      34.253 -16.234 -25.956  0.00  0.00    -0.504 OA
ATOM     12  H   UNL     1      33.432 -16.311 -26.401  0.00  0.00    +0.292 HD
ENDBRANCH   5  11
TORSDOF 2
ENDMDL
MODEL 4
REMARK VINA RESULT:      -5.6      2.826      3.994
REMARK  Name = 7264
REMARK  2 active torsions:
REMARK  status: ('A' for Active; 'I' for Inactive)
REMARK    1  A    between atoms: C_2  and  N_8
REMARK    2  A    between atoms: C_5  and  O_11
REMARK                            x       y       z     vdW  Elec       q    Type
REMARK                         _______ _______ _______ _____ _____    ______ ____
ROOT
ATOM      1  C   UNL     1      34.071 -21.425 -19.580  0.00  0.00    -0.020 C 
ATOM      2  C   UNL     1      35.446 -19.759 -20.661  0.00  0.00    +0.075 C 
ATOM      3  C   UNL     1      35.332 -20.915 -19.888  0.00  0.00    +0.013 C 
ATOM      4  C   UNL     1      32.925 -20.781 -20.045  0.00  0.00    -0.001 C 
ATOM      5  C   UNL     1      34.300 -19.115 -21.127  0.00  0.00    +0.146 C 
ATOM      6  C   UNL     1      33.040 -19.625 -20.819  0.00  0.00    +0.038 C 
ATOM      7  C   UNL     1      33.948 -22.660 -18.753  0.00  0.00    +0.031 C 
ENDROOT
BRANCH   2   8
ATOM      8  N   UNL     1      36.730 -19.253 -20.965  0.00  0.00    -0.355 N 
ATOM      9  H   UNL     1      37.531 -19.685 -20.591  0.00  0.00    +0.142 HD
ATOM     10  H   UNL     1      36.823 -18.469 -21.553  0.00  0.00    +0.142 HD
ENDBRANCH   2   8
BRANCH   5  11
ATOM     11  O   UNL     1      34.391 -17.984 -21.883  0.00  0.00    -0.504 OA
ATOM     12  H   UNL     1      33.793 -17.277 -21.741  0.00  0.00    +0.292 HD
ENDBRANCH   5  11
TORSDOF 2
ENDMDL
MODEL 5
REMARK VINA RESULT:      -5.6      4.591      5.714
REMARK  Name = 7264
REMARK  2 active torsions:
REMARK  status: ('A' for Active; 'I' for Inactive)
REMARK    1  A    between atoms: C_2  and  N_8
REMARK    2  A    between atoms: C_5  and  O_11
REMARK                            x       y       z     vdW  Elec       q    Type
REMARK                         _______ _______ _______ _____ _____    ______ ____
ROOT
ATOM      1  C   UNL     1      34.322 -14.681 -22.810  0.00  0.00    -0.020 C 
ATOM      2  C   UNL     1      35.252 -16.911 -22.768  0.00  0.00    +0.075 C 
ATOM      3  C   UNL     1      34.852 -15.781 -23.484  0.00  0.00    +0.013 C 
ATOM      4  C   UNL     1      34.191 -14.710 -21.422  0.00  0.00    -0.001 C 
ATOM      5  C   UNL     1      35.121 -16.939 -21.380  0.00  0.00    +0.146 C 
ATOM      6  C   UNL     1      34.591 -15.840 -20.707  0.00  0.00    +0.038 C 
ATOM      7  C   UNL     1      33.894 -13.474 -23.573  0.00  0.00    +0.031 C 
ENDROOT
BRANCH   2   8
ATOM      8  N   UNL     1      35.787 -18.017 -23.464  0.00  0.00    -0.355 N 
ATOM      9  H   UNL     1      36.705 -18.320 -23.277  0.00  0.00    +0.142 HD
ATOM     10  H   UNL     1      35.241 -18.487 -24.135  0.00  0.00    +0.142 HD
ENDBRANCH   2   8
BRANCH   5  11
ATOM     11  O   UNL     1      35.505 -18.034 -20.663  0.00  0.00    -0.504 OA
ATOM     12  H   UNL     1      35.331 -18.075 -19.743  0.00  0.00    +0.292 HD
ENDBRANCH   5  11
TORSDOF 2
ENDMDL
MODEL 6
REMARK VINA RESULT:      -5.5      4.705      5.450
REMARK  Name = 7264
REMARK  2 active torsions:
REMARK  status: ('A' for Active; 'I' for Inactive)
REMARK    1  A    between atoms: C_2  and  N_8
REMARK    2  A    between atoms: C_5  and  O_11
REMARK                            x       y       z     vdW  Elec       q    Type
REMARK                         _______ _______ _______ _____ _____    ______ ____
ROOT
ATOM      1  C   UNL     1      34.748 -18.127 -23.540  0.00  0.00    -0.020 C 
ATOM      2  C   UNL     1      34.662 -15.899 -22.611  0.00  0.00    +0.075 C 
ATOM      3  C   UNL     1      34.602 -16.751 -23.714  0.00  0.00    +0.013 C 
ATOM      4  C   UNL     1      34.954 -18.651 -22.264  0.00  0.00    -0.001 C 
ATOM      5  C   UNL     1      34.868 -16.422 -21.335  0.00  0.00    +0.146 C 
ATOM      6  C   UNL     1      35.015 -17.798 -21.162  0.00  0.00    +0.038 C 
ATOM      7  C   UNL     1      34.684 -19.040 -24.718  0.00  0.00    +0.031 C 
ENDROOT
BRANCH   2   8
ATOM      8  N   UNL     1      34.512 -14.508 -22.802  0.00  0.00    -0.355 N 
ATOM      9  H   UNL     1      35.255 -13.978 -23.173  0.00  0.00    +0.142 HD
ATOM     10  H   UNL     1      33.664 -14.067 -22.566  0.00  0.00    +0.142 HD
ENDBRANCH   2   8
BRANCH   5  11
ATOM     11  O   UNL     1      34.931 -15.606 -20.245  0.00  0.00    -0.504 OA
ATOM     12  H   UNL     1      34.957 -14.676 -20.358  0.00  0.00    +0.292 HD
ENDBRANCH   5  11
TORSDOF 2
ENDMDL
MODEL 7
REMARK VINA RESULT:      -5.5      4.198      5.120
REMARK  Name = 7264
REMARK  2 active torsions:
REMARK  status: ('A' for Active; 'I' for Inactive)
REMARK    1  A    between atoms: C_2  and  N_8
REMARK    2  A    between atoms: C_5  and  O_11
REMARK                            x       y       z     vdW  Elec       q    Type
REMARK                         _______ _______ _______ _____ _____    ______ ____
ROOT
ATOM      1  C   UNL     1      34.704 -17.327 -23.884  0.00  0.00    -0.020 C 
ATOM      2  C   UNL     1      35.345 -17.715 -21.588  0.00  0.00    +0.075 C 
ATOM      3  C   UNL     1      35.239 -18.163 -22.905  0.00  0.00    +0.013 C 
ATOM      4  C   UNL     1      34.275 -16.043 -23.548  0.00  0.00    -0.001 C 
ATOM      5  C   UNL     1      34.916 -16.431 -21.251  0.00  0.00    +0.146 C 
ATOM      6  C   UNL     1      34.382 -15.595 -22.230  0.00  0.00    +0.038 C 
ATOM      7  C   UNL     1      34.590 -17.805 -25.292  0.00  0.00    +0.031 C 
ENDROOT
BRANCH   2   8
ATOM      8  N   UNL     1      35.888 -18.572 -20.606  0.00  0.00    -0.355 N 
ATOM      9  H   UNL     1      36.753 -18.357 -20.188  0.00  0.00    +0.142 HD
ATOM     10  H   UNL     1      35.401 -19.385 -20.339  0.00  0.00    +0.142 HD
ENDBRANCH   2   8
BRANCH   5  11
ATOM     11  O   UNL     1      35.011 -15.975 -19.970  0.00  0.00    -0.504 OA
ATOM     12  H   UNL     1      35.534 -16.438 -19.346  0.00  0.00    +0.292 HD
ENDBRANCH   5  11
TORSDOF 2
ENDMDL
MODEL 8
REMARK VINA RESULT:      -5.5      7.263      7.783
REMARK  Name = 7264
REMARK  2 active torsions:
REMARK  status: ('A' for Active; 'I' for Inactive)
REMARK    1  A    between atoms: C_2  and  N_8
REMARK    2  A    between atoms: C_5  and  O_11
REMARK                            x       y       z     vdW  Elec       q    Type
REMARK                         _______ _______ _______ _____ _____    ______ ____
ROOT
ATOM      1  C   UNL     1      29.046 -23.337 -15.411  0.00  0.00    -0.020 C 
ATOM      2  C   UNL     1      31.192 -23.411 -14.303  0.00  0.00    +0.075 C 
ATOM      3  C   UNL     1      30.143 -22.676 -14.858  0.00  0.00    +0.013 C 
ATOM      4  C   UNL     1      28.997 -24.731 -15.409  0.00  0.00    -0.001 C 
ATOM      5  C   UNL     1      31.143 -24.804 -14.302  0.00  0.00    +0.146 C 
ATOM      6  C   UNL     1      30.047 -25.464 -14.854  0.00  0.00    +0.038 C 
ATOM      7  C   UNL     1      27.924 -22.553 -16.004  0.00  0.00    +0.031 C 
ENDROOT
BRANCH   2   8
ATOM      8  N   UNL     1      32.296 -22.728 -13.747  0.00  0.00    -0.355 N 
ATOM      9  H   UNL     1      33.048 -23.237 -13.366  0.00  0.00    +0.142 HD
ATOM     10  H   UNL     1      32.314 -21.744 -13.742  0.00  0.00    +0.142 HD
ENDBRANCH   2   8
BRANCH   5  11
ATOM     11  O   UNL     1      32.158 -25.539 -13.765  0.00  0.00    -0.504 OA
ATOM     12  H   UNL     1      32.711 -25.164 -13.108  0.00  0.00    +0.292 HD
ENDBRANCH   5  11
TORSDOF 2
ENDMDL
MODEL 9
REMARK VINA RESULT:      -5.5      9.621     10.303
REMARK  Name = 7264
REMARK  2 active torsions:
REMARK  status: ('A' for Active; 'I' for Inactive)
REMARK    1  A    between atoms: C_2  and  N_8
REMARK    2  A    between atoms: C_5  and  O_11
REMARK                            x       y       z     vdW  Elec       q    Type
REMARK                         _______ _______ _______ _____ _____    ______ ____
ROOT
ATOM      1  C   UNL     1      42.448 -15.971 -17.468  0.00  0.00    -0.020 C 
ATOM      2  C   UNL     1      41.951 -13.982 -16.190  0.00  0.00    +0.075 C 
ATOM      3  C   UNL     1      42.609 -14.602 -17.253  0.00  0.00    +0.013 C 
ATOM      4  C   UNL     1      41.630 -16.719 -16.621  0.00  0.00    -0.001 C 
ATOM      5  C   UNL     1      41.134 -14.730 -15.343  0.00  0.00    +0.146 C 
ATOM      6  C   UNL     1      40.973 -16.098 -15.559  0.00  0.00    +0.038 C 
ATOM      7  C   UNL     1      43.150 -16.635 -18.604  0.00  0.00    +0.031 C 
ENDROOT
BRANCH   2   8
ATOM      8  N   UNL     1      42.123 -12.595 -15.984  0.00  0.00    -0.355 N 
ATOM      9  H   UNL     1      43.028 -12.220 -15.888  0.00  0.00    +0.142 HD
ATOM     10  H   UNL     1      41.337 -12.004 -15.938  0.00  0.00    +0.142 HD
ENDBRANCH   2   8
BRANCH   5  11
ATOM     11  O   UNL     1      40.484 -14.142 -14.299  0.00  0.00    -0.504 OA
ATOM     12  H   UNL     1      40.678 -14.404 -13.420  0.00  0.00    +0.292 HD
ENDBRANCH   5  11
TORSDOF 2
ENDMDL
