MODEL 1
REMARK VINA RESULT:     -12.3      0.000      0.000
REMARK  Name = 5287936
REMARK  3 active torsions:
REMARK  status: ('A' for Active; 'I' for Inactive)
REMARK    1  A    between atoms: C_5  and  C_10
REMARK    2  A    between atoms: C_7  and  C_21
REMARK    3  A    between atoms: C_11  and  N_17
REMARK                            x       y       z     vdW  Elec       q    Type
REMARK                         _______ _______ _______ _____ _____    ______ ____
ROOT
ATOM      1  N   UNL     1      34.072 -16.900 -23.690  0.00  0.00    -0.191 N 
ATOM      2  N   UNL     1      34.062 -17.612 -22.535  0.00  0.00    -0.162 NA
ATOM      3  N   UNL     1      33.852 -15.248 -25.113  0.00  0.00    -0.127 NA
ATOM      4  N   UNL     1      34.324 -16.348 -25.801  0.00  0.00    -0.127 NA
ATOM      5  C   UNL     1      33.707 -15.596 -23.855  0.00  0.00    +0.187 A 
ATOM      6  C   UNL     1      34.453 -17.334 -24.938  0.00  0.00    +0.187 A 
ATOM      7  C   UNL     1      34.473 -18.840 -22.672  0.00  0.00    +0.101 C 
ATOM      8  C   UNL     1      34.876 -18.672 -25.059  0.00  0.00    +0.042 C 
ATOM      9  C   UNL     1      34.901 -19.454 -23.970  0.00  0.00    +0.024 C 
ENDROOT
BRANCH   5  10
ATOM     10  C   UNL     1      33.235 -14.749 -22.787  0.00  0.00    +0.039 C 
ATOM     11  C   UNL     1      32.361 -12.628 -22.028  0.00  0.00    +0.054 C 
ATOM     12  C   UNL     1      32.818 -13.446 -23.061  0.00  0.00    +0.018 C 
ATOM     13  C   UNL     1      33.195 -15.233 -21.480  0.00  0.00    +0.003 C 
ATOM     14  C   UNL     1      32.321 -13.113 -20.720  0.00  0.00    +0.015 C 
ATOM     15  C   UNL     1      32.739 -14.415 -20.446  0.00  0.00    +0.001 C 
BRANCH  11  17
ATOM     16  O   UNL     1      33.759 -10.699 -23.673  0.00  0.00    -0.275 OA
ATOM     17  N   UNL     1      31.944 -11.325 -22.302  0.00  0.00    -0.257 N 
ATOM     18  C   UNL     1      30.631 -10.867 -21.750  0.00  0.00    +0.120 C 
ATOM     19  C   UNL     1      32.669 -10.431 -23.162  0.00  0.00    +0.230 C 
ATOM     20  C   UNL     1      32.046  -9.093 -23.489  0.00  0.00    +0.095 C 
ENDBRANCH  11  17
ENDBRANCH   5  10
BRANCH   7  21
ATOM     21  C   UNL     1      34.515 -19.722 -21.475  0.00  0.00    +0.019 C 
ATOM     22  C   UNL     1      35.741 -20.140 -20.962  0.00  0.00    +0.002 C 
ATOM     23  C   UNL     1      33.327 -20.129 -20.872  0.00  0.00    +0.002 C 
ATOM     24  C   UNL     1      35.779 -20.968 -19.841  0.00  0.00    +0.000 C 
ATOM     25  C   UNL     1      33.365 -20.956 -19.750  0.00  0.00    +0.000 C 
ATOM     26  C   UNL     1      34.591 -21.377 -19.235  0.00  0.00    +0.000 C 
ENDBRANCH   7  21
TORSDOF 3
ENDMDL
MODEL 2
REMARK VINA RESULT:     -12.3      2.716      7.940
REMARK  Name = 5287936
REMARK  3 active torsions:
REMARK  status: ('A' for Active; 'I' for Inactive)
REMARK    1  A    between atoms: C_5  and  C_10
REMARK    2  A    between atoms: C_7  and  C_21
REMARK    3  A    between atoms: C_11  and  N_17
REMARK                            x       y       z     vdW  Elec       q    Type
REMARK                         _______ _______ _______ _____ _____    ______ ____
ROOT
ATOM      1  N   UNL     1      33.764 -14.153 -24.946  0.00  0.00    -0.191 N 
ATOM      2  N   UNL     1      33.889 -12.993 -24.255  0.00  0.00    -0.162 NA
ATOM      3  N   UNL     1      33.693 -16.292 -25.418  0.00  0.00    -0.127 NA
ATOM      4  N   UNL     1      33.441 -15.588 -26.578  0.00  0.00    -0.127 NA
ATOM      5  C   UNL     1      33.884 -15.420 -24.455  0.00  0.00    +0.187 A 
ATOM      6  C   UNL     1      33.485 -14.305 -26.284  0.00  0.00    +0.187 A 
ATOM      7  C   UNL     1      33.714 -11.927 -24.982  0.00  0.00    +0.101 C 
ATOM      8  C   UNL     1      33.317 -13.135 -27.049  0.00  0.00    +0.042 C 
ATOM      9  C   UNL     1      33.422 -11.939 -26.452  0.00  0.00    +0.024 C 
ENDROOT
BRANCH   5  10
ATOM     10  C   UNL     1      34.179 -15.726 -23.076  0.00  0.00    +0.039 C 
ATOM     11  C   UNL     1      34.829 -17.317 -21.377  0.00  0.00    +0.054 C 
ATOM     12  C   UNL     1      34.544 -17.022 -22.710  0.00  0.00    +0.018 C 
ATOM     13  C   UNL     1      34.098 -14.725 -22.108  0.00  0.00    +0.003 C 
ATOM     14  C   UNL     1      34.748 -16.316 -20.409  0.00  0.00    +0.015 C 
ATOM     15  C   UNL     1      34.382 -15.020 -20.775  0.00  0.00    +0.001 C 
BRANCH  11  17
ATOM     16  O   UNL     1      33.023 -19.454 -20.633  0.00  0.00    -0.275 OA
ATOM     17  N   UNL     1      35.195 -18.613 -21.011  0.00  0.00    -0.257 N 
ATOM     18  C   UNL     1      36.645 -18.979 -21.045  0.00  0.00    +0.120 C 
ATOM     19  C   UNL     1      34.241 -19.639 -20.691  0.00  0.00    +0.230 C 
ATOM     20  C   UNL     1      34.756 -21.038 -20.442  0.00  0.00    +0.095 C 
ENDBRANCH  11  17
ENDBRANCH   5  10
BRANCH   7  21
ATOM     21  C   UNL     1      33.820 -10.591 -24.337  0.00  0.00    +0.019 C 
ATOM     22  C   UNL     1      32.845 -10.176 -23.433  0.00  0.00    +0.002 C 
ATOM     23  C   UNL     1      34.894  -9.758 -24.642  0.00  0.00    +0.002 C 
ATOM     24  C   UNL     1      32.944  -8.923 -22.831  0.00  0.00    +0.000 C 
ATOM     25  C   UNL     1      34.994  -8.505 -24.038  0.00  0.00    +0.000 C 
ATOM     26  C   UNL     1      34.019  -8.087 -23.133  0.00  0.00    +0.000 C 
ENDBRANCH   7  21
TORSDOF 3
ENDMDL
MODEL 3
REMARK VINA RESULT:     -11.7      0.927      1.141
REMARK  Name = 5287936
REMARK  3 active torsions:
REMARK  status: ('A' for Active; 'I' for Inactive)
REMARK    1  A    between atoms: C_5  and  C_10
REMARK    2  A    between atoms: C_7  and  C_21
REMARK    3  A    between atoms: C_11  and  N_17
REMARK                            x       y       z     vdW  Elec       q    Type
REMARK                         _______ _______ _______ _____ _____    ______ ____
ROOT
ATOM      1  N   UNL     1      34.100 -16.948 -23.747  0.00  0.00    -0.191 N 
ATOM      2  N   UNL     1      34.053 -17.636 -22.579  0.00  0.00    -0.162 NA
ATOM      3  N   UNL     1      33.940 -15.322 -25.207  0.00  0.00    -0.127 NA
ATOM      4  N   UNL     1      34.410 -16.442 -25.862  0.00  0.00    -0.127 NA
ATOM      5  C   UNL     1      33.760 -15.642 -23.946  0.00  0.00    +0.187 A 
ATOM      6  C   UNL     1      34.503 -17.413 -24.977  0.00  0.00    +0.187 A 
ATOM      7  C   UNL     1      34.447 -18.873 -22.681  0.00  0.00    +0.101 C 
ATOM      8  C   UNL     1      34.908 -18.759 -25.061  0.00  0.00    +0.042 C 
ATOM      9  C   UNL     1      34.896 -19.519 -23.957  0.00  0.00    +0.024 C 
ENDROOT
BRANCH   5  10
ATOM     10  C   UNL     1      33.277 -14.766 -22.906  0.00  0.00    +0.039 C 
ATOM     11  C   UNL     1      32.607 -12.566 -22.166  0.00  0.00    +0.054 C 
ATOM     12  C   UNL     1      33.075 -13.412 -23.172  0.00  0.00    +0.018 C 
ATOM     13  C   UNL     1      33.011 -15.275 -21.635  0.00  0.00    +0.003 C 
ATOM     14  C   UNL     1      32.341 -13.075 -20.895  0.00  0.00    +0.015 C 
ATOM     15  C   UNL     1      32.544 -14.430 -20.629  0.00  0.00    +0.001 C 
BRANCH  11  17
ATOM     16  O   UNL     1      30.992 -10.743 -20.599  0.00  0.00    -0.275 OA
ATOM     17  N   UNL     1      32.404 -11.211 -22.431  0.00  0.00    -0.257 N 
ATOM     18  C   UNL     1      33.113 -10.601 -23.598  0.00  0.00    +0.120 C 
ATOM     19  C   UNL     1      31.619 -10.353 -21.586  0.00  0.00    +0.230 C 
ATOM     20  C   UNL     1      31.586  -8.876 -21.905  0.00  0.00    +0.095 C 
ENDBRANCH  11  17
ENDBRANCH   5  10
BRANCH   7  21
ATOM     21  C   UNL     1      34.448 -19.731 -21.467  0.00  0.00    +0.019 C 
ATOM     22  C   UNL     1      35.654 -20.181 -20.934  0.00  0.00    +0.002 C 
ATOM     23  C   UNL     1      33.241 -20.083 -20.867  0.00  0.00    +0.002 C 
ATOM     24  C   UNL     1      35.654 -20.987 -19.797  0.00  0.00    +0.000 C 
ATOM     25  C   UNL     1      33.241 -20.889 -19.728  0.00  0.00    +0.000 C 
ATOM     26  C   UNL     1      34.447 -21.341 -19.193  0.00  0.00    +0.000 C 
ENDBRANCH   7  21
TORSDOF 3
ENDMDL
MODEL 4
REMARK VINA RESULT:     -11.5      2.882      7.338
REMARK  Name = 5287936
REMARK  3 active torsions:
REMARK  status: ('A' for Active; 'I' for Inactive)
REMARK    1  A    between atoms: C_5  and  C_10
REMARK    2  A    between atoms: C_7  and  C_21
REMARK    3  A    between atoms: C_11  and  N_17
REMARK                            x       y       z     vdW  Elec       q    Type
REMARK                         _______ _______ _______ _____ _____    ______ ____
ROOT
ATOM      1  N   UNL     1      34.101 -16.385 -24.060  0.00  0.00    -0.191 N 
ATOM      2  N   UNL     1      33.747 -15.657 -22.972  0.00  0.00    -0.162 NA
ATOM      3  N   UNL     1      34.933 -17.983 -25.308  0.00  0.00    -0.127 NA
ATOM      4  N   UNL     1      34.353 -17.046 -26.140  0.00  0.00    -0.127 NA
ATOM      5  C   UNL     1      34.774 -17.572 -24.071  0.00  0.00    +0.187 A 
ATOM      6  C   UNL     1      33.856 -16.092 -25.381  0.00  0.00    +0.187 A 
ATOM      7  C   UNL     1      33.100 -14.564 -23.260  0.00  0.00    +0.101 C 
ATOM      8  C   UNL     1      33.168 -14.896 -25.663  0.00  0.00    +0.042 C 
ATOM      9  C   UNL     1      32.777 -14.108 -24.651  0.00  0.00    +0.024 C 
ENDROOT
BRANCH   5  10
ATOM     10  C   UNL     1      35.232 -18.252 -22.883  0.00  0.00    +0.039 C 
ATOM     11  C   UNL     1      34.795 -19.708 -21.006  0.00  0.00    +0.054 C 
ATOM     12  C   UNL     1      34.352 -19.051 -22.154  0.00  0.00    +0.018 C 
ATOM     13  C   UNL     1      36.555 -18.109 -22.466  0.00  0.00    +0.003 C 
ATOM     14  C   UNL     1      36.118 -19.566 -20.588  0.00  0.00    +0.015 C 
ATOM     15  C   UNL     1      36.998 -18.765 -21.318  0.00  0.00    +0.001 C 
BRANCH  11  17
ATOM     16  O   UNL     1      35.497 -22.075 -19.492  0.00  0.00    -0.275 OA
ATOM     17  N   UNL     1      33.916 -20.509 -20.276  0.00  0.00    -0.257 N 
ATOM     18  C   UNL     1      32.477 -20.106 -20.208  0.00  0.00    +0.120 C 
ATOM     19  C   UNL     1      34.340 -21.650 -19.513  0.00  0.00    +0.230 C 
ATOM     20  C   UNL     1      33.313 -22.356 -18.655  0.00  0.00    +0.095 C 
ENDBRANCH  11  17
ENDBRANCH   5  10
BRANCH   7  21
ATOM     21  C   UNL     1      32.651 -13.680 -22.151  0.00  0.00    +0.019 C 
ATOM     22  C   UNL     1      32.791 -14.097 -20.830  0.00  0.00    +0.002 C 
ATOM     23  C   UNL     1      32.091 -12.437 -22.439  0.00  0.00    +0.002 C 
ATOM     24  C   UNL     1      32.369 -13.268 -19.791  0.00  0.00    +0.000 C 
ATOM     25  C   UNL     1      31.670 -11.608 -21.400  0.00  0.00    +0.000 C 
ATOM     26  C   UNL     1      31.808 -12.024 -20.076  0.00  0.00    +0.000 C 
ENDBRANCH   7  21
TORSDOF 3
ENDMDL
MODEL 5
REMARK VINA RESULT:     -11.3      4.961      8.590
REMARK  Name = 5287936
REMARK  3 active torsions:
REMARK  status: ('A' for Active; 'I' for Inactive)
REMARK    1  A    between atoms: C_5  and  C_10
REMARK    2  A    between atoms: C_7  and  C_21
REMARK    3  A    between atoms: C_11  and  N_17
REMARK                            x       y       z     vdW  Elec       q    Type
REMARK                         _______ _______ _______ _____ _____    ______ ____
ROOT
ATOM      1  N   UNL     1      33.814 -22.805 -17.237  0.00  0.00    -0.191 N 
ATOM      2  N   UNL     1      35.013 -23.104 -16.678  0.00  0.00    -0.162 NA
ATOM      3  N   UNL     1      32.304 -21.992 -18.601  0.00  0.00    -0.127 NA
ATOM      4  N   UNL     1      31.652 -22.700 -17.612  0.00  0.00    -0.127 NA
ATOM      5  C   UNL     1      33.593 -22.064 -18.361  0.00  0.00    +0.187 A 
ATOM      6  C   UNL     1      32.567 -23.185 -16.798  0.00  0.00    +0.187 A 
ATOM      7  C   UNL     1      34.925 -23.840 -15.607  0.00  0.00    +0.101 C 
ATOM      8  C   UNL     1      32.501 -23.967 -15.629  0.00  0.00    +0.042 C 
ATOM      9  C   UNL     1      33.636 -24.313 -15.005  0.00  0.00    +0.024 C 
ENDROOT
BRANCH   5  10
ATOM     10  C   UNL     1      34.640 -21.461 -19.149  0.00  0.00    +0.039 C 
ATOM     11  C   UNL     1      35.343 -19.898 -20.853  0.00  0.00    +0.054 C 
ATOM     12  C   UNL     1      34.329 -20.481 -20.092  0.00  0.00    +0.018 C 
ATOM     13  C   UNL     1      35.965 -21.860 -18.969  0.00  0.00    +0.003 C 
ATOM     14  C   UNL     1      36.667 -20.297 -20.672  0.00  0.00    +0.015 C 
ATOM     15  C   UNL     1      36.978 -21.278 -19.730  0.00  0.00    +0.001 C 
BRANCH  11  17
ATOM     16  O   UNL     1      35.361 -17.038 -20.406  0.00  0.00    -0.275 OA
ATOM     17  N   UNL     1      35.032 -18.917 -21.795  0.00  0.00    -0.257 N 
ATOM     18  C   UNL     1      34.703 -19.348 -23.189  0.00  0.00    +0.120 C 
ATOM     19  C   UNL     1      35.100 -17.509 -21.515  0.00  0.00    +0.230 C 
ATOM     20  C   UNL     1      34.872 -16.544 -22.657  0.00  0.00    +0.095 C 
ENDBRANCH  11  17
ENDBRANCH   5  10
BRANCH   7  21
ATOM     21  C   UNL     1      36.172 -24.241 -14.904  0.00  0.00    +0.019 C 
ATOM     22  C   UNL     1      37.411 -23.876 -15.424  0.00  0.00    +0.002 C 
ATOM     23  C   UNL     1      36.096 -24.982 -13.727  0.00  0.00    +0.002 C 
ATOM     24  C   UNL     1      38.581 -24.253 -14.765  0.00  0.00    +0.000 C 
ATOM     25  C   UNL     1      37.266 -25.359 -13.067  0.00  0.00    +0.000 C 
ATOM     26  C   UNL     1      38.508 -24.995 -13.586  0.00  0.00    +0.000 C 
ENDBRANCH   7  21
TORSDOF 3
ENDMDL
MODEL 6
REMARK VINA RESULT:     -11.3      8.722     12.905
REMARK  Name = 5287936
REMARK  3 active torsions:
REMARK  status: ('A' for Active; 'I' for Inactive)
REMARK    1  A    between atoms: C_5  and  C_10
REMARK    2  A    between atoms: C_7  and  C_21
REMARK    3  A    between atoms: C_11  and  N_17
REMARK                            x       y       z     vdW  Elec       q    Type
REMARK                         _______ _______ _______ _____ _____    ______ ____
ROOT
ATOM      1  N   UNL     1      33.245 -23.803 -14.933  0.00  0.00    -0.191 N 
ATOM      2  N   UNL     1      34.138 -23.299 -15.820  0.00  0.00    -0.162 NA
ATOM      3  N   UNL     1      32.401 -24.708 -13.124  0.00  0.00    -0.127 NA
ATOM      4  N   UNL     1      31.364 -24.443 -13.996  0.00  0.00    -0.127 NA
ATOM      5  C   UNL     1      33.516 -24.321 -13.699  0.00  0.00    +0.187 A 
ATOM      6  C   UNL     1      31.881 -23.900 -15.078  0.00  0.00    +0.187 A 
ATOM      7  C   UNL     1      33.595 -22.863 -16.922  0.00  0.00    +0.101 C 
ATOM      8  C   UNL     1      31.324 -23.436 -16.286  0.00  0.00    +0.042 C 
ATOM      9  C   UNL     1      32.128 -22.919 -17.225  0.00  0.00    +0.024 C 
ENDROOT
BRANCH   5  10
ATOM     10  C   UNL     1      34.841 -24.416 -13.137  0.00  0.00    +0.039 C 
ATOM     11  C   UNL     1      37.140 -25.140 -13.305  0.00  0.00    +0.054 C 
ATOM     12  C   UNL     1      35.859 -25.050 -13.850  0.00  0.00    +0.018 C 
ATOM     13  C   UNL     1      35.104 -23.873 -11.879  0.00  0.00    +0.003 C 
ATOM     14  C   UNL     1      37.403 -24.597 -12.048  0.00  0.00    +0.015 C 
ATOM     15  C   UNL     1      36.384 -23.964 -11.334  0.00  0.00    +0.001 C 
BRANCH  11  17
ATOM     16  O   UNL     1      39.955 -24.467 -13.221  0.00  0.00    -0.275 OA
ATOM     17  N   UNL     1      38.158 -25.773 -14.019  0.00  0.00    -0.257 N 
ATOM     18  C   UNL     1      37.803 -26.945 -14.878  0.00  0.00    +0.120 C 
ATOM     19  C   UNL     1      39.545 -25.412 -13.899  0.00  0.00    +0.230 C 
ATOM     20  C   UNL     1      40.567 -26.261 -14.620  0.00  0.00    +0.095 C 
ENDBRANCH  11  17
ENDBRANCH   5  10
BRANCH   7  21
ATOM     21  C   UNL     1      34.469 -22.280 -17.974  0.00  0.00    +0.019 C 
ATOM     22  C   UNL     1      35.831 -22.114 -17.733  0.00  0.00    +0.002 C 
ATOM     23  C   UNL     1      33.921 -21.899 -19.197  0.00  0.00    +0.002 C 
ATOM     24  C   UNL     1      36.650 -21.566 -18.719  0.00  0.00    +0.000 C 
ATOM     25  C   UNL     1      34.740 -21.352 -20.184  0.00  0.00    +0.000 C 
ATOM     26  C   UNL     1      36.104 -21.184 -19.945  0.00  0.00    +0.000 C 
ENDBRANCH   7  21
TORSDOF 3
ENDMDL
MODEL 7
REMARK VINA RESULT:     -11.0      4.671     11.389
REMARK  Name = 5287936
REMARK  3 active torsions:
REMARK  status: ('A' for Active; 'I' for Inactive)
REMARK    1  A    between atoms: C_5  and  C_10
REMARK    2  A    between atoms: C_7  and  C_21
REMARK    3  A    between atoms: C_11  and  N_17
REMARK                            x       y       z     vdW  Elec       q    Type
REMARK                         _______ _______ _______ _____ _____    ______ ____
ROOT
ATOM      1  N   UNL     1      32.429  -7.493 -22.848  0.00  0.00    -0.191 N 
ATOM      2  N   UNL     1      32.562  -6.794 -24.002  0.00  0.00    -0.162 NA
ATOM      3  N   UNL     1      32.568  -9.105 -21.369  0.00  0.00    -0.127 NA
ATOM      4  N   UNL     1      31.902  -8.044 -20.788  0.00  0.00    -0.127 NA
ATOM      5  C   UNL     1      32.873  -8.759 -22.599  0.00  0.00    +0.187 A 
ATOM      6  C   UNL     1      31.824  -7.082 -21.684  0.00  0.00    +0.187 A 
ATOM      7  C   UNL     1      32.046  -5.598 -23.954  0.00  0.00    +0.101 C 
ATOM      8  C   UNL     1      31.262  -5.791 -21.666  0.00  0.00    +0.042 C 
ATOM      9  C   UNL     1      31.344  -5.024 -22.762  0.00  0.00    +0.024 C 
ENDROOT
BRANCH   5  10
ATOM     10  C   UNL     1      33.574  -9.573 -23.562  0.00  0.00    +0.039 C 
ATOM     11  C   UNL     1      33.879 -11.690 -24.687  0.00  0.00    +0.054 C 
ATOM     12  C   UNL     1      33.202 -10.904 -23.754  0.00  0.00    +0.018 C 
ATOM     13  C   UNL     1      34.623  -9.028 -24.303  0.00  0.00    +0.003 C 
ATOM     14  C   UNL     1      34.928 -11.145 -25.427  0.00  0.00    +0.015 C 
ATOM     15  C   UNL     1      35.300  -9.814 -25.235  0.00  0.00    +0.001 C 
BRANCH  11  17
ATOM     16  O   UNL     1      33.078 -12.893 -27.196  0.00  0.00    -0.275 OA
ATOM     17  N   UNL     1      33.507 -13.021 -24.879  0.00  0.00    -0.257 N 
ATOM     18  C   UNL     1      33.564 -13.952 -23.709  0.00  0.00    +0.120 C 
ATOM     19  C   UNL     1      33.158 -13.563 -26.164  0.00  0.00    +0.230 C 
ATOM     20  C   UNL     1      32.905 -15.050 -26.266  0.00  0.00    +0.095 C 
ENDBRANCH  11  17
ENDBRANCH   5  10
BRANCH   7  21
ATOM     21  C   UNL     1      32.133  -4.728 -25.157  0.00  0.00    +0.019 C 
ATOM     22  C   UNL     1      31.345  -3.583 -25.244  0.00  0.00    +0.002 C 
ATOM     23  C   UNL     1      33.002  -5.062 -26.193  0.00  0.00    +0.002 C 
ATOM     24  C   UNL     1      31.425  -2.768 -26.372  0.00  0.00    +0.000 C 
ATOM     25  C   UNL     1      33.083  -4.246 -27.321  0.00  0.00    +0.000 C 
ATOM     26  C   UNL     1      32.295  -3.099 -27.411  0.00  0.00    +0.000 C 
ENDBRANCH   7  21
TORSDOF 3
ENDMDL
MODEL 8
REMARK VINA RESULT:     -10.8      4.968      8.439
REMARK  Name = 5287936
REMARK  3 active torsions:
REMARK  status: ('A' for Active; 'I' for Inactive)
REMARK    1  A    between atoms: C_5  and  C_10
REMARK    2  A    between atoms: C_7  and  C_21
REMARK    3  A    between atoms: C_11  and  N_17
REMARK                            x       y       z     vdW  Elec       q    Type
REMARK                         _______ _______ _______ _____ _____    ______ ____
ROOT
ATOM      1  N   UNL     1      35.299 -22.490 -17.122  0.00  0.00    -0.191 N 
ATOM      2  N   UNL     1      34.020 -22.790 -16.786  0.00  0.00    -0.162 NA
ATOM      3  N   UNL     1      37.027 -21.678 -18.198  0.00  0.00    -0.127 NA
ATOM      4  N   UNL     1      37.491 -22.359 -17.091  0.00  0.00    -0.127 NA
ATOM      5  C   UNL     1      35.717 -21.767 -18.202  0.00  0.00    +0.187 A 
ATOM      6  C   UNL     1      36.447 -22.842 -16.452  0.00  0.00    +0.187 A 
ATOM      7  C   UNL     1      33.915 -23.490 -15.692  0.00  0.00    +0.101 C 
ATOM      8  C   UNL     1      36.303 -23.613 -15.282  0.00  0.00    +0.042 C 
ATOM      9  C   UNL     1      35.076 -23.959 -14.869  0.00  0.00    +0.024 C 
ENDROOT
BRANCH   5  10
ATOM     10  C   UNL     1      34.828 -21.197 -19.185  0.00  0.00    +0.039 C 
ATOM     11  C   UNL     1      34.404 -19.602 -20.949  0.00  0.00    +0.054 C 
ATOM     12  C   UNL     1      35.264 -20.151 -19.998  0.00  0.00    +0.018 C 
ATOM     13  C   UNL     1      33.532 -21.693 -19.322  0.00  0.00    +0.003 C 
ATOM     14  C   UNL     1      33.108 -20.098 -21.086  0.00  0.00    +0.015 C 
ATOM     15  C   UNL     1      32.671 -21.144 -20.272  0.00  0.00    +0.001 C 
BRANCH  11  17
ATOM     16  O   UNL     1      34.835 -19.731 -23.809  0.00  0.00    -0.275 OA
ATOM     17  N   UNL     1      34.841 -18.556 -21.763  0.00  0.00    -0.257 N 
ATOM     18  C   UNL     1      35.068 -17.215 -21.139  0.00  0.00    +0.120 C 
ATOM     19  C   UNL     1      34.996 -18.679 -23.187  0.00  0.00    +0.230 C 
ATOM     20  C   UNL     1      35.344 -17.438 -23.976  0.00  0.00    +0.095 C 
ENDBRANCH  11  17
ENDBRANCH   5  10
BRANCH   7  21
ATOM     21  C   UNL     1      32.562 -23.878 -15.213  0.00  0.00    +0.019 C 
ATOM     22  C   UNL     1      32.427 -24.654 -14.064  0.00  0.00    +0.002 C 
ATOM     23  C   UNL     1      31.432 -23.465 -15.917  0.00  0.00    +0.002 C 
ATOM     24  C   UNL     1      31.158 -25.019 -13.616  0.00  0.00    +0.000 C 
ATOM     25  C   UNL     1      30.163 -23.830 -15.469  0.00  0.00    +0.000 C 
ATOM     26  C   UNL     1      30.026 -24.607 -14.319  0.00  0.00    +0.000 C 
ENDBRANCH   7  21
TORSDOF 3
ENDMDL
MODEL 9
REMARK VINA RESULT:     -10.7      4.124      9.271
REMARK  Name = 5287936
REMARK  3 active torsions:
REMARK  status: ('A' for Active; 'I' for Inactive)
REMARK    1  A    between atoms: C_5  and  C_10
REMARK    2  A    between atoms: C_7  and  C_21
REMARK    3  A    between atoms: C_11  and  N_17
REMARK                            x       y       z     vdW  Elec       q    Type
REMARK                         _______ _______ _______ _____ _____    ______ ____
ROOT
ATOM      1  N   UNL     1      32.076 -10.074 -20.804  0.00  0.00    -0.191 N 
ATOM      2  N   UNL     1      32.550  -9.514 -21.945  0.00  0.00    -0.162 NA
ATOM      3  N   UNL     1      31.461 -11.569 -19.324  0.00  0.00    -0.127 NA
ATOM      4  N   UNL     1      31.247 -10.317 -18.784  0.00  0.00    -0.127 NA
ATOM      5  C   UNL     1      31.955 -11.405 -20.530  0.00  0.00    +0.187 A 
ATOM      6  C   UNL     1      31.619  -9.427 -19.680  0.00  0.00    +0.187 A 
ATOM      7  C   UNL     1      32.560  -8.212 -21.927  0.00  0.00    +0.101 C 
ATOM      8  C   UNL     1      31.626  -8.018 -19.695  0.00  0.00    +0.042 C 
ATOM      9  C   UNL     1      32.078  -7.375 -20.780  0.00  0.00    +0.024 C 
ENDROOT
BRANCH   5  10
ATOM     10  C   UNL     1      32.323 -12.455 -21.449  0.00  0.00    +0.039 C 
ATOM     11  C   UNL     1      33.050 -13.156 -23.644  0.00  0.00    +0.054 C 
ATOM     12  C   UNL     1      32.693 -12.140 -22.757  0.00  0.00    +0.018 C 
ATOM     13  C   UNL     1      32.310 -13.785 -21.028  0.00  0.00    +0.003 C 
ATOM     14  C   UNL     1      33.037 -14.486 -23.224  0.00  0.00    +0.015 C 
ATOM     15  C   UNL     1      32.666 -14.800 -21.916  0.00  0.00    +0.001 C 
BRANCH  11  17
ATOM     16  O   UNL     1      32.652 -14.823 -25.978  0.00  0.00    -0.275 OA
ATOM     17  N   UNL     1      33.421 -12.841 -24.952  0.00  0.00    -0.257 N 
ATOM     18  C   UNL     1      34.038 -11.504 -25.215  0.00  0.00    +0.120 C 
ATOM     19  C   UNL     1      33.156 -13.701 -26.073  0.00  0.00    +0.230 C 
ATOM     20  C   UNL     1      33.484 -13.190 -27.457  0.00  0.00    +0.095 C 
ENDBRANCH  11  17
ENDBRANCH   5  10
BRANCH   7  21
ATOM     21  C   UNL     1      33.063  -7.479 -23.118  0.00  0.00    +0.019 C 
ATOM     22  C   UNL     1      34.363  -7.696 -23.569  0.00  0.00    +0.002 C 
ATOM     23  C   UNL     1      32.233  -6.576 -23.778  0.00  0.00    +0.002 C 
ATOM     24  C   UNL     1      34.835  -7.007 -24.686  0.00  0.00    +0.000 C 
ATOM     25  C   UNL     1      32.705  -5.888 -24.896  0.00  0.00    +0.000 C 
ATOM     26  C   UNL     1      34.006  -6.103 -25.349  0.00  0.00    +0.000 C 
ENDBRANCH   7  21
TORSDOF 3
ENDMDL
