MODEL 1
REMARK VINA RESULT:      -9.3      0.000      0.000
REMARK  Name = 5288032
REMARK  0 active torsions:
REMARK  status: ('A' for Active; 'I' for Inactive)
REMARK                            x       y       z     vdW  Elec       q    Type
REMARK                         _______ _______ _______ _____ _____    ______ ____
ROOT
ATOM      1  O   UNL     1      29.702 -22.695 -16.919  0.00  0.00    -0.269 OA
ATOM      2  O   UNL     1      34.461 -24.519 -12.218  0.00  0.00    -0.208 OA
ATOM      3  N   UNL     1      30.435 -23.616 -15.000  0.00  0.00    -0.300 N 
ATOM      4  N   UNL     1      32.219 -22.603 -18.091  0.00  0.00    -0.308 N 
ATOM      5  N   UNL     1      35.918 -24.524 -15.327  0.00  0.00    -0.266 N 
ATOM      6  N   UNL     1      36.465 -25.168 -13.257  0.00  0.00    -0.301 NA
ATOM      7  N   UNL     1      38.039 -25.483 -15.056  0.00  0.00    -0.320 N 
ATOM      8  C   UNL     1      33.646 -23.636 -14.921  0.00  0.00    +0.007 C 
ATOM      9  C   UNL     1      32.612 -23.386 -13.857  0.00  0.00    +0.050 C 
ATOM     10  C   UNL     1      33.297 -23.223 -16.253  0.00  0.00    +0.017 C 
ATOM     11  C   UNL     1      31.375 -24.236 -14.088  0.00  0.00    +0.094 C 
ATOM     12  C   UNL     1      32.025 -23.001 -16.777  0.00  0.00    +0.102 C 
ATOM     13  C   UNL     1      34.822 -24.203 -14.593  0.00  0.00    +0.144 C 
ATOM     14  C   UNL     1      30.667 -23.089 -16.256  0.00  0.00    +0.259 C 
ATOM     15  C   UNL     1      34.241 -22.955 -17.293  0.00  0.00    +0.017 C 
ATOM     16  C   UNL     1      33.543 -22.576 -18.412  0.00  0.00    +0.062 C 
ATOM     17  C   UNL     1      35.177 -24.630 -13.199  0.00  0.00    +0.221 C 
ATOM     18  C   UNL     1      36.857 -25.087 -14.511  0.00  0.00    +0.248 C 
ATOM     19  H   UNL     1      29.505 -23.564 -14.682  0.00  0.00    +0.150 HD
ATOM     20  H   UNL     1      31.494 -22.369 -18.714  0.00  0.00    +0.152 HD
ATOM     21  H   UNL     1      36.019 -24.376 -16.296  0.00  0.00    +0.157 HD
ATOM     22  H   UNL     1      38.201 -25.361 -16.020  0.00  0.00    +0.146 HD
ATOM     23  H   UNL     1      38.730 -25.891 -14.488  0.00  0.00    +0.146 HD
ENDROOT
TORSDOF 0
ENDMDL
MODEL 2
REMARK VINA RESULT:      -8.8      2.444      5.556
REMARK  Name = 5288032
REMARK  0 active torsions:
REMARK  status: ('A' for Active; 'I' for Inactive)
REMARK                            x       y       z     vdW  Elec       q    Type
REMARK                         _______ _______ _______ _____ _____    ______ ____
ROOT
ATOM      1  O   UNL     1      36.086 -25.349 -12.048  0.00  0.00    -0.269 OA
ATOM      2  O   UNL     1      37.113 -21.680 -17.841  0.00  0.00    -0.208 OA
ATOM      3  N   UNL     1      37.283 -24.551 -13.780  0.00  0.00    -0.300 N 
ATOM      4  N   UNL     1      33.626 -24.732 -13.180  0.00  0.00    -0.308 N 
ATOM      5  N   UNL     1      33.841 -22.717 -17.753  0.00  0.00    -0.266 N 
ATOM      6  N   UNL     1      35.213 -21.737 -19.221  0.00  0.00    -0.301 NA
ATOM      7  N   UNL     1      32.931 -22.198 -19.849  0.00  0.00    -0.320 N 
ATOM      8  C   UNL     1      35.375 -22.979 -15.831  0.00  0.00    +0.007 C 
ATOM      9  C   UNL     1      36.775 -22.713 -15.349  0.00  0.00    +0.050 C 
ATOM     10  C   UNL     1      34.490 -23.610 -14.889  0.00  0.00    +0.017 C 
ATOM     11  C   UNL     1      37.523 -24.012 -15.104  0.00  0.00    +0.094 C 
ATOM     12  C   UNL     1      34.828 -24.363 -13.766  0.00  0.00    +0.102 C 
ATOM     13  C   UNL     1      35.013 -22.616 -17.075  0.00  0.00    +0.144 C 
ATOM     14  C   UNL     1      36.077 -24.783 -13.146  0.00  0.00    +0.259 C 
ATOM     15  C   UNL     1      33.063 -23.555 -14.954  0.00  0.00    +0.017 C 
ATOM     16  C   UNL     1      32.562 -24.257 -13.887  0.00  0.00    +0.062 C 
ATOM     17  C   UNL     1      35.944 -21.958 -18.051  0.00  0.00    +0.221 C 
ATOM     18  C   UNL     1      33.998 -22.193 -19.004  0.00  0.00    +0.248 C 
ATOM     19  H   UNL     1      38.088 -24.786 -13.264  0.00  0.00    +0.150 HD
ATOM     20  H   UNL     1      33.550 -25.269 -12.359  0.00  0.00    +0.152 HD
ATOM     21  H   UNL     1      33.009 -23.108 -17.398  0.00  0.00    +0.157 HD
ATOM     22  H   UNL     1      32.071 -22.575 -19.553  0.00  0.00    +0.146 HD
ATOM     23  H   UNL     1      33.020 -21.825 -20.755  0.00  0.00    +0.146 HD
ENDROOT
TORSDOF 0
ENDMDL
MODEL 3
REMARK VINA RESULT:      -8.7      2.177      5.019
REMARK  Name = 5288032
REMARK  0 active torsions:
REMARK  status: ('A' for Active; 'I' for Inactive)
REMARK                            x       y       z     vdW  Elec       q    Type
REMARK                         _______ _______ _______ _____ _____    ______ ____
ROOT
ATOM      1  O   UNL     1      37.835 -22.411 -16.436  0.00  0.00    -0.269 OA
ATOM      2  O   UNL     1      31.809 -24.760 -13.938  0.00  0.00    -0.208 OA
ATOM      3  N   UNL     1      36.408 -23.082 -14.829  0.00  0.00    -0.300 N 
ATOM      4  N   UNL     1      35.852 -22.035 -18.345  0.00  0.00    -0.308 N 
ATOM      5  N   UNL     1      31.189 -22.903 -16.759  0.00  0.00    -0.266 N 
ATOM      6  N   UNL     1      29.995 -23.856 -15.125  0.00  0.00    -0.301 NA
ATOM      7  N   UNL     1      28.863 -22.644 -16.876  0.00  0.00    -0.320 N 
ATOM      8  C   UNL     1      33.473 -23.535 -16.054  0.00  0.00    +0.007 C 
ATOM      9  C   UNL     1      34.260 -24.286 -15.014  0.00  0.00    +0.050 C 
ATOM     10  C   UNL     1      34.238 -22.922 -17.106  0.00  0.00    +0.017 C 
ATOM     11  C   UNL     1      35.128 -23.342 -14.201  0.00  0.00    +0.094 C 
ATOM     12  C   UNL     1      35.589 -22.577 -17.096  0.00  0.00    +0.102 C 
ATOM     13  C   UNL     1      32.131 -23.482 -15.971  0.00  0.00    +0.144 C 
ATOM     14  C   UNL     1      36.670 -22.679 -16.125  0.00  0.00    +0.259 C 
ATOM     15  C   UNL     1      33.714 -22.560 -18.386  0.00  0.00    +0.017 C 
ATOM     16  C   UNL     1      34.734 -22.016 -19.124  0.00  0.00    +0.062 C 
ATOM     17  C   UNL     1      31.342 -24.126 -14.870  0.00  0.00    +0.221 C 
ATOM     18  C   UNL     1      29.953 -23.143 -16.231  0.00  0.00    +0.248 C 
ATOM     19  H   UNL     1      37.197 -23.208 -14.255  0.00  0.00    +0.150 HD
ATOM     20  H   UNL     1      36.733 -21.706 -18.633  0.00  0.00    +0.152 HD
ATOM     21  H   UNL     1      31.369 -22.390 -17.580  0.00  0.00    +0.157 HD
ATOM     22  H   UNL     1      28.977 -22.123 -17.703  0.00  0.00    +0.146 HD
ATOM     23  H   UNL     1      27.962 -22.804 -16.514  0.00  0.00    +0.146 HD
ENDROOT
TORSDOF 0
ENDMDL
MODEL 4
REMARK VINA RESULT:      -8.7      9.140     11.139
REMARK  Name = 5288032
REMARK  0 active torsions:
REMARK  status: ('A' for Active; 'I' for Inactive)
REMARK                            x       y       z     vdW  Elec       q    Type
REMARK                         _______ _______ _______ _____ _____    ______ ____
ROOT
ATOM      1  O   UNL     1      31.808 -12.067 -21.972  0.00  0.00    -0.269 OA
ATOM      2  O   UNL     1      35.451 -17.809 -20.620  0.00  0.00    -0.208 OA
ATOM      3  N   UNL     1      32.579 -13.746 -20.685  0.00  0.00    -0.300 N 
ATOM      4  N   UNL     1      32.475 -13.304 -24.368  0.00  0.00    -0.308 N 
ATOM      5  N   UNL     1      34.482 -17.863 -23.914  0.00  0.00    -0.266 N 
ATOM      6  N   UNL     1      35.433 -19.270 -22.459  0.00  0.00    -0.301 NA
ATOM      7  N   UNL     1      35.019 -19.996 -24.721  0.00  0.00    -0.320 N 
ATOM      8  C   UNL     1      34.189 -15.877 -22.470  0.00  0.00    +0.007 C 
ATOM      9  C   UNL     1      34.426 -15.335 -21.087  0.00  0.00    +0.050 C 
ATOM     10  C   UNL     1      33.578 -14.974 -23.408  0.00  0.00    +0.017 C 
ATOM     11  C   UNL     1      33.112 -15.057 -20.377  0.00  0.00    +0.094 C 
ATOM     12  C   UNL     1      32.819 -13.837 -23.134  0.00  0.00    +0.102 C 
ATOM     13  C   UNL     1      34.559 -17.135 -22.770  0.00  0.00    +0.144 C 
ATOM     14  C   UNL     1      32.373 -13.164 -21.922  0.00  0.00    +0.259 C 
ATOM     15  C   UNL     1      33.662 -15.100 -24.830  0.00  0.00    +0.017 C 
ATOM     16  C   UNL     1      32.971 -14.056 -25.390  0.00  0.00    +0.062 C 
ATOM     17  C   UNL     1      35.197 -18.069 -21.784  0.00  0.00    +0.221 C 
ATOM     18  C   UNL     1      35.002 -19.105 -23.692  0.00  0.00    +0.248 C 
ATOM     19  H   UNL     1      32.328 -13.195 -19.908  0.00  0.00    +0.150 HD
ATOM     20  H   UNL     1      31.940 -12.487 -24.490  0.00  0.00    +0.152 HD
ATOM     21  H   UNL     1      34.108 -17.545 -24.768  0.00  0.00    +0.157 HD
ATOM     22  H   UNL     1      34.660 -19.737 -25.601  0.00  0.00    +0.146 HD
ATOM     23  H   UNL     1      35.389 -20.897 -24.585  0.00  0.00    +0.146 HD
ENDROOT
TORSDOF 0
ENDMDL
MODEL 5
REMARK VINA RESULT:      -8.7      2.625      5.239
REMARK  Name = 5288032
REMARK  0 active torsions:
REMARK  status: ('A' for Active; 'I' for Inactive)
REMARK                            x       y       z     vdW  Elec       q    Type
REMARK                         _______ _______ _______ _____ _____    ______ ____
ROOT
ATOM      1  O   UNL     1      33.720 -24.342 -13.106  0.00  0.00    -0.269 OA
ATOM      2  O   UNL     1      32.944 -22.296 -19.685  0.00  0.00    -0.208 OA
ATOM      3  N   UNL     1      32.565 -23.662 -14.915  0.00  0.00    -0.300 N 
ATOM      4  N   UNL     1      36.182 -23.524 -14.099  0.00  0.00    -0.308 N 
ATOM      5  N   UNL     1      36.027 -21.281 -18.566  0.00  0.00    -0.266 N 
ATOM      6  N   UNL     1      34.739 -20.942 -20.363  0.00  0.00    -0.301 NA
ATOM      7  N   UNL     1      36.892 -19.866 -20.222  0.00  0.00    -0.320 N 
ATOM      8  C   UNL     1      34.574 -22.804 -17.270  0.00  0.00    +0.007 C 
ATOM      9  C   UNL     1      33.255 -23.528 -17.282  0.00  0.00    +0.050 C 
ATOM     10  C   UNL     1      35.404 -23.020 -16.116  0.00  0.00    +0.017 C 
ATOM     11  C   UNL     1      32.338 -23.009 -16.189  0.00  0.00    +0.094 C 
ATOM     12  C   UNL     1      35.018 -23.463 -14.852  0.00  0.00    +0.102 C 
ATOM     13  C   UNL     1      34.920 -22.023 -18.309  0.00  0.00    +0.144 C 
ATOM     14  C   UNL     1      33.755 -23.846 -14.237  0.00  0.00    +0.259 C 
ATOM     15  C   UNL     1      36.819 -22.813 -16.083  0.00  0.00    +0.017 C 
ATOM     16  C   UNL     1      37.265 -23.132 -14.827  0.00  0.00    +0.062 C 
ATOM     17  C   UNL     1      34.046 -21.804 -19.509  0.00  0.00    +0.221 C 
ATOM     18  C   UNL     1      35.884 -20.663 -19.776  0.00  0.00    +0.248 C 
ATOM     19  H   UNL     1      31.762 -24.022 -14.472  0.00  0.00    +0.150 HD
ATOM     20  H   UNL     1      36.220 -23.813 -13.159  0.00  0.00    +0.152 HD
ATOM     21  H   UNL     1      36.810 -21.199 -17.974  0.00  0.00    +0.157 HD
ATOM     22  H   UNL     1      37.702 -19.745 -19.675  0.00  0.00    +0.146 HD
ATOM     23  H   UNL     1      36.812 -19.411 -21.091  0.00  0.00    +0.146 HD
ENDROOT
TORSDOF 0
ENDMDL
MODEL 6
REMARK VINA RESULT:      -8.5      1.998      2.674
REMARK  Name = 5288032
REMARK  0 active torsions:
REMARK  status: ('A' for Active; 'I' for Inactive)
REMARK                            x       y       z     vdW  Elec       q    Type
REMARK                         _______ _______ _______ _____ _____    ______ ____
ROOT
ATOM      1  O   UNL     1      32.778 -21.626 -19.703  0.00  0.00    -0.269 OA
ATOM      2  O   UNL     1      34.584 -24.461 -13.639  0.00  0.00    -0.208 OA
ATOM      3  N   UNL     1      32.490 -22.916 -17.881  0.00  0.00    -0.300 N 
ATOM      4  N   UNL     1      35.528 -21.400 -19.378  0.00  0.00    -0.308 N 
ATOM      5  N   UNL     1      37.419 -23.932 -15.502  0.00  0.00    -0.266 N 
ATOM      6  N   UNL     1      36.876 -24.972 -13.598  0.00  0.00    -0.301 NA
ATOM      7  N   UNL     1      39.165 -24.996 -14.357  0.00  0.00    -0.320 N 
ATOM      8  C   UNL     1      35.204 -23.059 -16.169  0.00  0.00    +0.007 C 
ATOM      9  C   UNL     1      33.758 -22.978 -15.762  0.00  0.00    +0.050 C 
ATOM     10  C   UNL     1      35.556 -22.391 -17.392  0.00  0.00    +0.017 C 
ATOM     11  C   UNL     1      32.873 -23.728 -16.743  0.00  0.00    +0.094 C 
ATOM     12  C   UNL     1      34.717 -22.032 -18.446  0.00  0.00    +0.102 C 
ATOM     13  C   UNL     1      36.083 -23.717 -15.391  0.00  0.00    +0.144 C 
ATOM     14  C   UNL     1      33.294 -22.170 -18.721  0.00  0.00    +0.259 C 
ATOM     15  C   UNL     1      36.878 -21.965 -17.733  0.00  0.00    +0.017 C 
ATOM     16  C   UNL     1      36.825 -21.359 -18.962  0.00  0.00    +0.062 C 
ATOM     17  C   UNL     1      35.706 -24.410 -14.115  0.00  0.00    +0.221 C 
ATOM     18  C   UNL     1      37.846 -24.669 -14.435  0.00  0.00    +0.248 C 
ATOM     19  H   UNL     1      31.526 -22.893 -18.082  0.00  0.00    +0.150 HD
ATOM     20  H   UNL     1      35.207 -21.029 -20.231  0.00  0.00    +0.152 HD
ATOM     21  H   UNL     1      37.990 -23.608 -16.236  0.00  0.00    +0.157 HD
ATOM     22  H   UNL     1      39.787 -24.701 -15.060  0.00  0.00    +0.146 HD
ATOM     23  H   UNL     1      39.496 -25.527 -13.597  0.00  0.00    +0.146 HD
ENDROOT
TORSDOF 0
ENDMDL
MODEL 7
REMARK VINA RESULT:      -8.5      9.142     12.323
REMARK  Name = 5288032
REMARK  0 active torsions:
REMARK  status: ('A' for Active; 'I' for Inactive)
REMARK                            x       y       z     vdW  Elec       q    Type
REMARK                         _______ _______ _______ _____ _____    ______ ____
ROOT
ATOM      1  O   UNL     1      35.652 -18.998 -20.622  0.00  0.00    -0.269 OA
ATOM      2  O   UNL     1      32.758 -13.108 -22.860  0.00  0.00    -0.208 OA
ATOM      3  N   UNL     1      35.082 -16.823 -20.501  0.00  0.00    -0.300 N 
ATOM      4  N   UNL     1      35.193 -19.193 -23.355  0.00  0.00    -0.308 N 
ATOM      5  N   UNL     1      33.785 -14.940 -25.577  0.00  0.00    -0.266 N 
ATOM      6  N   UNL     1      32.998 -12.883 -25.185  0.00  0.00    -0.301 NA
ATOM      7  N   UNL     1      33.543 -13.540 -27.441  0.00  0.00    -0.320 N 
ATOM      8  C   UNL     1      33.792 -15.848 -23.277  0.00  0.00    +0.007 C 
ATOM      9  C   UNL     1      33.463 -15.529 -21.844  0.00  0.00    +0.050 C 
ATOM     10  C   UNL     1      34.298 -17.169 -23.532  0.00  0.00    +0.017 C 
ATOM     11  C   UNL     1      34.717 -15.508 -20.987  0.00  0.00    +0.094 C 
ATOM     12  C   UNL     1      34.899 -18.046 -22.630  0.00  0.00    +0.102 C 
ATOM     13  C   UNL     1      33.594 -14.922 -24.233  0.00  0.00    +0.144 C 
ATOM     14  C   UNL     1      35.233 -17.998 -21.213  0.00  0.00    +0.259 C 
ATOM     15  C   UNL     1      34.257 -17.824 -24.803  0.00  0.00    +0.017 C 
ATOM     16  C   UNL     1      34.816 -19.067 -24.658  0.00  0.00    +0.062 C 
ATOM     17  C   UNL     1      33.065 -13.545 -23.957  0.00  0.00    +0.221 C 
ATOM     18  C   UNL     1      33.426 -13.730 -26.098  0.00  0.00    +0.248 C 
ATOM     19  H   UNL     1      35.245 -16.889 -19.532  0.00  0.00    +0.150 HD
ATOM     20  H   UNL     1      35.619 -19.995 -22.976  0.00  0.00    +0.152 HD
ATOM     21  H   UNL     1      34.129 -15.704 -26.094  0.00  0.00    +0.157 HD
ATOM     22  H   UNL     1      33.880 -14.267 -28.012  0.00  0.00    +0.146 HD
ATOM     23  H   UNL     1      33.290 -12.677 -27.839  0.00  0.00    +0.146 HD
ENDROOT
TORSDOF 0
ENDMDL
MODEL 8
REMARK VINA RESULT:      -8.5     10.460     13.187
REMARK  Name = 5288032
REMARK  0 active torsions:
REMARK  status: ('A' for Active; 'I' for Inactive)
REMARK                            x       y       z     vdW  Elec       q    Type
REMARK                         _______ _______ _______ _____ _____    ______ ____
ROOT
ATOM      1  O   UNL     1      35.176 -17.535 -23.033  0.00  0.00    -0.269 OA
ATOM      2  O   UNL     1      31.887 -12.449 -19.659  0.00  0.00    -0.208 OA
ATOM      3  N   UNL     1      34.683 -16.243 -21.257  0.00  0.00    -0.300 N 
ATOM      4  N   UNL     1      34.039 -15.804 -24.884  0.00  0.00    -0.308 N 
ATOM      5  N   UNL     1      32.170 -11.579 -22.968  0.00  0.00    -0.266 N 
ATOM      6  N   UNL     1      31.534 -10.598 -21.062  0.00  0.00    -0.301 NA
ATOM      7  N   UNL     1      31.483  -9.344 -23.120  0.00  0.00    -0.320 N 
ATOM      8  C   UNL     1      32.747 -13.832 -22.128  0.00  0.00    +0.007 C 
ATOM      9  C   UNL     1      32.794 -14.693 -20.895  0.00  0.00    +0.050 C 
ATOM     10  C   UNL     1      33.155 -14.460 -23.355  0.00  0.00    +0.017 C 
ATOM     11  C   UNL     1      34.224 -15.067 -20.545  0.00  0.00    +0.094 C 
ATOM     12  C   UNL     1      33.952 -15.592 -23.516  0.00  0.00    +0.102 C 
ATOM     13  C   UNL     1      32.325 -12.557 -22.040  0.00  0.00    +0.144 C 
ATOM     14  C   UNL     1      34.634 -16.508 -22.612  0.00  0.00    +0.259 C 
ATOM     15  C   UNL     1      32.785 -14.008 -24.661  0.00  0.00    +0.017 C 
ATOM     16  C   UNL     1      33.347 -14.858 -25.579  0.00  0.00    +0.062 C 
ATOM     17  C   UNL     1      31.901 -11.911 -20.754  0.00  0.00    +0.221 C 
ATOM     18  C   UNL     1      31.706 -10.449 -22.358  0.00  0.00    +0.248 C 
ATOM     19  H   UNL     1      35.085 -16.948 -20.699  0.00  0.00    +0.150 HD
ATOM     20  H   UNL     1      34.537 -16.543 -25.301  0.00  0.00    +0.152 HD
ATOM     21  H   UNL     1      32.363 -11.670 -23.930  0.00  0.00    +0.157 HD
ATOM     22  H   UNL     1      31.656  -9.372 -24.089  0.00  0.00    +0.146 HD
ATOM     23  H   UNL     1      31.149  -8.518 -22.703  0.00  0.00    +0.146 HD
ENDROOT
TORSDOF 0
ENDMDL
MODEL 9
REMARK VINA RESULT:      -8.4      1.409      1.682
REMARK  Name = 5288032
REMARK  0 active torsions:
REMARK  status: ('A' for Active; 'I' for Inactive)
REMARK                            x       y       z     vdW  Elec       q    Type
REMARK                         _______ _______ _______ _____ _____    ______ ____
ROOT
ATOM      1  O   UNL     1      31.291 -23.055 -16.655  0.00  0.00    -0.269 OA
ATOM      2  O   UNL     1      35.130 -25.092 -11.252  0.00  0.00    -0.208 OA
ATOM      3  N   UNL     1      31.684 -24.112 -14.706  0.00  0.00    -0.300 N 
ATOM      4  N   UNL     1      33.980 -22.758 -17.287  0.00  0.00    -0.308 N 
ATOM      5  N   UNL     1      37.167 -24.764 -13.997  0.00  0.00    -0.266 N 
ATOM      6  N   UNL     1      37.333 -25.565 -11.915  0.00  0.00    -0.301 NA
ATOM      7  N   UNL     1      39.244 -25.656 -13.382  0.00  0.00    -0.320 N 
ATOM      8  C   UNL     1      34.813 -24.008 -13.986  0.00  0.00    +0.007 C 
ATOM      9  C   UNL     1      33.577 -23.895 -13.135  0.00  0.00    +0.050 C 
ATOM     10  C   UNL     1      34.709 -23.493 -15.325  0.00  0.00    +0.017 C 
ATOM     11  C   UNL     1      32.460 -24.771 -13.675  0.00  0.00    +0.094 C 
ATOM     12  C   UNL     1      33.554 -23.279 -16.074  0.00  0.00    +0.102 C 
ATOM     13  C   UNL     1      35.931 -24.553 -13.475  0.00  0.00    +0.144 C 
ATOM     14  C   UNL     1      32.128 -23.467 -15.845  0.00  0.00    +0.259 C 
ATOM     15  C   UNL     1      35.822 -23.097 -16.130  0.00  0.00    +0.017 C 
ATOM     16  C   UNL     1      35.337 -22.650 -17.333  0.00  0.00    +0.062 C 
ATOM     17  C   UNL     1      36.029 -25.087 -12.076  0.00  0.00    +0.221 C 
ATOM     18  C   UNL     1      37.958 -25.358 -13.056  0.00  0.00    +0.248 C 
ATOM     19  H   UNL     1      30.707 -24.126 -14.578  0.00  0.00    +0.150 HD
ATOM     20  H   UNL     1      33.378 -22.500 -18.022  0.00  0.00    +0.152 HD
ATOM     21  H   UNL     1      37.448 -24.527 -14.911  0.00  0.00    +0.157 HD
ATOM     22  H   UNL     1      39.586 -25.444 -14.281  0.00  0.00    +0.146 HD
ATOM     23  H   UNL     1      39.833 -26.084 -12.720  0.00  0.00    +0.146 HD
ENDROOT
TORSDOF 0
ENDMDL
