MODEL 1
REMARK VINA RESULT:     -12.0      0.000      0.000
REMARK  Name = 25195365
REMARK  5 active torsions:
REMARK  status: ('A' for Active; 'I' for Inactive)
REMARK    1  A    between atoms: C_1  and  C_3
REMARK    2  A    between atoms: C_1  and  C_17
REMARK    3  A    between atoms: C_4  and  C_9
REMARK    4  A    between atoms: C_6  and  O_15
REMARK    5  A    between atoms: C_18  and  C_23
REMARK                            x       y       z     vdW  Elec       q    Type
REMARK                         _______ _______ _______ _____ _____    ______ ____
ROOT
ATOM      1  C   UNL     1      35.366 -18.013 -23.436  0.00  0.00    +0.086 C 
ATOM      2  C   UNL     1      34.985 -18.670 -24.777  0.00  0.00    +0.019 C 
ENDROOT
BRANCH   1   3
ATOM      3  C   UNL     1      34.725 -16.681 -23.242  0.00  0.00    -0.007 C 
ATOM      4  C   UNL     1      33.526 -14.189 -22.878  0.00  0.00    +0.034 C 
ATOM      5  C   UNL     1      34.056 -16.067 -24.302  0.00  0.00    +0.034 C 
ATOM      6  C   UNL     1      33.456 -14.821 -24.120  0.00  0.00    +0.138 C 
ATOM      7  C   UNL     1      34.794 -16.048 -22.001  0.00  0.00    -0.003 C 
ATOM      8  C   UNL     1      34.194 -14.802 -21.819  0.00  0.00    +0.003 C 
BRANCH   4   9
ATOM      9  C   UNL     1      32.911 -12.895 -22.668  0.00  0.00    +0.003 C 
ATOM     10  C   UNL     1      33.315 -11.799 -23.431  0.00  0.00    +0.000 C 
ATOM     11  C   UNL     1      31.915 -12.744 -21.703  0.00  0.00    +0.000 C 
ATOM     12  C   UNL     1      32.723 -10.553 -23.230  0.00  0.00    +0.000 C 
ATOM     13  C   UNL     1      31.324 -11.497 -21.501  0.00  0.00    +0.000 C 
ATOM     14  C   UNL     1      31.727 -10.402 -22.265  0.00  0.00    +0.000 C 
ENDBRANCH   4   9
BRANCH   6  15
ATOM     15  O   UNL     1      32.808 -14.244 -25.171  0.00  0.00    -0.471 OA
ATOM     16  C   UNL     1      33.015 -14.826 -26.457  0.00  0.00    +0.252 C 
ENDBRANCH   6  15
ENDBRANCH   1   3
BRANCH   1  17
ATOM     17  C   UNL     1      35.066 -18.950 -22.323  0.00  0.00    -0.087 C 
ATOM     18  C   UNL     1      34.807 -19.718 -21.435  0.00  0.00    -0.076 C 
BRANCH  18  23
ATOM     19  N   UNL     1      35.242 -22.170 -18.683  0.00  0.00    -0.336 NA
ATOM     20  N   UNL     1      32.886 -21.784 -19.014  0.00  0.00    -0.317 NA
ATOM     21  N   UNL     1      32.135 -20.282 -20.679  0.00  0.00    -0.334 N 
ATOM     22  N   UNL     1      33.644 -23.272 -17.365  0.00  0.00    -0.283 N 
ATOM     23  C   UNL     1      34.498 -20.637 -20.384  0.00  0.00    +0.179 C 
ATOM     24  C   UNL     1      35.486 -21.296 -19.682  0.00  0.00    +0.120 C 
ATOM     25  C   UNL     1      33.204 -20.922 -20.002  0.00  0.00    +0.186 C 
ATOM     26  C   UNL     1      36.931 -21.075 -19.997  0.00  0.00    +0.064 C 
ATOM     27  C   UNL     1      33.939 -22.364 -18.406  0.00  0.00    +0.196 C 
ATOM     28  H   UNL     1      31.204 -20.473 -20.421  0.00  0.00    +0.144 HD
ATOM     29  H   UNL     1      32.324 -19.646 -21.406  0.00  0.00    +0.144 HD
ATOM     30  H   UNL     1      34.375 -23.725 -16.886  0.00  0.00    +0.156 HD
ATOM     31  H   UNL     1      32.708 -23.452 -17.119  0.00  0.00    +0.156 HD
ENDBRANCH  18  23
ENDBRANCH   1  17
TORSDOF 5
ENDMDL
MODEL 2
REMARK VINA RESULT:     -11.7      4.414      7.281
REMARK  Name = 25195365
REMARK  5 active torsions:
REMARK  status: ('A' for Active; 'I' for Inactive)
REMARK    1  A    between atoms: C_1  and  C_3
REMARK    2  A    between atoms: C_1  and  C_17
REMARK    3  A    between atoms: C_4  and  C_9
REMARK    4  A    between atoms: C_6  and  O_15
REMARK    5  A    between atoms: C_18  and  C_23
REMARK                            x       y       z     vdW  Elec       q    Type
REMARK                         _______ _______ _______ _____ _____    ______ ____
ROOT
ATOM      1  C   UNL     1      32.987 -23.089 -17.780  0.00  0.00    +0.086 C 
ATOM      2  C   UNL     1      31.590 -22.821 -17.188  0.00  0.00    +0.019 C 
ENDROOT
BRANCH   1   3
ATOM      3  C   UNL     1      33.405 -22.053 -18.767  0.00  0.00    -0.007 C 
ATOM      4  C   UNL     1      34.186 -20.114 -20.615  0.00  0.00    +0.034 C 
ATOM      5  C   UNL     1      34.746 -21.942 -19.137  0.00  0.00    +0.034 C 
ATOM      6  C   UNL     1      35.136 -20.972 -20.061  0.00  0.00    +0.138 C 
ATOM      7  C   UNL     1      32.456 -21.194 -19.321  0.00  0.00    -0.003 C 
ATOM      8  C   UNL     1      32.846 -20.225 -20.244  0.00  0.00    +0.003 C 
BRANCH   4   9
ATOM      9  C   UNL     1      34.570 -19.101 -21.574  0.00  0.00    +0.003 C 
ATOM     10  C   UNL     1      34.679 -19.425 -22.926  0.00  0.00    +0.000 C 
ATOM     11  C   UNL     1      34.831 -17.798 -21.146  0.00  0.00    +0.000 C 
ATOM     12  C   UNL     1      35.048 -18.449 -23.851  0.00  0.00    +0.000 C 
ATOM     13  C   UNL     1      35.200 -16.822 -22.071  0.00  0.00    +0.000 C 
ATOM     14  C   UNL     1      35.309 -17.147 -23.423  0.00  0.00    +0.000 C 
ENDBRANCH   4   9
BRANCH   6  15
ATOM     15  O   UNL     1      36.453 -20.886 -20.406  0.00  0.00    -0.471 OA
ATOM     16  C   UNL     1      37.309 -20.168 -19.520  0.00  0.00    +0.252 C 
ENDBRANCH   6  15
ENDBRANCH   1   3
BRANCH   1  17
ATOM     17  C   UNL     1      33.972 -23.247 -16.678  0.00  0.00    -0.087 C 
ATOM     18  C   UNL     1      34.751 -23.383 -15.774  0.00  0.00    -0.076 C 
BRANCH  18  23
ATOM     19  N   UNL     1      37.896 -23.284 -13.806  0.00  0.00    -0.336 NA
ATOM     20  N   UNL     1      36.169 -24.289 -12.459  0.00  0.00    -0.317 NA
ATOM     21  N   UNL     1      33.980 -24.561 -13.313  0.00  0.00    -0.334 N 
ATOM     22  N   UNL     1      38.345 -24.014 -11.622  0.00  0.00    -0.283 N 
ATOM     23  C   UNL     1      35.675 -23.550 -14.695  0.00  0.00    +0.179 C 
ATOM     24  C   UNL     1      36.990 -23.146 -14.796  0.00  0.00    +0.120 C 
ATOM     25  C   UNL     1      35.317 -24.121 -13.491  0.00  0.00    +0.186 C 
ATOM     26  C   UNL     1      37.506 -22.513 -16.049  0.00  0.00    +0.064 C 
ATOM     27  C   UNL     1      37.424 -23.854 -12.681  0.00  0.00    +0.196 C 
ATOM     28  H   UNL     1      33.707 -24.970 -12.462  0.00  0.00    +0.144 HD
ATOM     29  H   UNL     1      33.328 -24.456 -14.043  0.00  0.00    +0.144 HD
ATOM     30  H   UNL     1      39.275 -23.714 -11.729  0.00  0.00    +0.156 HD
ATOM     31  H   UNL     1      38.054 -24.426 -10.775  0.00  0.00    +0.156 HD
ENDBRANCH  18  23
ENDBRANCH   1  17
TORSDOF 5
ENDMDL
MODEL 3
REMARK VINA RESULT:     -11.6      4.145      7.330
REMARK  Name = 25195365
REMARK  5 active torsions:
REMARK  status: ('A' for Active; 'I' for Inactive)
REMARK    1  A    between atoms: C_1  and  C_3
REMARK    2  A    between atoms: C_1  and  C_17
REMARK    3  A    between atoms: C_4  and  C_9
REMARK    4  A    between atoms: C_6  and  O_15
REMARK    5  A    between atoms: C_18  and  C_23
REMARK                            x       y       z     vdW  Elec       q    Type
REMARK                         _______ _______ _______ _____ _____    ______ ____
ROOT
ATOM      1  C   UNL     1      33.028 -23.061 -17.830  0.00  0.00    +0.086 C 
ATOM      2  C   UNL     1      31.639 -22.798 -17.217  0.00  0.00    +0.019 C 
ENDROOT
BRANCH   1   3
ATOM      3  C   UNL     1      33.434 -22.016 -18.813  0.00  0.00    -0.007 C 
ATOM      4  C   UNL     1      34.191 -20.061 -20.653  0.00  0.00    +0.034 C 
ATOM      5  C   UNL     1      34.769 -21.904 -19.202  0.00  0.00    +0.034 C 
ATOM      6  C   UNL     1      35.148 -20.926 -20.122  0.00  0.00    +0.138 C 
ATOM      7  C   UNL     1      32.478 -21.150 -19.344  0.00  0.00    -0.003 C 
ATOM      8  C   UNL     1      32.856 -20.173 -20.264  0.00  0.00    +0.003 C 
BRANCH   4   9
ATOM      9  C   UNL     1      34.562 -19.039 -21.608  0.00  0.00    +0.003 C 
ATOM     10  C   UNL     1      34.718 -19.367 -22.955  0.00  0.00    +0.000 C 
ATOM     11  C   UNL     1      34.764 -17.726 -21.182  0.00  0.00    +0.000 C 
ATOM     12  C   UNL     1      35.076 -18.382 -23.875  0.00  0.00    +0.000 C 
ATOM     13  C   UNL     1      35.122 -16.741 -22.103  0.00  0.00    +0.000 C 
ATOM     14  C   UNL     1      35.278 -17.070 -23.449  0.00  0.00    +0.000 C 
ENDBRANCH   4   9
BRANCH   6  15
ATOM     15  O   UNL     1      36.459 -20.840 -20.486  0.00  0.00    -0.471 OA
ATOM     16  C   UNL     1      37.348 -20.220 -19.559  0.00  0.00    +0.252 C 
ENDBRANCH   6  15
ENDBRANCH   1   3
BRANCH   1  17
ATOM     17  C   UNL     1      34.027 -23.228 -16.742  0.00  0.00    -0.087 C 
ATOM     18  C   UNL     1      34.819 -23.355 -15.847  0.00  0.00    -0.076 C 
BRANCH  18  23
ATOM     19  N   UNL     1      36.205 -24.026 -12.470  0.00  0.00    -0.336 NA
ATOM     20  N   UNL     1      38.015 -23.440 -13.950  0.00  0.00    -0.317 NA
ATOM     21  N   UNL     1      37.595 -22.927 -16.220  0.00  0.00    -0.334 N 
ATOM     22  N   UNL     1      38.419 -23.952 -11.695  0.00  0.00    -0.283 N 
ATOM     23  C   UNL     1      35.756 -23.507 -14.778  0.00  0.00    +0.179 C 
ATOM     24  C   UNL     1      35.357 -23.870 -13.508  0.00  0.00    +0.120 C 
ATOM     25  C   UNL     1      37.111 -23.303 -14.941  0.00  0.00    +0.186 C 
ATOM     26  C   UNL     1      33.916 -24.121 -13.197  0.00  0.00    +0.064 C 
ATOM     27  C   UNL     1      37.501 -23.798 -12.758  0.00  0.00    +0.196 C 
ATOM     28  H   UNL     1      38.558 -22.777 -16.357  0.00  0.00    +0.144 HD
ATOM     29  H   UNL     1      36.968 -22.816 -16.971  0.00  0.00    +0.144 HD
ATOM     30  H   UNL     1      38.098 -24.212 -10.802  0.00  0.00    +0.156 HD
ATOM     31  H   UNL     1      39.379 -23.799 -11.849  0.00  0.00    +0.156 HD
ENDBRANCH  18  23
ENDBRANCH   1  17
TORSDOF 5
ENDMDL
MODEL 4
REMARK VINA RESULT:     -11.1      1.063      2.042
REMARK  Name = 25195365
REMARK  5 active torsions:
REMARK  status: ('A' for Active; 'I' for Inactive)
REMARK    1  A    between atoms: C_1  and  C_3
REMARK    2  A    between atoms: C_1  and  C_17
REMARK    3  A    between atoms: C_4  and  C_9
REMARK    4  A    between atoms: C_6  and  O_15
REMARK    5  A    between atoms: C_18  and  C_23
REMARK                            x       y       z     vdW  Elec       q    Type
REMARK                         _______ _______ _______ _____ _____    ______ ____
ROOT
ATOM      1  C   UNL     1      35.117 -17.702 -24.039  0.00  0.00    +0.086 C 
ATOM      2  C   UNL     1      34.415 -18.433 -25.199  0.00  0.00    +0.019 C 
ENDROOT
BRANCH   1   3
ATOM      3  C   UNL     1      34.530 -16.360 -23.761  0.00  0.00    -0.007 C 
ATOM      4  C   UNL     1      33.431 -13.849 -23.239  0.00  0.00    +0.034 C 
ATOM      5  C   UNL     1      33.807 -15.695 -24.751  0.00  0.00    +0.034 C 
ATOM      6  C   UNL     1      33.258 -14.439 -24.491  0.00  0.00    +0.138 C 
ATOM      7  C   UNL     1      34.703 -15.769 -22.509  0.00  0.00    -0.003 C 
ATOM      8  C   UNL     1      34.154 -14.514 -22.248  0.00  0.00    +0.003 C 
BRANCH   4   9
ATOM      9  C   UNL     1      32.870 -12.547 -22.947  0.00  0.00    +0.003 C 
ATOM     10  C   UNL     1      31.808 -12.430 -22.050  0.00  0.00    +0.000 C 
ATOM     11  C   UNL     1      33.392 -11.409 -23.563  0.00  0.00    +0.000 C 
ATOM     12  C   UNL     1      31.269 -11.175 -21.769  0.00  0.00    +0.000 C 
ATOM     13  C   UNL     1      32.851 -10.155 -23.282  0.00  0.00    +0.000 C 
ATOM     14  C   UNL     1      31.790 -10.038 -22.385  0.00  0.00    +0.000 C 
ENDBRANCH   4   9
BRANCH   6  15
ATOM     15  O   UNL     1      32.555 -13.813 -25.477  0.00  0.00    -0.471 OA
ATOM     16  C   UNL     1      33.041 -13.957 -26.809  0.00  0.00    +0.252 C 
ENDBRANCH   6  15
ENDBRANCH   1   3
BRANCH   1  17
ATOM     17  C   UNL     1      35.125 -18.573 -22.835  0.00  0.00    -0.087 C 
ATOM     18  C   UNL     1      35.155 -19.279 -21.863  0.00  0.00    -0.076 C 
BRANCH  18  23
ATOM     19  N   UNL     1      34.042 -21.466 -19.078  0.00  0.00    -0.336 NA
ATOM     20  N   UNL     1      36.435 -21.207 -18.954  0.00  0.00    -0.317 NA
ATOM     21  N   UNL     1      37.587 -19.885 -20.541  0.00  0.00    -0.334 N 
ATOM     22  N   UNL     1      35.281 -22.517 -17.386  0.00  0.00    -0.283 N 
ATOM     23  C   UNL     1      35.195 -20.115 -20.704  0.00  0.00    +0.179 C 
ATOM     24  C   UNL     1      34.052 -20.671 -20.169  0.00  0.00    +0.120 C 
ATOM     25  C   UNL     1      36.370 -20.421 -20.048  0.00  0.00    +0.186 C 
ATOM     26  C   UNL     1      32.713 -20.418 -20.785  0.00  0.00    +0.064 C 
ATOM     27  C   UNL     1      35.252 -21.689 -18.530  0.00  0.00    +0.196 C 
ATOM     28  H   UNL     1      38.435 -20.092 -20.087  0.00  0.00    +0.144 HD
ATOM     29  H   UNL     1      37.582 -19.306 -21.338  0.00  0.00    +0.144 HD
ATOM     30  H   UNL     1      34.446 -22.897 -17.032  0.00  0.00    +0.156 HD
ATOM     31  H   UNL     1      36.139 -22.715 -16.943  0.00  0.00    +0.156 HD
ENDBRANCH  18  23
ENDBRANCH   1  17
TORSDOF 5
ENDMDL
MODEL 5
REMARK VINA RESULT:     -11.0      1.060      2.090
REMARK  Name = 25195365
REMARK  5 active torsions:
REMARK  status: ('A' for Active; 'I' for Inactive)
REMARK    1  A    between atoms: C_1  and  C_3
REMARK    2  A    between atoms: C_1  and  C_17
REMARK    3  A    between atoms: C_4  and  C_9
REMARK    4  A    between atoms: C_6  and  O_15
REMARK    5  A    between atoms: C_18  and  C_23
REMARK                            x       y       z     vdW  Elec       q    Type
REMARK                         _______ _______ _______ _____ _____    ______ ____
ROOT
ATOM      1  C   UNL     1      35.131 -18.275 -23.990  0.00  0.00    +0.086 C 
ATOM      2  C   UNL     1      34.500 -18.960 -25.217  0.00  0.00    +0.019 C 
ENDROOT
BRANCH   1   3
ATOM      3  C   UNL     1      34.629 -16.887 -23.780  0.00  0.00    -0.007 C 
ATOM      4  C   UNL     1      33.689 -14.290 -23.390  0.00  0.00    +0.034 C 
ATOM      5  C   UNL     1      34.702 -16.301 -22.516  0.00  0.00    +0.034 C 
ATOM      6  C   UNL     1      34.231 -15.002 -22.321  0.00  0.00    +0.138 C 
ATOM      7  C   UNL     1      34.086 -16.173 -24.849  0.00  0.00    -0.003 C 
ATOM      8  C   UNL     1      33.616 -14.875 -24.654  0.00  0.00    +0.003 C 
BRANCH   4   9
ATOM      9  C   UNL     1      33.195 -12.942 -23.209  0.00  0.00    +0.003 C 
ATOM     10  C   UNL     1      32.171 -12.691 -22.295  0.00  0.00    +0.000 C 
ATOM     11  C   UNL     1      33.742 -11.892 -23.948  0.00  0.00    +0.000 C 
ATOM     12  C   UNL     1      31.695 -11.392 -22.120  0.00  0.00    +0.000 C 
ATOM     13  C   UNL     1      33.265 -10.593 -23.773  0.00  0.00    +0.000 C 
ATOM     14  C   UNL     1      32.242 -10.343 -22.859  0.00  0.00    +0.000 C 
ENDBRANCH   4   9
BRANCH   6  15
ATOM     15  O   UNL     1      34.316 -14.454 -21.075  0.00  0.00    -0.471 OA
ATOM     16  C   UNL     1      34.702 -15.322 -20.011  0.00  0.00    +0.252 C 
ENDBRANCH   6  15
ENDBRANCH   1   3
BRANCH   1  17
ATOM     17  C   UNL     1      34.939 -19.130 -22.790  0.00  0.00    -0.087 C 
ATOM     18  C   UNL     1      34.790 -19.804 -21.806  0.00  0.00    -0.076 C 
BRANCH  18  23
ATOM     19  N   UNL     1      35.560 -21.851 -18.807  0.00  0.00    -0.336 NA
ATOM     20  N   UNL     1      33.167 -21.673 -19.032  0.00  0.00    -0.317 NA
ATOM     21  N   UNL     1      32.213 -20.450 -20.818  0.00  0.00    -0.334 N 
ATOM     22  N   UNL     1      34.125 -22.884 -17.264  0.00  0.00    -0.283 N 
ATOM     23  C   UNL     1      34.610 -20.601 -20.632  0.00  0.00    +0.179 C 
ATOM     24  C   UNL     1      35.682 -21.096 -19.919  0.00  0.00    +0.120 C 
ATOM     25  C   UNL     1      33.364 -20.924 -20.137  0.00  0.00    +0.186 C 
ATOM     26  C   UNL     1      37.087 -20.818 -20.351  0.00  0.00    +0.064 C 
ATOM     27  C   UNL     1      34.292 -22.097 -18.426  0.00  0.00    +0.196 C 
ATOM     28  H   UNL     1      31.316 -20.671 -20.480  0.00  0.00    +0.144 HD
ATOM     29  H   UNL     1      32.314 -19.900 -21.629  0.00  0.00    +0.144 HD
ATOM     30  H   UNL     1      34.913 -23.220 -16.781  0.00  0.00    +0.156 HD
ATOM     31  H   UNL     1      33.220 -23.094 -16.939  0.00  0.00    +0.156 HD
ENDBRANCH  18  23
ENDBRANCH   1  17
TORSDOF 5
ENDMDL
MODEL 6
REMARK VINA RESULT:     -10.9      2.657      5.119
REMARK  Name = 25195365
REMARK  5 active torsions:
REMARK  status: ('A' for Active; 'I' for Inactive)
REMARK    1  A    between atoms: C_1  and  C_3
REMARK    2  A    between atoms: C_1  and  C_17
REMARK    3  A    between atoms: C_4  and  C_9
REMARK    4  A    between atoms: C_6  and  O_15
REMARK    5  A    between atoms: C_18  and  C_23
REMARK                            x       y       z     vdW  Elec       q    Type
REMARK                         _______ _______ _______ _____ _____    ______ ____
ROOT
ATOM      1  C   UNL     1      33.781 -13.324 -25.086  0.00  0.00    +0.086 C 
ATOM      2  C   UNL     1      32.665 -13.786 -26.043  0.00  0.00    +0.019 C 
ENDROOT
BRANCH   1   3
ATOM      3  C   UNL     1      33.416 -12.096 -24.323  0.00  0.00    -0.007 C 
ATOM      4  C   UNL     1      32.735  -9.798 -22.896  0.00  0.00    +0.034 C 
ATOM      5  C   UNL     1      32.474 -12.166 -23.296  0.00  0.00    +0.034 C 
ATOM      6  C   UNL     1      32.133 -11.017 -22.582  0.00  0.00    +0.138 C 
ATOM      7  C   UNL     1      34.017 -10.877 -24.636  0.00  0.00    -0.003 C 
ATOM      8  C   UNL     1      33.677  -9.728 -23.922  0.00  0.00    +0.003 C 
BRANCH   4   9
ATOM      9  C   UNL     1      32.395  -8.594 -22.168  0.00  0.00    +0.003 C 
ATOM     10  C   UNL     1      32.840  -8.422 -20.857  0.00  0.00    +0.000 C 
ATOM     11  C   UNL     1      31.623  -7.605 -22.778  0.00  0.00    +0.000 C 
ATOM     12  C   UNL     1      32.514  -7.261 -20.157  0.00  0.00    +0.000 C 
ATOM     13  C   UNL     1      31.296  -6.444 -22.076  0.00  0.00    +0.000 C 
ATOM     14  C   UNL     1      31.742  -6.273 -20.766  0.00  0.00    +0.000 C 
ENDBRANCH   4   9
BRANCH   6  15
ATOM     15  O   UNL     1      31.211 -11.115 -21.583  0.00  0.00    -0.471 OA
ATOM     16  C   UNL     1      31.582 -11.870 -20.432  0.00  0.00    +0.252 C 
ENDBRANCH   6  15
ENDBRANCH   1   3
BRANCH   1  17
ATOM     17  C   UNL     1      34.166 -14.448 -24.194  0.00  0.00    -0.087 C 
ATOM     18  C   UNL     1      34.482 -15.370 -23.491  0.00  0.00    -0.076 C 
BRANCH  18  23
ATOM     19  N   UNL     1      35.230 -17.377 -20.460  0.00  0.00    -0.336 NA
ATOM     20  N   UNL     1      35.595 -18.748 -22.408  0.00  0.00    -0.317 NA
ATOM     21  N   UNL     1      35.239 -17.876 -24.578  0.00  0.00    -0.334 N 
ATOM     22  N   UNL     1      35.944 -19.602 -20.250  0.00  0.00    -0.283 N 
ATOM     23  C   UNL     1      34.862 -16.470 -22.659  0.00  0.00    +0.179 C 
ATOM     24  C   UNL     1      34.879 -16.367 -21.283  0.00  0.00    +0.120 C 
ATOM     25  C   UNL     1      35.233 -17.696 -23.171  0.00  0.00    +0.186 C 
ATOM     26  C   UNL     1      34.499 -15.091 -20.602  0.00  0.00    +0.064 C 
ATOM     27  C   UNL     1      35.571 -18.522 -21.080  0.00  0.00    +0.196 C 
ATOM     28  H   UNL     1      35.502 -18.743 -24.961  0.00  0.00    +0.144 HD
ATOM     29  H   UNL     1      34.982 -17.132 -25.169  0.00  0.00    +0.144 HD
ATOM     30  H   UNL     1      35.945 -19.493 -19.272  0.00  0.00    +0.156 HD
ATOM     31  H   UNL     1      36.203 -20.464 -20.650  0.00  0.00    +0.156 HD
ENDBRANCH  18  23
ENDBRANCH   1  17
TORSDOF 5
ENDMDL
MODEL 7
REMARK VINA RESULT:     -10.9      2.630      5.079
REMARK  Name = 25195365
REMARK  5 active torsions:
REMARK  status: ('A' for Active; 'I' for Inactive)
REMARK    1  A    between atoms: C_1  and  C_3
REMARK    2  A    between atoms: C_1  and  C_17
REMARK    3  A    between atoms: C_4  and  C_9
REMARK    4  A    between atoms: C_6  and  O_15
REMARK    5  A    between atoms: C_18  and  C_23
REMARK                            x       y       z     vdW  Elec       q    Type
REMARK                         _______ _______ _______ _____ _____    ______ ____
ROOT
ATOM      1  C   UNL     1      33.829 -13.304 -25.131  0.00  0.00    +0.086 C 
ATOM      2  C   UNL     1      32.755 -13.714 -26.156  0.00  0.00    +0.019 C 
ENDROOT
BRANCH   1   3
ATOM      3  C   UNL     1      33.458 -12.081 -24.361  0.00  0.00    -0.007 C 
ATOM      4  C   UNL     1      32.764  -9.794 -22.923  0.00  0.00    +0.034 C 
ATOM      5  C   UNL     1      32.511 -12.160 -23.340  0.00  0.00    +0.034 C 
ATOM      6  C   UNL     1      32.163 -11.016 -22.621  0.00  0.00    +0.138 C 
ATOM      7  C   UNL     1      34.057 -10.859 -24.663  0.00  0.00    -0.003 C 
ATOM      8  C   UNL     1      33.711  -9.715 -23.944  0.00  0.00    +0.003 C 
BRANCH   4   9
ATOM      9  C   UNL     1      32.418  -8.595 -22.190  0.00  0.00    +0.003 C 
ATOM     10  C   UNL     1      32.818  -8.450 -20.861  0.00  0.00    +0.000 C 
ATOM     11  C   UNL     1      31.685  -7.584 -22.812  0.00  0.00    +0.000 C 
ATOM     12  C   UNL     1      32.486  -7.295 -20.155  0.00  0.00    +0.000 C 
ATOM     13  C   UNL     1      31.352  -6.429 -22.104  0.00  0.00    +0.000 C 
ATOM     14  C   UNL     1      31.752  -6.285 -20.777  0.00  0.00    +0.000 C 
ENDBRANCH   4   9
BRANCH   6  15
ATOM     15  O   UNL     1      31.236 -11.122 -21.627  0.00  0.00    -0.471 OA
ATOM     16  C   UNL     1      31.579 -11.933 -20.506  0.00  0.00    +0.252 C 
ENDBRANCH   6  15
ENDBRANCH   1   3
BRANCH   1  17
ATOM     17  C   UNL     1      34.133 -14.456 -24.244  0.00  0.00    -0.087 C 
ATOM     18  C   UNL     1      34.397 -15.395 -23.541  0.00  0.00    -0.076 C 
BRANCH  18  23
ATOM     19  N   UNL     1      35.197 -18.859 -22.476  0.00  0.00    -0.336 NA
ATOM     20  N   UNL     1      35.168 -17.436 -20.531  0.00  0.00    -0.317 NA
ATOM     21  N   UNL     1      34.697 -15.127 -20.735  0.00  0.00    -0.334 N 
ATOM     22  N   UNL     1      35.634 -19.729 -20.341  0.00  0.00    -0.283 N 
ATOM     23  C   UNL     1      34.716 -16.511 -22.706  0.00  0.00    +0.179 C 
ATOM     24  C   UNL     1      34.895 -17.777 -23.224  0.00  0.00    +0.120 C 
ATOM     25  C   UNL     1      34.867 -16.399 -21.340  0.00  0.00    +0.186 C 
ATOM     26  C   UNL     1      34.760 -18.034 -24.691  0.00  0.00    +0.064 C 
ATOM     27  C   UNL     1      35.318 -18.619 -21.156  0.00  0.00    +0.196 C 
ATOM     28  H   UNL     1      34.800 -15.028 -19.762  0.00  0.00    +0.144 HD
ATOM     29  H   UNL     1      34.476 -14.345 -21.291  0.00  0.00    +0.144 HD
ATOM     30  H   UNL     1      35.755 -20.617 -20.745  0.00  0.00    +0.156 HD
ATOM     31  H   UNL     1      35.735 -19.611 -19.368  0.00  0.00    +0.156 HD
ENDBRANCH  18  23
ENDBRANCH   1  17
TORSDOF 5
ENDMDL
MODEL 8
REMARK VINA RESULT:     -10.9      4.715      9.134
REMARK  Name = 25195365
REMARK  5 active torsions:
REMARK  status: ('A' for Active; 'I' for Inactive)
REMARK    1  A    between atoms: C_1  and  C_3
REMARK    2  A    between atoms: C_1  and  C_17
REMARK    3  A    between atoms: C_4  and  C_9
REMARK    4  A    between atoms: C_6  and  O_15
REMARK    5  A    between atoms: C_18  and  C_23
REMARK                            x       y       z     vdW  Elec       q    Type
REMARK                         _______ _______ _______ _____ _____    ______ ____
ROOT
ATOM      1  C   UNL     1      33.146 -14.526 -25.291  0.00  0.00    +0.086 C 
ATOM      2  C   UNL     1      33.891 -14.486 -26.639  0.00  0.00    +0.019 C 
ENDROOT
BRANCH   1   3
ATOM      3  C   UNL     1      33.671 -15.576 -24.371  0.00  0.00    -0.007 C 
ATOM      4  C   UNL     1      34.653 -17.541 -22.652  0.00  0.00    +0.034 C 
ATOM      5  C   UNL     1      33.634 -15.377 -22.991  0.00  0.00    +0.034 C 
ATOM      6  C   UNL     1      34.125 -16.359 -22.131  0.00  0.00    +0.138 C 
ATOM      7  C   UNL     1      34.199 -16.758 -24.891  0.00  0.00    -0.003 C 
ATOM      8  C   UNL     1      34.690 -17.740 -24.032  0.00  0.00    +0.003 C 
BRANCH   4   9
ATOM      9  C   UNL     1      35.168 -18.572 -21.778  0.00  0.00    +0.003 C 
ATOM     10  C   UNL     1      34.302 -19.516 -21.224  0.00  0.00    +0.000 C 
ATOM     11  C   UNL     1      36.532 -18.625 -21.488  0.00  0.00    +0.000 C 
ATOM     12  C   UNL     1      34.799 -20.510 -20.382  0.00  0.00    +0.000 C 
ATOM     13  C   UNL     1      37.029 -19.619 -20.645  0.00  0.00    +0.000 C 
ATOM     14  C   UNL     1      36.162 -20.561 -20.093  0.00  0.00    +0.000 C 
ENDBRANCH   4   9
BRANCH   6  15
ATOM     15  O   UNL     1      34.075 -16.139 -20.786  0.00  0.00    -0.471 OA
ATOM     16  C   UNL     1      33.085 -15.227 -20.316  0.00  0.00    +0.252 C 
ENDBRANCH   6  15
ENDBRANCH   1   3
BRANCH   1  17
ATOM     17  C   UNL     1      33.165 -13.175 -24.673  0.00  0.00    -0.087 C 
ATOM     18  C   UNL     1      33.160 -12.078 -24.182  0.00  0.00    -0.076 C 
BRANCH  18  23
ATOM     19  N   UNL     1      34.094  -8.567 -23.428  0.00  0.00    -0.336 NA
ATOM     20  N   UNL     1      32.188  -9.170 -22.081  0.00  0.00    -0.317 NA
ATOM     21  N   UNL     1      31.243 -11.332 -22.232  0.00  0.00    -0.334 N 
ATOM     22  N   UNL     1      33.135  -7.026 -21.940  0.00  0.00    -0.283 N 
ATOM     23  C   UNL     1      33.147 -10.773 -23.597  0.00  0.00    +0.179 C 
ATOM     24  C   UNL     1      34.068  -9.809 -23.953  0.00  0.00    +0.120 C 
ATOM     25  C   UNL     1      32.222 -10.393 -22.648  0.00  0.00    +0.186 C 
ATOM     26  C   UNL     1      35.125 -10.094 -24.971  0.00  0.00    +0.064 C 
ATOM     27  C   UNL     1      33.139  -8.318 -22.511  0.00  0.00    +0.196 C 
ATOM     28  H   UNL     1      30.575 -11.080 -21.556  0.00  0.00    +0.144 HD
ATOM     29  H   UNL     1      31.234 -12.237 -22.621  0.00  0.00    +0.144 HD
ATOM     30  H   UNL     1      33.806  -6.364 -22.218  0.00  0.00    +0.156 HD
ATOM     31  H   UNL     1      32.458  -6.789 -21.265  0.00  0.00    +0.156 HD
ENDBRANCH  18  23
ENDBRANCH   1  17
TORSDOF 5
ENDMDL
MODEL 9
REMARK VINA RESULT:     -10.8      5.319      9.193
REMARK  Name = 25195365
REMARK  5 active torsions:
REMARK  status: ('A' for Active; 'I' for Inactive)
REMARK    1  A    between atoms: C_1  and  C_3
REMARK    2  A    between atoms: C_1  and  C_17
REMARK    3  A    between atoms: C_4  and  C_9
REMARK    4  A    between atoms: C_6  and  O_15
REMARK    5  A    between atoms: C_18  and  C_23
REMARK                            x       y       z     vdW  Elec       q    Type
REMARK                         _______ _______ _______ _____ _____    ______ ____
ROOT
ATOM      1  C   UNL     1      33.140 -14.524 -25.367  0.00  0.00    +0.086 C 
ATOM      2  C   UNL     1      33.828 -14.551 -26.746  0.00  0.00    +0.019 C 
ENDROOT
BRANCH   1   3
ATOM      3  C   UNL     1      33.665 -15.567 -24.439  0.00  0.00    -0.007 C 
ATOM      4  C   UNL     1      34.647 -17.518 -22.704  0.00  0.00    +0.034 C 
ATOM      5  C   UNL     1      33.633 -15.354 -23.061  0.00  0.00    +0.034 C 
ATOM      6  C   UNL     1      34.124 -16.330 -22.193  0.00  0.00    +0.138 C 
ATOM      7  C   UNL     1      34.189 -16.755 -24.949  0.00  0.00    -0.003 C 
ATOM      8  C   UNL     1      34.679 -17.730 -24.082  0.00  0.00    +0.003 C 
BRANCH   4   9
ATOM      9  C   UNL     1      35.162 -18.543 -21.822  0.00  0.00    +0.003 C 
ATOM     10  C   UNL     1      36.525 -18.589 -21.528  0.00  0.00    +0.000 C 
ATOM     11  C   UNL     1      34.296 -19.484 -21.264  0.00  0.00    +0.000 C 
ATOM     12  C   UNL     1      37.022 -19.576 -20.677  0.00  0.00    +0.000 C 
ATOM     13  C   UNL     1      34.794 -20.471 -20.413  0.00  0.00    +0.000 C 
ATOM     14  C   UNL     1      36.156 -20.517 -20.120  0.00  0.00    +0.000 C 
ENDBRANCH   4   9
BRANCH   6  15
ATOM     15  O   UNL     1      34.079 -16.097 -20.850  0.00  0.00    -0.471 OA
ATOM     16  C   UNL     1      33.073 -15.202 -20.382  0.00  0.00    +0.252 C 
ENDBRANCH   6  15
ENDBRANCH   1   3
BRANCH   1  17
ATOM     17  C   UNL     1      33.236 -13.158 -24.791  0.00  0.00    -0.087 C 
ATOM     18  C   UNL     1      33.302 -12.060 -24.307  0.00  0.00    -0.076 C 
BRANCH  18  23
ATOM     19  N   UNL     1      32.488  -9.097 -22.225  0.00  0.00    -0.336 NA
ATOM     20  N   UNL     1      34.474  -8.624 -23.507  0.00  0.00    -0.317 NA
ATOM     21  N   UNL     1      35.366 -10.240 -24.985  0.00  0.00    -0.334 N 
ATOM     22  N   UNL     1      33.579  -7.028 -22.036  0.00  0.00    -0.283 N 
ATOM     23  C   UNL     1      33.380 -10.757 -23.724  0.00  0.00    +0.179 C 
ATOM     24  C   UNL     1      32.454 -10.317 -22.800  0.00  0.00    +0.120 C 
ATOM     25  C   UNL     1      34.377  -9.858 -24.042  0.00  0.00    +0.186 C 
ATOM     26  C   UNL     1      31.322 -11.194 -22.369  0.00  0.00    +0.064 C 
ATOM     27  C   UNL     1      33.511  -8.314 -22.618  0.00  0.00    +0.196 C 
ATOM     28  H   UNL     1      36.085  -9.613 -25.225  0.00  0.00    +0.144 HD
ATOM     29  H   UNL     1      35.331 -11.133 -25.399  0.00  0.00    +0.144 HD
ATOM     30  H   UNL     1      32.902  -6.749 -21.380  0.00  0.00    +0.156 HD
ATOM     31  H   UNL     1      34.306  -6.413 -22.287  0.00  0.00    +0.156 HD
ENDBRANCH  18  23
ENDBRANCH   1  17
TORSDOF 5
ENDMDL
