MODEL 1
REMARK VINA RESULT:      -6.4      0.000      0.000
REMARK  Name = 441314
REMARK  8 active torsions:
REMARK  status: ('A' for Active; 'I' for Inactive)
REMARK    1  A    between atoms: N_1  and  C_17
REMARK    2  A    between atoms: C_2  and  C_14
REMARK    3  A    between atoms: C_3  and  O_8
REMARK    4  A    between atoms: C_4  and  O_10
REMARK    5  A    between atoms: C_5  and  O_12
REMARK    6  A    between atoms: C_14  and  O_15
REMARK    7  A    between atoms: C_17  and  C_18
REMARK    8  A    between atoms: C_18  and  O_19
REMARK                            x       y       z     vdW  Elec       q    Type
REMARK                         _______ _______ _______ _____ _____    ______ ____
ROOT
ATOM      1  N   UNL     1      38.460 -25.503 -13.254  0.00  0.00    +0.395 N 
ATOM      2  C   UNL     1      37.167 -26.053 -13.712  0.00  0.00    +0.002 C 
ATOM      3  C   UNL     1      36.195 -24.965 -14.221  0.00  0.00    +0.123 C 
ATOM      4  C   UNL     1      35.998 -23.858 -13.180  0.00  0.00    +0.160 C 
ATOM      5  C   UNL     1      37.335 -23.338 -12.653  0.00  0.00    +0.119 C 
ATOM      6  C   UNL     1      38.248 -24.485 -12.217  0.00  0.00    -0.044 C 
ATOM      7  H   UNL     1      38.971 -26.288 -12.854  0.00  0.00    -0.079 HD
ENDROOT
BRANCH   3   8
ATOM      8  O   UNL     1      34.910 -25.537 -14.474  0.00  0.00    -0.384 OA
ATOM      9  H   UNL     1      35.010 -26.322 -15.035  0.00  0.00    +0.210 HD
ENDBRANCH   3   8
BRANCH   4  10
ATOM     10  O   UNL     1      35.301 -22.767 -13.784  0.00  0.00    -0.380 OA
ATOM     11  H   UNL     1      34.562 -22.501 -13.216  0.00  0.00    +0.211 HD
ENDBRANCH   4  10
BRANCH   5  12
ATOM     12  O   UNL     1      37.101 -22.480 -11.537  0.00  0.00    -0.384 OA
ATOM     13  H   UNL     1      37.717 -22.704 -10.821  0.00  0.00    +0.210 HD
ENDBRANCH   5  12
BRANCH   2  14
ATOM     14  C   UNL     1      37.350 -27.185 -14.735  0.00  0.00    +0.119 C 
BRANCH  14  15
ATOM     15  O   UNL     1      36.913 -26.710 -15.991  0.00  0.00    -0.384 OA
ATOM     16  H   UNL     1      37.540 -26.990 -16.677  0.00  0.00    +0.210 HD
ENDBRANCH  14  15
ENDBRANCH   2  14
BRANCH   1  17
ATOM     17  C   UNL     1      39.319 -25.004 -14.326  0.00  0.00    -0.045 C 
BRANCH  17  18
ATOM     18  C   UNL     1      40.481 -25.955 -14.569  0.00  0.00    +0.115 C 
BRANCH  18  19
ATOM     19  O   UNL     1      40.659 -26.109 -15.971  0.00  0.00    -0.384 OA
ATOM     20  H   UNL     1      40.207 -26.915 -16.267  0.00  0.00    +0.210 HD
ENDBRANCH  18  19
ENDBRANCH  17  18
ENDBRANCH   1  17
TORSDOF 8
ENDMDL
MODEL 2
REMARK VINA RESULT:      -6.4      2.185      4.502
REMARK  Name = 441314
REMARK  8 active torsions:
REMARK  status: ('A' for Active; 'I' for Inactive)
REMARK    1  A    between atoms: N_1  and  C_17
REMARK    2  A    between atoms: C_2  and  C_14
REMARK    3  A    between atoms: C_3  and  O_8
REMARK    4  A    between atoms: C_4  and  O_10
REMARK    5  A    between atoms: C_5  and  O_12
REMARK    6  A    between atoms: C_14  and  O_15
REMARK    7  A    between atoms: C_17  and  C_18
REMARK    8  A    between atoms: C_18  and  O_19
REMARK                            x       y       z     vdW  Elec       q    Type
REMARK                         _______ _______ _______ _____ _____    ______ ____
ROOT
ATOM      1  N   UNL     1      35.622 -25.009 -13.887  0.00  0.00    +0.395 N 
ATOM      2  C   UNL     1      36.164 -25.002 -12.511  0.00  0.00    +0.002 C 
ATOM      3  C   UNL     1      37.613 -24.474 -12.437  0.00  0.00    +0.123 C 
ATOM      4  C   UNL     1      38.535 -25.229 -13.401  0.00  0.00    +0.160 C 
ATOM      5  C   UNL     1      37.941 -25.299 -14.807  0.00  0.00    +0.119 C 
ATOM      6  C   UNL     1      36.492 -25.787 -14.779  0.00  0.00    -0.044 C 
ATOM      7  H   UNL     1      34.712 -25.464 -13.826  0.00  0.00    -0.079 HD
ENDROOT
BRANCH   3   8
ATOM      8  O   UNL     1      38.136 -24.664 -11.121  0.00  0.00    -0.384 OA
ATOM      9  H   UNL     1      39.047 -24.333 -11.084  0.00  0.00    +0.210 HD
ENDBRANCH   3   8
BRANCH   4  10
ATOM     10  O   UNL     1      39.789 -24.549 -13.478  0.00  0.00    -0.380 OA
ATOM     11  H   UNL     1      40.505 -25.165 -13.259  0.00  0.00    +0.211 HD
ENDBRANCH   4  10
BRANCH   5  12
ATOM     12  O   UNL     1      38.717 -26.194 -15.604  0.00  0.00    -0.384 OA
ATOM     13  H   UNL     1      39.410 -26.598 -15.057  0.00  0.00    +0.210 HD
ENDBRANCH   5  12
BRANCH   2  14
ATOM     14  C   UNL     1      35.235 -24.273 -11.528  0.00  0.00    +0.119 C 
BRANCH  14  15
ATOM     15  O   UNL     1      35.263 -24.974 -10.303  0.00  0.00    -0.384 OA
ATOM     16  H   UNL     1      34.801 -24.457  -9.625  0.00  0.00    +0.210 HD
ENDBRANCH  14  15
ENDBRANCH   2  14
BRANCH   1  17
ATOM     17  C   UNL     1      35.341 -23.683 -14.434  0.00  0.00    -0.045 C 
BRANCH  17  18
ATOM     18  C   UNL     1      34.541 -23.793 -15.723  0.00  0.00    +0.115 C 
BRANCH  18  19
ATOM     19  O   UNL     1      35.260 -23.145 -16.763  0.00  0.00    -0.384 OA
ATOM     20  H   UNL     1      35.864 -23.778 -17.181  0.00  0.00    +0.210 HD
ENDBRANCH  18  19
ENDBRANCH  17  18
ENDBRANCH   1  17
TORSDOF 8
ENDMDL
MODEL 3
REMARK VINA RESULT:      -6.3      1.596      3.470
REMARK  Name = 441314
REMARK  8 active torsions:
REMARK  status: ('A' for Active; 'I' for Inactive)
REMARK    1  A    between atoms: N_1  and  C_17
REMARK    2  A    between atoms: C_2  and  C_14
REMARK    3  A    between atoms: C_3  and  O_8
REMARK    4  A    between atoms: C_4  and  O_10
REMARK    5  A    between atoms: C_5  and  O_12
REMARK    6  A    between atoms: C_14  and  O_15
REMARK    7  A    between atoms: C_17  and  C_18
REMARK    8  A    between atoms: C_18  and  O_19
REMARK                            x       y       z     vdW  Elec       q    Type
REMARK                         _______ _______ _______ _____ _____    ______ ____
ROOT
ATOM      1  N   UNL     1      37.504 -23.876 -14.278  0.00  0.00    +0.395 N 
ATOM      2  C   UNL     1      36.751 -23.430 -13.088  0.00  0.00    +0.002 C 
ATOM      3  C   UNL     1      35.392 -24.146 -12.931  0.00  0.00    +0.123 C 
ATOM      4  C   UNL     1      34.548 -24.034 -14.205  0.00  0.00    +0.160 C 
ATOM      5  C   UNL     1      35.349 -24.427 -15.445  0.00  0.00    +0.119 C 
ATOM      6  C   UNL     1      36.697 -23.705 -15.493  0.00  0.00    -0.044 C 
ATOM      7  H   UNL     1      38.324 -23.272 -14.333  0.00  0.00    -0.079 HD
ENDROOT
BRANCH   3   8
ATOM      8  O   UNL     1      34.641 -23.544 -11.874  0.00  0.00    -0.384 OA
ATOM      9  H   UNL     1      34.244 -24.237 -11.324  0.00  0.00    +0.210 HD
ENDBRANCH   3   8
BRANCH   4  10
ATOM     10  O   UNL     1      33.426 -24.911 -14.101  0.00  0.00    -0.380 OA
ATOM     11  H   UNL     1      33.568 -25.533 -13.371  0.00  0.00    +0.211 HD
ENDBRANCH   4  10
BRANCH   5  12
ATOM     12  O   UNL     1      34.602 -24.094 -16.616  0.00  0.00    -0.384 OA
ATOM     13  H   UNL     1      33.658 -24.043 -16.394  0.00  0.00    +0.210 HD
ENDBRANCH   5  12
BRANCH   2  14
ATOM     14  C   UNL     1      37.595 -23.510 -11.806  0.00  0.00    +0.119 C 
BRANCH  14  15
ATOM     15  O   UNL     1      37.304 -22.372 -11.023  0.00  0.00    -0.384 OA
ATOM     16  H   UNL     1      38.084 -21.796 -10.988  0.00  0.00    +0.210 HD
ENDBRANCH  14  15
ENDBRANCH   2  14
BRANCH   1  17
ATOM     17  C   UNL     1      38.044 -25.231 -14.181  0.00  0.00    -0.045 C 
BRANCH  17  18
ATOM     18  C   UNL     1      39.541 -25.233 -14.450  0.00  0.00    +0.115 C 
BRANCH  18  19
ATOM     19  O   UNL     1      39.762 -25.628 -15.797  0.00  0.00    -0.384 OA
ATOM     20  H   UNL     1      40.538 -26.208 -15.841  0.00  0.00    +0.210 HD
ENDBRANCH  18  19
ENDBRANCH  17  18
ENDBRANCH   1  17
TORSDOF 8
ENDMDL
MODEL 4
REMARK VINA RESULT:      -6.3      1.476      3.206
REMARK  Name = 441314
REMARK  8 active torsions:
REMARK  status: ('A' for Active; 'I' for Inactive)
REMARK    1  A    between atoms: N_1  and  C_17
REMARK    2  A    between atoms: C_2  and  C_14
REMARK    3  A    between atoms: C_3  and  O_8
REMARK    4  A    between atoms: C_4  and  O_10
REMARK    5  A    between atoms: C_5  and  O_12
REMARK    6  A    between atoms: C_14  and  O_15
REMARK    7  A    between atoms: C_17  and  C_18
REMARK    8  A    between atoms: C_18  and  O_19
REMARK                            x       y       z     vdW  Elec       q    Type
REMARK                         _______ _______ _______ _____ _____    ______ ____
ROOT
ATOM      1  N   UNL     1      37.000 -25.191 -14.012  0.00  0.00    +0.395 N 
ATOM      2  C   UNL     1      38.134 -24.398 -13.493  0.00  0.00    +0.002 C 
ATOM      3  C   UNL     1      38.059 -24.166 -11.968  0.00  0.00    +0.123 C 
ATOM      4  C   UNL     1      36.714 -23.557 -11.559  0.00  0.00    +0.160 C 
ATOM      5  C   UNL     1      35.541 -24.334 -12.154  0.00  0.00    +0.119 C 
ATOM      6  C   UNL     1      35.723 -24.557 -13.657  0.00  0.00    -0.044 C 
ATOM      7  H   UNL     1      37.102 -25.194 -15.026  0.00  0.00    -0.079 HD
ENDROOT
BRANCH   3   8
ATOM      8  O   UNL     1      39.076 -23.247 -11.563  0.00  0.00    -0.384 OA
ATOM      9  H   UNL     1      38.881 -22.921 -10.670  0.00  0.00    +0.210 HD
ENDBRANCH   3   8
BRANCH   4  10
ATOM     10  O   UNL     1      36.597 -23.593 -10.136  0.00  0.00    -0.380 OA
ATOM     11  H   UNL     1      36.231 -22.753  -9.819  0.00  0.00    +0.211 HD
ENDBRANCH   4  10
BRANCH   5  12
ATOM     12  O   UNL     1      34.332 -23.607 -11.936  0.00  0.00    -0.384 OA
ATOM     13  H   UNL     1      34.289 -22.857 -12.551  0.00  0.00    +0.210 HD
ENDBRANCH   5  12
BRANCH   2  14
ATOM     14  C   UNL     1      39.490 -24.981 -13.919  0.00  0.00    +0.119 C 
BRANCH  14  15
ATOM     15  O   UNL     1      39.666 -24.711 -15.294  0.00  0.00    -0.384 OA
ATOM     16  H   UNL     1      39.197 -23.893 -15.524  0.00  0.00    +0.210 HD
ENDBRANCH  14  15
ENDBRANCH   2  14
BRANCH   1  17
ATOM     17  C   UNL     1      37.022 -26.602 -13.630  0.00  0.00    -0.045 C 
BRANCH  17  18
ATOM     18  C   UNL     1      37.086 -27.491 -14.862  0.00  0.00    +0.115 C 
BRANCH  18  19
ATOM     19  O   UNL     1      37.281 -26.671 -16.007  0.00  0.00    -0.384 OA
ATOM     20  H   UNL     1      37.639 -27.207 -16.731  0.00  0.00    +0.210 HD
ENDBRANCH  18  19
ENDBRANCH  17  18
ENDBRANCH   1  17
TORSDOF 8
ENDMDL
MODEL 5
REMARK VINA RESULT:      -6.3      2.160      4.589
REMARK  Name = 441314
REMARK  8 active torsions:
REMARK  status: ('A' for Active; 'I' for Inactive)
REMARK    1  A    between atoms: N_1  and  C_17
REMARK    2  A    between atoms: C_2  and  C_14
REMARK    3  A    between atoms: C_3  and  O_8
REMARK    4  A    between atoms: C_4  and  O_10
REMARK    5  A    between atoms: C_5  and  O_12
REMARK    6  A    between atoms: C_14  and  O_15
REMARK    7  A    between atoms: C_17  and  C_18
REMARK    8  A    between atoms: C_18  and  O_19
REMARK                            x       y       z     vdW  Elec       q    Type
REMARK                         _______ _______ _______ _____ _____    ______ ____
ROOT
ATOM      1  N   UNL     1      35.527 -24.389 -14.018  0.00  0.00    +0.395 N 
ATOM      2  C   UNL     1      36.168 -24.835 -12.763  0.00  0.00    +0.002 C 
ATOM      3  C   UNL     1      37.586 -25.405 -12.980  0.00  0.00    +0.123 C 
ATOM      4  C   UNL     1      37.589 -26.514 -14.038  0.00  0.00    +0.160 C 
ATOM      5  C   UNL     1      36.863 -26.079 -15.310  0.00  0.00    +0.119 C 
ATOM      6  C   UNL     1      35.489 -25.485 -14.995  0.00  0.00    -0.044 C 
ATOM      7  H   UNL     1      34.573 -24.130 -13.768  0.00  0.00    -0.079 HD
ENDROOT
BRANCH   3   8
ATOM      8  O   UNL     1      38.072 -25.982 -11.766  0.00  0.00    -0.384 OA
ATOM      9  H   UNL     1      38.103 -26.947 -11.856  0.00  0.00    +0.210 HD
ENDBRANCH   3   8
BRANCH   4  10
ATOM     10  O   UNL     1      38.939 -26.831 -14.380  0.00  0.00    -0.380 OA
ATOM     11  H   UNL     1      39.039 -27.794 -14.444  0.00  0.00    +0.211 HD
ENDBRANCH   4  10
BRANCH   5  12
ATOM     12  O   UNL     1      36.696 -27.207 -16.169  0.00  0.00    -0.384 OA
ATOM     13  H   UNL     1      36.018 -27.796 -15.801  0.00  0.00    +0.210 HD
ENDBRANCH   5  12
BRANCH   2  14
ATOM     14  C   UNL     1      36.146 -23.742 -11.683  0.00  0.00    +0.119 C 
BRANCH  14  15
ATOM     15  O   UNL     1      36.249 -24.373 -10.425  0.00  0.00    -0.384 OA
ATOM     16  H   UNL     1      35.687 -25.164 -10.413  0.00  0.00    +0.210 HD
ENDBRANCH  14  15
ENDBRANCH   2  14
BRANCH   1  17
ATOM     17  C   UNL     1      36.104 -23.176 -14.596  0.00  0.00    -0.045 C 
BRANCH  17  18
ATOM     18  C   UNL     1      35.323 -22.743 -15.826  0.00  0.00    +0.115 C 
BRANCH  18  19
ATOM     19  O   UNL     1      36.214 -22.674 -16.932  0.00  0.00    -0.384 OA
ATOM     20  H   UNL     1      36.619 -21.793 -16.966  0.00  0.00    +0.210 HD
ENDBRANCH  18  19
ENDBRANCH  17  18
ENDBRANCH   1  17
TORSDOF 8
ENDMDL
MODEL 6
REMARK VINA RESULT:      -6.2      1.758      2.643
REMARK  Name = 441314
REMARK  8 active torsions:
REMARK  status: ('A' for Active; 'I' for Inactive)
REMARK    1  A    between atoms: N_1  and  C_17
REMARK    2  A    between atoms: C_2  and  C_14
REMARK    3  A    between atoms: C_3  and  O_8
REMARK    4  A    between atoms: C_4  and  O_10
REMARK    5  A    between atoms: C_5  and  O_12
REMARK    6  A    between atoms: C_14  and  O_15
REMARK    7  A    between atoms: C_17  and  C_18
REMARK    8  A    between atoms: C_18  and  O_19
REMARK                            x       y       z     vdW  Elec       q    Type
REMARK                         _______ _______ _______ _____ _____    ______ ____
ROOT
ATOM      1  N   UNL     1      37.873 -25.085 -15.079  0.00  0.00    +0.395 N 
ATOM      2  C   UNL     1      36.721 -24.159 -15.120  0.00  0.00    +0.002 C 
ATOM      3  C   UNL     1      36.353 -23.595 -13.731  0.00  0.00    +0.123 C 
ATOM      4  C   UNL     1      36.136 -24.716 -12.709  0.00  0.00    +0.160 C 
ATOM      5  C   UNL     1      37.294 -25.714 -12.717  0.00  0.00    +0.119 C 
ATOM      6  C   UNL     1      37.618 -26.182 -14.137  0.00  0.00    -0.044 C 
ATOM      7  H   UNL     1      37.958 -25.466 -16.021  0.00  0.00    -0.079 HD
ENDROOT
BRANCH   3   8
ATOM      8  O   UNL     1      35.130 -22.858 -13.811  0.00  0.00    -0.384 OA
ATOM      9  H   UNL     1      34.380 -23.468 -13.732  0.00  0.00    +0.210 HD
ENDBRANCH   3   8
BRANCH   4  10
ATOM     10  O   UNL     1      36.047 -24.146 -11.402  0.00  0.00    -0.380 OA
ATOM     11  H   UNL     1      36.816 -23.577 -11.243  0.00  0.00    +0.211 HD
ENDBRANCH   4  10
BRANCH   5  12
ATOM     12  O   UNL     1      36.946 -26.848 -11.922  0.00  0.00    -0.384 OA
ATOM     13  H   UNL     1      36.275 -26.592 -11.269  0.00  0.00    +0.210 HD
ENDBRANCH   5  12
BRANCH   2  14
ATOM     14  C   UNL     1      36.911 -23.046 -16.162  0.00  0.00    +0.119 C 
BRANCH  14  15
ATOM     15  O   UNL     1      35.681 -22.859 -16.827  0.00  0.00    -0.384 OA
ATOM     16  H   UNL     1      34.975 -23.302 -16.331  0.00  0.00    +0.210 HD
ENDBRANCH  14  15
ENDBRANCH   2  14
BRANCH   1  17
ATOM     17  C   UNL     1      39.159 -24.441 -14.818  0.00  0.00    -0.045 C 
BRANCH  17  18
ATOM     18  C   UNL     1      40.278 -25.471 -14.785  0.00  0.00    +0.115 C 
BRANCH  18  19
ATOM     19  O   UNL     1      40.482 -25.965 -16.102  0.00  0.00    -0.384 OA
ATOM     20  H   UNL     1      39.668 -25.857 -16.618  0.00  0.00    +0.210 HD
ENDBRANCH  18  19
ENDBRANCH  17  18
ENDBRANCH   1  17
TORSDOF 8
ENDMDL
MODEL 7
REMARK VINA RESULT:      -6.1      2.125      3.290
REMARK  Name = 441314
REMARK  8 active torsions:
REMARK  status: ('A' for Active; 'I' for Inactive)
REMARK    1  A    between atoms: N_1  and  C_17
REMARK    2  A    between atoms: C_2  and  C_14
REMARK    3  A    between atoms: C_3  and  O_8
REMARK    4  A    between atoms: C_4  and  O_10
REMARK    5  A    between atoms: C_5  and  O_12
REMARK    6  A    between atoms: C_14  and  O_15
REMARK    7  A    between atoms: C_17  and  C_18
REMARK    8  A    between atoms: C_18  and  O_19
REMARK                            x       y       z     vdW  Elec       q    Type
REMARK                         _______ _______ _______ _____ _____    ______ ____
ROOT
ATOM      1  N   UNL     1      36.851 -24.250 -14.758  0.00  0.00    +0.395 N 
ATOM      2  C   UNL     1      37.098 -25.536 -14.072  0.00  0.00    +0.002 C 
ATOM      3  C   UNL     1      36.656 -25.526 -12.593  0.00  0.00    +0.123 C 
ATOM      4  C   UNL     1      37.280 -24.353 -11.829  0.00  0.00    +0.160 C 
ATOM      5  C   UNL     1      37.086 -23.032 -12.573  0.00  0.00    +0.119 C 
ATOM      6  C   UNL     1      37.506 -23.150 -14.040  0.00  0.00    -0.044 C 
ATOM      7  H   UNL     1      37.268 -24.342 -15.683  0.00  0.00    -0.079 HD
ENDROOT
BRANCH   3   8
ATOM      8  O   UNL     1      37.087 -26.725 -11.945  0.00  0.00    -0.384 OA
ATOM      9  H   UNL     1      36.457 -27.438 -12.133  0.00  0.00    +0.210 HD
ENDBRANCH   3   8
BRANCH   4  10
ATOM     10  O   UNL     1      36.653 -24.241 -10.550  0.00  0.00    -0.380 OA
ATOM     11  H   UNL     1      36.000 -24.951 -10.447  0.00  0.00    +0.211 HD
ENDBRANCH   4  10
BRANCH   5  12
ATOM     12  O   UNL     1      37.870 -22.016 -11.946  0.00  0.00    -0.384 OA
ATOM     13  H   UNL     1      38.769 -22.348 -11.796  0.00  0.00    +0.210 HD
ENDBRANCH   5  12
BRANCH   2  14
ATOM     14  C   UNL     1      36.503 -26.725 -14.842  0.00  0.00    +0.119 C 
BRANCH  14  15
ATOM     15  O   UNL     1      37.249 -26.892 -16.029  0.00  0.00    -0.384 OA
ATOM     16  H   UNL     1      37.173 -26.092 -16.573  0.00  0.00    +0.210 HD
ENDBRANCH  14  15
ENDBRANCH   2  14
BRANCH   1  17
ATOM     17  C   UNL     1      35.440 -23.961 -15.011  0.00  0.00    -0.045 C 
BRANCH  17  18
ATOM     18  C   UNL     1      35.292 -22.982 -16.166  0.00  0.00    +0.115 C 
BRANCH  18  19
ATOM     19  O   UNL     1      34.333 -23.496 -17.079  0.00  0.00    -0.384 OA
ATOM     20  H   UNL     1      33.578 -22.889 -17.131  0.00  0.00    +0.210 HD
ENDBRANCH  18  19
ENDBRANCH  17  18
ENDBRANCH   1  17
TORSDOF 8
ENDMDL
MODEL 8
REMARK VINA RESULT:      -6.0      2.464      4.006
REMARK  Name = 441314
REMARK  8 active torsions:
REMARK  status: ('A' for Active; 'I' for Inactive)
REMARK    1  A    between atoms: N_1  and  C_17
REMARK    2  A    between atoms: C_2  and  C_14
REMARK    3  A    between atoms: C_3  and  O_8
REMARK    4  A    between atoms: C_4  and  O_10
REMARK    5  A    between atoms: C_5  and  O_12
REMARK    6  A    between atoms: C_14  and  O_15
REMARK    7  A    between atoms: C_17  and  C_18
REMARK    8  A    between atoms: C_18  and  O_19
REMARK                            x       y       z     vdW  Elec       q    Type
REMARK                         _______ _______ _______ _____ _____    ______ ____
ROOT
ATOM      1  N   UNL     1      35.800 -24.233 -14.950  0.00  0.00    +0.395 N 
ATOM      2  C   UNL     1      34.992 -24.675 -13.794  0.00  0.00    +0.002 C 
ATOM      3  C   UNL     1      35.691 -24.425 -12.439  0.00  0.00    +0.123 C 
ATOM      4  C   UNL     1      37.094 -25.039 -12.411  0.00  0.00    +0.160 C 
ATOM      5  C   UNL     1      37.906 -24.640 -13.642  0.00  0.00    +0.119 C 
ATOM      6  C   UNL     1      37.119 -24.879 -14.932  0.00  0.00    -0.044 C 
ATOM      7  H   UNL     1      35.290 -24.536 -15.779  0.00  0.00    -0.079 HD
ENDROOT
BRANCH   3   8
ATOM      8  O   UNL     1      34.944 -25.036 -11.384  0.00  0.00    -0.384 OA
ATOM      9  H   UNL     1      34.021 -24.740 -11.428  0.00  0.00    +0.210 HD
ENDBRANCH   3   8
BRANCH   4  10
ATOM     10  O   UNL     1      37.785 -24.573 -11.251  0.00  0.00    -0.380 OA
ATOM     11  H   UNL     1      37.391 -24.970 -10.458  0.00  0.00    +0.211 HD
ENDBRANCH   4  10
BRANCH   5  12
ATOM     12  O   UNL     1      39.110 -25.408 -13.684  0.00  0.00    -0.384 OA
ATOM     13  H   UNL     1      39.864 -24.840 -13.459  0.00  0.00    +0.210 HD
ENDBRANCH   5  12
BRANCH   2  14
ATOM     14  C   UNL     1      33.571 -24.090 -13.824  0.00  0.00    +0.119 C 
BRANCH  14  15
ATOM     15  O   UNL     1      32.699 -25.036 -13.243  0.00  0.00    -0.384 OA
ATOM     16  H   UNL     1      31.844 -25.010 -13.700  0.00  0.00    +0.210 HD
ENDBRANCH  14  15
ENDBRANCH   2  14
BRANCH   1  17
ATOM     17  C   UNL     1      35.915 -22.783 -15.090  0.00  0.00    -0.045 C 
BRANCH  17  18
ATOM     18  C   UNL     1      36.348 -22.412 -16.500  0.00  0.00    +0.115 C 
BRANCH  18  19
ATOM     19  O   UNL     1      35.319 -22.785 -17.406  0.00  0.00    -0.384 OA
ATOM     20  H   UNL     1      34.498 -22.326 -17.170  0.00  0.00    +0.210 HD
ENDBRANCH  18  19
ENDBRANCH  17  18
ENDBRANCH   1  17
TORSDOF 8
ENDMDL
MODEL 9
REMARK VINA RESULT:      -6.0      2.454      4.609
REMARK  Name = 441314
REMARK  8 active torsions:
REMARK  status: ('A' for Active; 'I' for Inactive)
REMARK    1  A    between atoms: N_1  and  C_17
REMARK    2  A    between atoms: C_2  and  C_14
REMARK    3  A    between atoms: C_3  and  O_8
REMARK    4  A    between atoms: C_4  and  O_10
REMARK    5  A    between atoms: C_5  and  O_12
REMARK    6  A    between atoms: C_14  and  O_15
REMARK    7  A    between atoms: C_17  and  C_18
REMARK    8  A    between atoms: C_18  and  O_19
REMARK                            x       y       z     vdW  Elec       q    Type
REMARK                         _______ _______ _______ _____ _____    ______ ____
ROOT
ATOM      1  N   UNL     1      35.753 -23.697 -13.791  0.00  0.00    +0.395 N 
ATOM      2  C   UNL     1      36.978 -23.293 -14.512  0.00  0.00    +0.002 C 
ATOM      3  C   UNL     1      37.811 -24.496 -15.006  0.00  0.00    +0.123 C 
ATOM      4  C   UNL     1      38.126 -25.467 -13.863  0.00  0.00    +0.160 C 
ATOM      5  C   UNL     1      36.870 -25.829 -13.072  0.00  0.00    +0.119 C 
ATOM      6  C   UNL     1      36.085 -24.581 -12.666  0.00  0.00    -0.044 C 
ATOM      7  H   UNL     1      35.343 -22.836 -13.431  0.00  0.00    -0.079 HD
ENDROOT
BRANCH   3   8
ATOM      8  O   UNL     1      39.063 -24.042 -15.528  0.00  0.00    -0.384 OA
ATOM      9  H   UNL     1      39.332 -23.233 -15.065  0.00  0.00    +0.210 HD
ENDBRANCH   3   8
BRANCH   4  10
ATOM     10  O   UNL     1      38.674 -26.668 -14.408  0.00  0.00    -0.380 OA
ATOM     11  H   UNL     1      38.692 -27.355 -13.723  0.00  0.00    +0.211 HD
ENDBRANCH   4  10
BRANCH   5  12
ATOM     12  O   UNL     1      37.242 -26.547 -11.895  0.00  0.00    -0.384 OA
ATOM     13  H   UNL     1      37.783 -25.976 -11.325  0.00  0.00    +0.210 HD
ENDBRANCH   5  12
BRANCH   2  14
ATOM     14  C   UNL     1      36.681 -22.296 -15.643  0.00  0.00    +0.119 C 
BRANCH  14  15
ATOM     15  O   UNL     1      37.000 -22.921 -16.868  0.00  0.00    -0.384 OA
ATOM     16  H   UNL     1      37.384 -23.795 -16.694  0.00  0.00    +0.210 HD
ENDBRANCH  14  15
ENDBRANCH   2  14
BRANCH   1  17
ATOM     17  C   UNL     1      34.714 -24.278 -14.640  0.00  0.00    -0.045 C 
BRANCH  17  18
ATOM     18  C   UNL     1      33.427 -23.474 -14.541  0.00  0.00    +0.115 C 
BRANCH  18  19
ATOM     19  O   UNL     1      32.992 -23.474 -13.188  0.00  0.00    -0.384 OA
ATOM     20  H   UNL     1      33.640 -23.944 -12.640  0.00  0.00    +0.210 HD
ENDBRANCH  18  19
ENDBRANCH  17  18
ENDBRANCH   1  17
TORSDOF 8
ENDMDL
