MODEL 1
REMARK VINA RESULT:      -8.8      0.000      0.000
REMARK  Name = 4768
REMARK  8 active torsions:
REMARK  status: ('A' for Active; 'I' for Inactive)
REMARK    1  A    between atoms: N_1  and  C_3
REMARK    2  A    between atoms: N_1  and  C_13
REMARK    3  A    between atoms: N_1  and  C_20
REMARK    4  A    between atoms: C_3  and  C_5
REMARK    5  A    between atoms: C_5  and  O_6
REMARK    6  A    between atoms: O_6  and  C_7
REMARK    7  A    between atoms: C_13  and  C_14
REMARK    8  A    between atoms: C_20  and  C_22
REMARK                            x       y       z     vdW  Elec       q    Type
REMARK                         _______ _______ _______ _____ _____    ______ ____
ROOT
ATOM      1  N   UNL     1      34.677 -17.129 -22.501  0.00  0.00    +0.394 N 
ATOM      2  H   UNL     1      33.752 -17.554 -22.447  0.00  0.00    -0.079 HD
ENDROOT
BRANCH   1   3
ATOM      3  C   UNL     1      34.574 -15.740 -22.058  0.00  0.00    -0.013 C 
ATOM      4  C   UNL     1      34.641 -15.670 -20.531  0.00  0.00    -0.019 C 
BRANCH   3   5
ATOM      5  C   UNL     1      33.279 -15.133 -22.597  0.00  0.00    +0.185 C 
BRANCH   5   6
ATOM      6  O   UNL     1      33.502 -13.778 -22.967  0.00  0.00    -0.478 OA
BRANCH   6   7
ATOM      7  C   UNL     1      33.465 -13.490 -24.306  0.00  0.00    +0.138 C 
ATOM      8  C   UNL     1      33.044 -14.461 -25.208  0.00  0.00    +0.037 C 
ATOM      9  C   UNL     1      33.849 -12.230 -24.750  0.00  0.00    +0.037 C 
ATOM     10  C   UNL     1      33.006 -14.168 -26.571  0.00  0.00    +0.003 C 
ATOM     11  C   UNL     1      33.812 -11.937 -26.113  0.00  0.00    +0.003 C 
ATOM     12  C   UNL     1      33.391 -12.905 -27.023  0.00  0.00    +0.000 C 
ENDBRANCH   6   7
ENDBRANCH   5   6
ENDBRANCH   3   5
ENDBRANCH   1   3
BRANCH   1  13
ATOM     13  C   UNL     1      35.583 -17.878 -21.631  0.00  0.00    -0.050 C 
BRANCH  13  14
ATOM     14  C   UNL     1      34.904 -19.070 -21.009  0.00  0.00    -0.043 C 
ATOM     15  C   UNL     1      35.674 -20.073 -20.436  0.00  0.00    -0.006 C 
ATOM     16  C   UNL     1      33.519 -19.150 -21.018  0.00  0.00    -0.006 C 
ATOM     17  C   UNL     1      35.047 -21.177 -19.860  0.00  0.00    -0.000 C 
ATOM     18  C   UNL     1      32.891 -20.255 -20.442  0.00  0.00    -0.000 C 
ATOM     19  C   UNL     1      33.655 -21.267 -19.863  0.00  0.00    -0.000 C 
ENDBRANCH  13  14
ENDBRANCH   1  13
BRANCH   1  20
ATOM     20  C   UNL     1      35.135 -17.190 -23.890  0.00  0.00    -0.059 C 
BRANCH  20  22
ATOM     21 CL   UNL     1      34.896 -19.802 -24.583  0.00  0.00    -0.116 Cl
ATOM     22  C   UNL     1      34.258 -18.144 -24.685  0.00  0.00    +0.072 C 
ENDBRANCH  20  22
ENDBRANCH   1  20
TORSDOF 8
ENDMDL
MODEL 2
REMARK VINA RESULT:      -8.6      1.407      2.408
REMARK  Name = 4768
REMARK  8 active torsions:
REMARK  status: ('A' for Active; 'I' for Inactive)
REMARK    1  A    between atoms: N_1  and  C_3
REMARK    2  A    between atoms: N_1  and  C_13
REMARK    3  A    between atoms: N_1  and  C_20
REMARK    4  A    between atoms: C_3  and  C_5
REMARK    5  A    between atoms: C_5  and  O_6
REMARK    6  A    between atoms: O_6  and  C_7
REMARK    7  A    between atoms: C_13  and  C_14
REMARK    8  A    between atoms: C_20  and  C_22
REMARK                            x       y       z     vdW  Elec       q    Type
REMARK                         _______ _______ _______ _____ _____    ______ ____
ROOT
ATOM      1  N   UNL     1      34.634 -17.017 -22.650  0.00  0.00    +0.394 N 
ATOM      2  H   UNL     1      33.700 -17.420 -22.572  0.00  0.00    -0.079 HD
ENDROOT
BRANCH   1   3
ATOM      3  C   UNL     1      34.546 -15.586 -22.365  0.00  0.00    -0.013 C 
ATOM      4  C   UNL     1      34.337 -15.362 -20.866  0.00  0.00    -0.019 C 
BRANCH   3   5
ATOM      5  C   UNL     1      33.415 -14.975 -23.192  0.00  0.00    +0.185 C 
BRANCH   5   6
ATOM      6  O   UNL     1      33.861 -13.766 -23.795  0.00  0.00    -0.478 OA
BRANCH   6   7
ATOM      7  C   UNL     1      33.244 -12.612 -23.393  0.00  0.00    +0.138 C 
ATOM      8  C   UNL     1      33.637 -11.395 -23.938  0.00  0.00    +0.037 C 
ATOM      9  C   UNL     1      32.230 -12.668 -22.443  0.00  0.00    +0.037 C 
ATOM     10  C   UNL     1      33.009 -10.219 -23.529  0.00  0.00    +0.003 C 
ATOM     11  C   UNL     1      31.602 -11.492 -22.033  0.00  0.00    +0.003 C 
ATOM     12  C   UNL     1      31.992 -10.268 -22.575  0.00  0.00    +0.000 C 
ENDBRANCH   6   7
ENDBRANCH   5   6
ENDBRANCH   3   5
ENDBRANCH   1   3
BRANCH   1  13
ATOM     13  C   UNL     1      35.507 -17.680 -21.682  0.00  0.00    -0.050 C 
BRANCH  13  14
ATOM     14  C   UNL     1      34.852 -18.892 -21.074  0.00  0.00    -0.043 C 
ATOM     15  C   UNL     1      33.466 -18.976 -21.043  0.00  0.00    -0.006 C 
ATOM     16  C   UNL     1      35.642 -19.906 -20.552  0.00  0.00    -0.006 C 
ATOM     17  C   UNL     1      32.859 -20.098 -20.480  0.00  0.00    -0.000 C 
ATOM     18  C   UNL     1      35.034 -21.029 -19.988  0.00  0.00    -0.000 C 
ATOM     19  C   UNL     1      33.643 -21.124 -19.953  0.00  0.00    -0.000 C 
ENDBRANCH  13  14
ENDBRANCH   1  13
BRANCH   1  20
ATOM     20  C   UNL     1      35.120 -17.238 -24.012  0.00  0.00    -0.059 C 
BRANCH  20  22
ATOM     21 CL   UNL     1      34.883 -19.872 -24.615  0.00  0.00    -0.116 Cl
ATOM     22  C   UNL     1      34.218 -18.226 -24.734  0.00  0.00    +0.072 C 
ENDBRANCH  20  22
ENDBRANCH   1  20
TORSDOF 8
ENDMDL
MODEL 3
REMARK VINA RESULT:      -8.4      2.382      7.662
REMARK  Name = 4768
REMARK  8 active torsions:
REMARK  status: ('A' for Active; 'I' for Inactive)
REMARK    1  A    between atoms: N_1  and  C_3
REMARK    2  A    between atoms: N_1  and  C_13
REMARK    3  A    between atoms: N_1  and  C_20
REMARK    4  A    between atoms: C_3  and  C_5
REMARK    5  A    between atoms: C_5  and  O_6
REMARK    6  A    between atoms: O_6  and  C_7
REMARK    7  A    between atoms: C_13  and  C_14
REMARK    8  A    between atoms: C_20  and  C_22
REMARK                            x       y       z     vdW  Elec       q    Type
REMARK                         _______ _______ _______ _____ _____    ______ ____
ROOT
ATOM      1  N   UNL     1      33.597 -15.465 -22.482  0.00  0.00    +0.394 N 
ATOM      2  H   UNL     1      33.156 -15.905 -23.289  0.00  0.00    -0.079 HD
ENDROOT
BRANCH   1   3
ATOM      3  C   UNL     1      34.614 -16.376 -21.957  0.00  0.00    -0.013 C 
ATOM      4  C   UNL     1      35.379 -17.028 -23.110  0.00  0.00    -0.019 C 
BRANCH   3   5
ATOM      5  C   UNL     1      33.942 -17.418 -21.062  0.00  0.00    +0.185 C 
BRANCH   5   6
ATOM      6  O   UNL     1      34.013 -18.698 -21.680  0.00  0.00    -0.478 OA
BRANCH   6   7
ATOM      7  C   UNL     1      34.275 -19.765 -20.862  0.00  0.00    +0.138 C 
ATOM      8  C   UNL     1      35.591 -20.149 -20.630  0.00  0.00    +0.037 C 
ATOM      9  C   UNL     1      33.221 -20.453 -20.269  0.00  0.00    +0.037 C 
ATOM     10  C   UNL     1      35.857 -21.235 -19.796  0.00  0.00    +0.003 C 
ATOM     11  C   UNL     1      33.487 -21.538 -19.437  0.00  0.00    +0.003 C 
ATOM     12  C   UNL     1      34.804 -21.930 -19.200  0.00  0.00    +0.000 C 
ENDBRANCH   6   7
ENDBRANCH   5   6
ENDBRANCH   3   5
ENDBRANCH   1   3
BRANCH   1  13
ATOM     13  C   UNL     1      34.210 -14.210 -22.916  0.00  0.00    -0.050 C 
BRANCH  13  14
ATOM     14  C   UNL     1      33.819 -13.853 -24.325  0.00  0.00    -0.043 C 
ATOM     15  C   UNL     1      33.934 -12.538 -24.754  0.00  0.00    -0.006 C 
ATOM     16  C   UNL     1      33.347 -14.844 -25.176  0.00  0.00    -0.006 C 
ATOM     17  C   UNL     1      33.571 -12.206 -26.059  0.00  0.00    -0.000 C 
ATOM     18  C   UNL     1      32.985 -14.511 -26.482  0.00  0.00    -0.000 C 
ATOM     19  C   UNL     1      33.097 -13.193 -26.923  0.00  0.00    -0.000 C 
ENDBRANCH  13  14
ENDBRANCH   1  13
BRANCH   1  20
ATOM     20  C   UNL     1      32.569 -15.211 -21.473  0.00  0.00    -0.059 C 
BRANCH  20  22
ATOM     21 CL   UNL     1      31.721 -12.636 -21.381  0.00  0.00    -0.116 Cl
ATOM     22  C   UNL     1      32.837 -13.885 -20.780  0.00  0.00    +0.072 C 
ENDBRANCH  20  22
ENDBRANCH   1  20
TORSDOF 8
ENDMDL
MODEL 4
REMARK VINA RESULT:      -8.4      2.980      7.339
REMARK  Name = 4768
REMARK  8 active torsions:
REMARK  status: ('A' for Active; 'I' for Inactive)
REMARK    1  A    between atoms: N_1  and  C_3
REMARK    2  A    between atoms: N_1  and  C_13
REMARK    3  A    between atoms: N_1  and  C_20
REMARK    4  A    between atoms: C_3  and  C_5
REMARK    5  A    between atoms: C_5  and  O_6
REMARK    6  A    between atoms: O_6  and  C_7
REMARK    7  A    between atoms: C_13  and  C_14
REMARK    8  A    between atoms: C_20  and  C_22
REMARK                            x       y       z     vdW  Elec       q    Type
REMARK                         _______ _______ _______ _____ _____    ______ ____
ROOT
ATOM      1  N   UNL     1      33.346 -13.948 -22.219  0.00  0.00    +0.394 N 
ATOM      2  H   UNL     1      33.868 -13.473 -21.483  0.00  0.00    -0.079 HD
ENDROOT
BRANCH   1   3
ATOM      3  C   UNL     1      33.263 -15.369 -21.885  0.00  0.00    -0.013 C 
ATOM      4  C   UNL     1      32.473 -15.558 -20.589  0.00  0.00    -0.019 C 
BRANCH   3   5
ATOM      5  C   UNL     1      34.676 -15.944 -21.777  0.00  0.00    +0.185 C 
BRANCH   5   6
ATOM      6  O   UNL     1      34.742 -17.186 -22.469  0.00  0.00    -0.478 OA
BRANCH   6   7
ATOM      7  C   UNL     1      34.927 -18.308 -21.706  0.00  0.00    +0.138 C 
ATOM      8  C   UNL     1      36.213 -18.679 -21.327  0.00  0.00    +0.037 C 
ATOM      9  C   UNL     1      33.828 -19.066 -21.317  0.00  0.00    +0.037 C 
ATOM     10  C   UNL     1      36.402 -19.822 -20.550  0.00  0.00    +0.003 C 
ATOM     11  C   UNL     1      34.017 -20.209 -20.541  0.00  0.00    +0.003 C 
ATOM     12  C   UNL     1      35.304 -20.587 -20.158  0.00  0.00    +0.000 C 
ENDBRANCH   6   7
ENDBRANCH   5   6
ENDBRANCH   3   5
ENDBRANCH   1   3
BRANCH   1  13
ATOM     13  C   UNL     1      32.009 -13.361 -22.292  0.00  0.00    -0.050 C 
BRANCH  13  14
ATOM     14  C   UNL     1      31.926 -12.059 -21.540  0.00  0.00    -0.043 C 
ATOM     15  C   UNL     1      32.021 -10.861 -22.236  0.00  0.00    -0.006 C 
ATOM     16  C   UNL     1      31.759 -12.074 -20.163  0.00  0.00    -0.006 C 
ATOM     17  C   UNL     1      31.945  -9.655 -21.541  0.00  0.00    -0.000 C 
ATOM     18  C   UNL     1      31.683 -10.866 -19.467  0.00  0.00    -0.000 C 
ATOM     19  C   UNL     1      31.776  -9.658 -20.157  0.00  0.00    -0.000 C 
ENDBRANCH  13  14
ENDBRANCH   1  13
BRANCH   1  20
ATOM     20  C   UNL     1      34.057 -13.761 -23.484  0.00  0.00    -0.059 C 
BRANCH  20  22
ATOM     21 CL   UNL     1      33.659 -15.522 -25.508  0.00  0.00    -0.116 Cl
ATOM     22  C   UNL     1      33.129 -14.056 -24.651  0.00  0.00    +0.072 C 
ENDBRANCH  20  22
ENDBRANCH   1  20
TORSDOF 8
ENDMDL
MODEL 5
REMARK VINA RESULT:      -8.2      2.949      6.807
REMARK  Name = 4768
REMARK  8 active torsions:
REMARK  status: ('A' for Active; 'I' for Inactive)
REMARK    1  A    between atoms: N_1  and  C_3
REMARK    2  A    between atoms: N_1  and  C_13
REMARK    3  A    between atoms: N_1  and  C_20
REMARK    4  A    between atoms: C_3  and  C_5
REMARK    5  A    between atoms: C_5  and  O_6
REMARK    6  A    between atoms: O_6  and  C_7
REMARK    7  A    between atoms: C_13  and  C_14
REMARK    8  A    between atoms: C_20  and  C_22
REMARK                            x       y       z     vdW  Elec       q    Type
REMARK                         _______ _______ _______ _____ _____    ______ ____
ROOT
ATOM      1  N   UNL     1      32.748 -14.015 -22.027  0.00  0.00    +0.394 N 
ATOM      2  H   UNL     1      31.996 -14.204 -22.690  0.00  0.00    -0.079 HD
ENDROOT
BRANCH   1   3
ATOM      3  C   UNL     1      33.132 -15.275 -21.393  0.00  0.00    -0.013 C 
ATOM      4  C   UNL     1      32.095 -15.669 -20.340  0.00  0.00    -0.019 C 
BRANCH   3   5
ATOM      5  C   UNL     1      34.528 -15.128 -20.786  0.00  0.00    +0.185 C 
BRANCH   5   6
ATOM      6  O   UNL     1      35.064 -16.415 -20.502  0.00  0.00    -0.478 OA
BRANCH   6   7
ATOM      7  C   UNL     1      35.023 -17.338 -21.514  0.00  0.00    +0.138 C 
ATOM      8  C   UNL     1      34.670 -18.653 -21.232  0.00  0.00    +0.037 C 
ATOM      9  C   UNL     1      35.333 -16.950 -22.812  0.00  0.00    +0.037 C 
ATOM     10  C   UNL     1      34.628 -19.593 -22.262  0.00  0.00    +0.003 C 
ATOM     11  C   UNL     1      35.291 -17.890 -23.842  0.00  0.00    +0.003 C 
ATOM     12  C   UNL     1      34.939 -19.211 -23.567  0.00  0.00    +0.000 C 
ENDBRANCH   6   7
ENDBRANCH   5   6
ENDBRANCH   3   5
ENDBRANCH   1   3
BRANCH   1  13
ATOM     13  C   UNL     1      33.878 -13.445 -22.760  0.00  0.00    -0.050 C 
BRANCH  13  14
ATOM     14  C   UNL     1      33.634 -13.432 -24.246  0.00  0.00    -0.043 C 
ATOM     15  C   UNL     1      33.839 -12.260 -24.961  0.00  0.00    -0.006 C 
ATOM     16  C   UNL     1      33.207 -14.591 -24.879  0.00  0.00    -0.006 C 
ATOM     17  C   UNL     1      33.614 -12.247 -26.338  0.00  0.00    -0.000 C 
ATOM     18  C   UNL     1      32.980 -14.577 -26.256  0.00  0.00    -0.000 C 
ATOM     19  C   UNL     1      33.184 -13.406 -26.984  0.00  0.00    -0.000 C 
ENDBRANCH  13  14
ENDBRANCH   1  13
BRANCH   1  20
ATOM     20  C   UNL     1      32.256 -13.067 -21.027  0.00  0.00    -0.059 C 
BRANCH  20  22
ATOM     21 CL   UNL     1      30.725 -10.890 -20.505  0.00  0.00    -0.116 Cl
ATOM     22  C   UNL     1      31.541 -11.913 -21.711  0.00  0.00    +0.072 C 
ENDBRANCH  20  22
ENDBRANCH   1  20
TORSDOF 8
ENDMDL
MODEL 6
REMARK VINA RESULT:      -8.1      3.687      7.385
REMARK  Name = 4768
REMARK  8 active torsions:
REMARK  status: ('A' for Active; 'I' for Inactive)
REMARK    1  A    between atoms: N_1  and  C_3
REMARK    2  A    between atoms: N_1  and  C_13
REMARK    3  A    between atoms: N_1  and  C_20
REMARK    4  A    between atoms: C_3  and  C_5
REMARK    5  A    between atoms: C_5  and  O_6
REMARK    6  A    between atoms: O_6  and  C_7
REMARK    7  A    between atoms: C_13  and  C_14
REMARK    8  A    between atoms: C_20  and  C_22
REMARK                            x       y       z     vdW  Elec       q    Type
REMARK                         _______ _______ _______ _____ _____    ______ ____
ROOT
ATOM      1  N   UNL     1      33.474 -12.230 -23.455  0.00  0.00    +0.394 N 
ATOM      2  H   UNL     1      34.087 -11.846 -22.736  0.00  0.00    -0.079 HD
ENDROOT
BRANCH   1   3
ATOM      3  C   UNL     1      33.935 -13.578 -23.784  0.00  0.00    -0.013 C 
ATOM      4  C   UNL     1      33.095 -14.156 -24.924  0.00  0.00    -0.019 C 
BRANCH   3   5
ATOM      5  C   UNL     1      33.869 -14.452 -22.532  0.00  0.00    +0.185 C 
BRANCH   5   6
ATOM      6  O   UNL     1      35.087 -15.173 -22.385  0.00  0.00    -0.478 OA
BRANCH   6   7
ATOM      7  C   UNL     1      35.002 -16.540 -22.409  0.00  0.00    +0.138 C 
ATOM      8  C   UNL     1      34.998 -17.250 -21.214  0.00  0.00    +0.037 C 
ATOM      9  C   UNL     1      34.919 -17.204 -23.628  0.00  0.00    +0.037 C 
ATOM     10  C   UNL     1      34.911 -18.642 -21.237  0.00  0.00    +0.003 C 
ATOM     11  C   UNL     1      34.833 -18.595 -23.651  0.00  0.00    +0.003 C 
ATOM     12  C   UNL     1      34.830 -19.315 -22.457  0.00  0.00    +0.000 C 
ENDBRANCH   6   7
ENDBRANCH   5   6
ENDBRANCH   3   5
ENDBRANCH   1   3
BRANCH   1  13
ATOM     13  C   UNL     1      32.110 -12.270 -22.930  0.00  0.00    -0.050 C 
BRANCH  13  14
ATOM     14  C   UNL     1      31.951 -11.389 -21.718  0.00  0.00    -0.043 C 
ATOM     15  C   UNL     1      31.749 -11.970 -20.473  0.00  0.00    -0.006 C 
ATOM     16  C   UNL     1      32.006 -10.010 -21.863  0.00  0.00    -0.006 C 
ATOM     17  C   UNL     1      31.601 -11.155 -19.351  0.00  0.00    -0.000 C 
ATOM     18  C   UNL     1      31.857  -9.195 -20.740  0.00  0.00    -0.000 C 
ATOM     19  C   UNL     1      31.655  -9.768 -19.485  0.00  0.00    -0.000 C 
ENDBRANCH  13  14
ENDBRANCH   1  13
BRANCH   1  20
ATOM     20  C   UNL     1      33.543 -11.364 -24.633  0.00  0.00    -0.059 C 
BRANCH  20  22
ATOM     21 CL   UNL     1      35.671 -10.313 -25.946  0.00  0.00    -0.116 Cl
ATOM     22  C   UNL     1      34.672 -10.359 -24.474  0.00  0.00    +0.072 C 
ENDBRANCH  20  22
ENDBRANCH   1  20
TORSDOF 8
ENDMDL
MODEL 7
REMARK VINA RESULT:      -8.1      3.415      4.614
REMARK  Name = 4768
REMARK  8 active torsions:
REMARK  status: ('A' for Active; 'I' for Inactive)
REMARK    1  A    between atoms: N_1  and  C_3
REMARK    2  A    between atoms: N_1  and  C_13
REMARK    3  A    between atoms: N_1  and  C_20
REMARK    4  A    between atoms: C_3  and  C_5
REMARK    5  A    between atoms: C_5  and  O_6
REMARK    6  A    between atoms: O_6  and  C_7
REMARK    7  A    between atoms: C_13  and  C_14
REMARK    8  A    between atoms: C_20  and  C_22
REMARK                            x       y       z     vdW  Elec       q    Type
REMARK                         _______ _______ _______ _____ _____    ______ ____
ROOT
ATOM      1  N   UNL     1      33.582 -14.850 -23.396  0.00  0.00    +0.394 N 
ATOM      2  H   UNL     1      32.941 -15.636 -23.502  0.00  0.00    -0.079 HD
ENDROOT
BRANCH   1   3
ATOM      3  C   UNL     1      33.157 -14.058 -22.243  0.00  0.00    -0.013 C 
ATOM      4  C   UNL     1      32.358 -14.931 -21.274  0.00  0.00    -0.019 C 
BRANCH   3   5
ATOM      5  C   UNL     1      32.343 -12.858 -22.728  0.00  0.00    +0.185 C 
BRANCH   5   6
ATOM      6  O   UNL     1      31.389 -12.494 -21.737  0.00  0.00    -0.478 OA
BRANCH   6   7
ATOM      7  C   UNL     1      31.596 -11.306 -21.088  0.00  0.00    +0.138 C 
ATOM      8  C   UNL     1      31.828 -10.150 -21.825  0.00  0.00    +0.037 C 
ATOM      9  C   UNL     1      31.571 -11.266 -19.698  0.00  0.00    +0.037 C 
ATOM     10  C   UNL     1      32.039  -8.940 -21.165  0.00  0.00    +0.003 C 
ATOM     11  C   UNL     1      31.782 -10.056 -19.038  0.00  0.00    +0.003 C 
ATOM     12  C   UNL     1      32.016  -8.893 -19.771  0.00  0.00    +0.000 C 
ENDBRANCH   6   7
ENDBRANCH   5   6
ENDBRANCH   3   5
ENDBRANCH   1   3
BRANCH   1  13
ATOM     13  C   UNL     1      34.930 -15.376 -23.187  0.00  0.00    -0.050 C 
BRANCH  13  14
ATOM     14  C   UNL     1      34.914 -16.849 -22.871  0.00  0.00    -0.043 C 
ATOM     15  C   UNL     1      34.834 -17.769 -23.908  0.00  0.00    -0.006 C 
ATOM     16  C   UNL     1      34.978 -17.265 -21.549  0.00  0.00    -0.006 C 
ATOM     17  C   UNL     1      34.819 -19.132 -23.616  0.00  0.00    -0.000 C 
ATOM     18  C   UNL     1      34.962 -18.630 -21.258  0.00  0.00    -0.000 C 
ATOM     19  C   UNL     1      34.883 -19.562 -22.292  0.00  0.00    -0.000 C 
ENDBRANCH  13  14
ENDBRANCH   1  13
BRANCH   1  20
ATOM     20  C   UNL     1      33.531 -14.044 -24.617  0.00  0.00    -0.059 C 
BRANCH  20  22
ATOM     21 CL   UNL     1      33.305 -13.991 -27.319  0.00  0.00    -0.116 Cl
ATOM     22  C   UNL     1      33.187 -14.923 -25.808  0.00  0.00    +0.072 C 
ENDBRANCH  20  22
ENDBRANCH   1  20
TORSDOF 8
ENDMDL
MODEL 8
REMARK VINA RESULT:      -8.1      2.563      7.330
REMARK  Name = 4768
REMARK  8 active torsions:
REMARK  status: ('A' for Active; 'I' for Inactive)
REMARK    1  A    between atoms: N_1  and  C_3
REMARK    2  A    between atoms: N_1  and  C_13
REMARK    3  A    between atoms: N_1  and  C_20
REMARK    4  A    between atoms: C_3  and  C_5
REMARK    5  A    between atoms: C_5  and  O_6
REMARK    6  A    between atoms: O_6  and  C_7
REMARK    7  A    between atoms: C_13  and  C_14
REMARK    8  A    between atoms: C_20  and  C_22
REMARK                            x       y       z     vdW  Elec       q    Type
REMARK                         _______ _______ _______ _____ _____    ______ ____
ROOT
ATOM      1  N   UNL     1      33.154 -14.936 -22.282  0.00  0.00    +0.394 N 
ATOM      2  H   UNL     1      32.612 -15.379 -23.024  0.00  0.00    -0.079 HD
ENDROOT
BRANCH   1   3
ATOM      3  C   UNL     1      33.913 -15.972 -21.583  0.00  0.00    -0.013 C 
ATOM      4  C   UNL     1      34.646 -15.365 -20.385  0.00  0.00    -0.019 C 
BRANCH   3   5
ATOM      5  C   UNL     1      34.880 -16.636 -22.563  0.00  0.00    +0.185 C 
BRANCH   5   6
ATOM      6  O   UNL     1      34.469 -17.976 -22.807  0.00  0.00    -0.478 OA
BRANCH   6   7
ATOM      7  C   UNL     1      34.756 -18.896 -21.833  0.00  0.00    +0.138 C 
ATOM      8  C   UNL     1      36.062 -19.030 -21.375  0.00  0.00    +0.037 C 
ATOM      9  C   UNL     1      33.738 -19.686 -21.311  0.00  0.00    +0.037 C 
ATOM     10  C   UNL     1      36.353 -19.967 -20.383  0.00  0.00    +0.003 C 
ATOM     11  C   UNL     1      34.029 -20.623 -20.320  0.00  0.00    +0.003 C 
ATOM     12  C   UNL     1      35.337 -20.764 -19.857  0.00  0.00    +0.000 C 
ENDBRANCH   6   7
ENDBRANCH   5   6
ENDBRANCH   3   5
ENDBRANCH   1   3
BRANCH   1  13
ATOM     13  C   UNL     1      34.058 -13.960 -22.889  0.00  0.00    -0.050 C 
BRANCH  13  14
ATOM     14  C   UNL     1      33.734 -13.722 -24.340  0.00  0.00    -0.043 C 
ATOM     15  C   UNL     1      33.268 -14.773 -25.118  0.00  0.00    -0.006 C 
ATOM     16  C   UNL     1      33.908 -12.455 -24.881  0.00  0.00    -0.006 C 
ATOM     17  C   UNL     1      32.967 -14.553 -26.462  0.00  0.00    -0.000 C 
ATOM     18  C   UNL     1      33.608 -12.235 -26.226  0.00  0.00    -0.000 C 
ATOM     19  C   UNL     1      33.137 -13.284 -27.015  0.00  0.00    -0.000 C 
ENDBRANCH  13  14
ENDBRANCH   1  13
BRANCH   1  20
ATOM     20  C   UNL     1      32.227 -14.273 -21.365  0.00  0.00    -0.059 C 
BRANCH  20  22
ATOM     21 CL   UNL     1      31.625 -11.848 -20.311  0.00  0.00    -0.116 Cl
ATOM     22  C   UNL     1      32.086 -12.806 -21.737  0.00  0.00    +0.072 C 
ENDBRANCH  20  22
ENDBRANCH   1  20
TORSDOF 8
ENDMDL
MODEL 9
REMARK VINA RESULT:      -8.1      2.960      4.331
REMARK  Name = 4768
REMARK  8 active torsions:
REMARK  status: ('A' for Active; 'I' for Inactive)
REMARK    1  A    between atoms: N_1  and  C_3
REMARK    2  A    between atoms: N_1  and  C_13
REMARK    3  A    between atoms: N_1  and  C_20
REMARK    4  A    between atoms: C_3  and  C_5
REMARK    5  A    between atoms: C_5  and  O_6
REMARK    6  A    between atoms: O_6  and  C_7
REMARK    7  A    between atoms: C_13  and  C_14
REMARK    8  A    between atoms: C_20  and  C_22
REMARK                            x       y       z     vdW  Elec       q    Type
REMARK                         _______ _______ _______ _____ _____    ______ ____
ROOT
ATOM      1  N   UNL     1      33.308 -14.721 -23.791  0.00  0.00    +0.394 N 
ATOM      2  H   UNL     1      32.724 -15.394 -23.295  0.00  0.00    -0.079 HD
ENDROOT
BRANCH   1   3
ATOM      3  C   UNL     1      33.515 -13.561 -22.924  0.00  0.00    -0.013 C 
ATOM      4  C   UNL     1      32.397 -13.479 -21.884  0.00  0.00    -0.019 C 
BRANCH   3   5
ATOM      5  C   UNL     1      33.586 -12.298 -23.782  0.00  0.00    +0.185 C 
BRANCH   5   6
ATOM      6  O   UNL     1      32.759 -11.288 -23.217  0.00  0.00    -0.478 OA
BRANCH   6   7
ATOM      7  C   UNL     1      33.253 -10.010 -23.224  0.00  0.00    +0.138 C 
ATOM      8  C   UNL     1      34.329  -9.693 -24.044  0.00  0.00    +0.037 C 
ATOM      9  C   UNL     1      32.672  -9.043 -22.411  0.00  0.00    +0.037 C 
ATOM     10  C   UNL     1      34.832  -8.392 -24.051  0.00  0.00    +0.003 C 
ATOM     11  C   UNL     1      33.174  -7.743 -22.418  0.00  0.00    +0.003 C 
ATOM     12  C   UNL     1      34.255  -7.417 -23.237  0.00  0.00    +0.000 C 
ENDBRANCH   6   7
ENDBRANCH   5   6
ENDBRANCH   3   5
ENDBRANCH   1   3
BRANCH   1  13
ATOM     13  C   UNL     1      34.586 -15.360 -24.104  0.00  0.00    -0.050 C 
BRANCH  13  14
ATOM     14  C   UNL     1      34.674 -16.749 -23.531  0.00  0.00    -0.043 C 
ATOM     15  C   UNL     1      34.824 -17.833 -24.386  0.00  0.00    -0.006 C 
ATOM     16  C   UNL     1      34.602 -16.928 -22.156  0.00  0.00    -0.006 C 
ATOM     17  C   UNL     1      34.905 -19.120 -23.855  0.00  0.00    -0.000 C 
ATOM     18  C   UNL     1      34.683 -18.216 -21.626  0.00  0.00    -0.000 C 
ATOM     19  C   UNL     1      34.835 -19.311 -22.476  0.00  0.00    -0.000 C 
ENDBRANCH  13  14
ENDBRANCH   1  13
BRANCH   1  20
ATOM     20  C   UNL     1      32.619 -14.325 -25.019  0.00  0.00    -0.059 C 
BRANCH  20  22
ATOM     21 CL   UNL     1      33.557 -13.557 -27.445  0.00  0.00    -0.116 Cl
ATOM     22  C   UNL     1      33.376 -14.845 -26.231  0.00  0.00    +0.072 C 
ENDBRANCH  20  22
ENDBRANCH   1  20
TORSDOF 8
ENDMDL
