MODEL 1
REMARK VINA RESULT:      -9.2      0.000      0.000
REMARK  Name = 71616
REMARK  6 active torsions:
REMARK  status: ('A' for Active; 'I' for Inactive)
REMARK    1  A    between atoms: C_1  and  C_4
REMARK    2  A    between atoms: C_1  and  O_10
REMARK    3  A    between atoms: C_1  and  C_12
REMARK    4  A    between atoms: C_1  and  C_21
REMARK    5  A    between atoms: C_12  and  C_17
REMARK    6  A    between atoms: C_21  and  N_22
REMARK                            x       y       z     vdW  Elec       q    Type
REMARK                         _______ _______ _______ _____ _____    ______ ____
ROOT
ATOM      1  C   UNL     1      35.296 -23.140 -15.974  0.00  0.00    +0.134 C 
ENDROOT
BRANCH   1   4
ATOM      2  F   UNL     1      33.074 -23.199 -17.718  0.00  0.00    -0.204 F 
ATOM      3  F   UNL     1      35.340 -20.712 -21.043  0.00  0.00    -0.204 F 
ATOM      4  C   UNL     1      35.306 -22.477 -17.361  0.00  0.00    +0.031 C 
ATOM      5  C   UNL     1      34.176 -22.561 -18.135  0.00  0.00    +0.141 C 
ATOM      6  C   UNL     1      36.447 -21.829 -17.763  0.00  0.00    +0.003 C 
ATOM      7  C   UNL     1      34.187 -21.958 -19.393  0.00  0.00    +0.059 C 
ATOM      8  C   UNL     1      36.459 -21.226 -19.021  0.00  0.00    +0.030 C 
ATOM      9  C   UNL     1      35.329 -21.291 -19.836  0.00  0.00    +0.142 C 
ENDBRANCH   1   4
BRANCH   1  10
ATOM     10  O   UNL     1      35.008 -22.160 -14.967  0.00  0.00    -0.380 OA
ATOM     11  H   UNL     1      35.654 -22.238 -14.247  0.00  0.00    +0.211 HD
ENDBRANCH   1  10
BRANCH   1  12
ATOM     12  C   UNL     1      36.704 -23.781 -15.648  0.00  0.00    +0.073 C 
ATOM     13  C   UNL     1      37.864 -22.769 -15.665  0.00  0.00    +0.009 C 
BRANCH  12  17
ATOM     14  F   UNL     1      37.355 -26.544 -15.500  0.00  0.00    -0.201 F 
ATOM     15  N   UNL     1      36.429 -23.854 -13.246  0.00  0.00    -0.226 NA
ATOM     16  N   UNL     1      36.767 -25.881 -11.987  0.00  0.00    -0.220 NA
ATOM     17  C   UNL     1      36.733 -24.563 -14.333  0.00  0.00    +0.092 C 
ATOM     18  C   UNL     1      37.058 -25.884 -14.377  0.00  0.00    +0.173 C 
ATOM     19  C   UNL     1      37.060 -26.508 -13.146  0.00  0.00    +0.131 C 
ATOM     20  C   UNL     1      36.464 -24.575 -12.108  0.00  0.00    +0.199 C 
ENDBRANCH  12  17
ENDBRANCH   1  12
BRANCH   1  21
ATOM     21  C   UNL     1      34.175 -24.225 -15.892  0.00  0.00    +0.149 C 
BRANCH  21  22
ATOM     22  N   UNL     1      33.162 -24.000 -14.855  0.00  0.00    -0.188 N 
ATOM     23  N   UNL     1      32.326 -22.974 -14.958  0.00  0.00    -0.154 NA
ATOM     24  N   UNL     1      31.958 -24.219 -13.076  0.00  0.00    -0.203 NA
ATOM     25  C   UNL     1      32.955 -24.740 -13.752  0.00  0.00    +0.186 C 
ATOM     26  C   UNL     1      31.608 -23.147 -13.847  0.00  0.00    +0.218 C 
ENDBRANCH  21  22
ENDBRANCH   1  21
TORSDOF 6
ENDMDL
MODEL 2
REMARK VINA RESULT:      -8.9      2.629      3.790
REMARK  Name = 71616
REMARK  6 active torsions:
REMARK  status: ('A' for Active; 'I' for Inactive)
REMARK    1  A    between atoms: C_1  and  C_4
REMARK    2  A    between atoms: C_1  and  O_10
REMARK    3  A    between atoms: C_1  and  C_12
REMARK    4  A    between atoms: C_1  and  C_21
REMARK    5  A    between atoms: C_12  and  C_17
REMARK    6  A    between atoms: C_21  and  N_22
REMARK                            x       y       z     vdW  Elec       q    Type
REMARK                         _______ _______ _______ _____ _____    ______ ____
ROOT
ATOM      1  C   UNL     1      35.338 -23.634 -14.552  0.00  0.00    +0.134 C 
ENDROOT
BRANCH   1   4
ATOM      2  F   UNL     1      32.939 -23.344 -13.089  0.00  0.00    -0.204 F 
ATOM      3  F   UNL     1      30.344 -22.877 -17.017  0.00  0.00    -0.204 F 
ATOM      4  C   UNL     1      33.971 -23.427 -15.224  0.00  0.00    +0.031 C 
ATOM      5  C   UNL     1      32.862 -23.297 -14.426  0.00  0.00    +0.141 C 
ATOM      6  C   UNL     1      33.922 -23.381 -16.595  0.00  0.00    +0.003 C 
ATOM      7  C   UNL     1      31.623 -23.109 -15.038  0.00  0.00    +0.059 C 
ATOM      8  C   UNL     1      32.683 -23.193 -17.208  0.00  0.00    +0.030 C 
ATOM      9  C   UNL     1      31.533 -23.058 -16.430  0.00  0.00    +0.142 C 
ENDBRANCH   1   4
BRANCH   1  10
ATOM     10  O   UNL     1      35.672 -22.485 -13.761  0.00  0.00    -0.380 OA
ATOM     11  H   UNL     1      35.868 -22.764 -12.853  0.00  0.00    +0.211 HD
ENDBRANCH   1  10
BRANCH   1  12
ATOM     12  C   UNL     1      36.473 -23.831 -15.635  0.00  0.00    +0.073 C 
ATOM     13  C   UNL     1      37.141 -22.517 -16.079  0.00  0.00    +0.009 C 
BRANCH  12  17
ATOM     14  F   UNL     1      36.083 -26.646 -15.691  0.00  0.00    -0.201 F 
ATOM     15  N   UNL     1      38.704 -24.291 -14.821  0.00  0.00    -0.226 NA
ATOM     16  N   UNL     1      39.493 -26.541 -14.472  0.00  0.00    -0.220 NA
ATOM     17  C   UNL     1      37.553 -24.832 -15.218  0.00  0.00    +0.092 C 
ATOM     18  C   UNL     1      37.259 -26.160 -15.283  0.00  0.00    +0.173 C 
ATOM     19  C   UNL     1      38.290 -26.988 -14.889  0.00  0.00    +0.131 C 
ATOM     20  C   UNL     1      39.629 -25.201 -14.462  0.00  0.00    +0.199 C 
ENDBRANCH  12  17
ENDBRANCH   1  12
BRANCH   1  21
ATOM     21  C   UNL     1      35.295 -24.859 -13.584  0.00  0.00    +0.149 C 
BRANCH  21  22
ATOM     22  N   UNL     1      35.764 -24.595 -12.220  0.00  0.00    -0.188 N 
ATOM     23  N   UNL     1      34.911 -24.651 -11.203  0.00  0.00    -0.154 NA
ATOM     24  N   UNL     1      37.035 -24.128 -10.537  0.00  0.00    -0.203 NA
ATOM     25  C   UNL     1      37.016 -24.289 -11.839  0.00  0.00    +0.186 C 
ATOM     26  C   UNL     1      35.733 -24.357 -10.194  0.00  0.00    +0.218 C 
ENDBRANCH  21  22
ENDBRANCH   1  21
TORSDOF 6
ENDMDL
MODEL 3
REMARK VINA RESULT:      -8.7      2.343      3.565
REMARK  Name = 71616
REMARK  6 active torsions:
REMARK  status: ('A' for Active; 'I' for Inactive)
REMARK    1  A    between atoms: C_1  and  C_4
REMARK    2  A    between atoms: C_1  and  O_10
REMARK    3  A    between atoms: C_1  and  C_12
REMARK    4  A    between atoms: C_1  and  C_21
REMARK    5  A    between atoms: C_12  and  C_17
REMARK    6  A    between atoms: C_21  and  N_22
REMARK                            x       y       z     vdW  Elec       q    Type
REMARK                         _______ _______ _______ _____ _____    ______ ____
ROOT
ATOM      1  C   UNL     1      36.212 -23.496 -14.537  0.00  0.00    +0.134 C 
ENDROOT
BRANCH   1   4
ATOM      2  F   UNL     1      37.627 -22.139 -16.570  0.00  0.00    -0.204 F 
ATOM      3  F   UNL     1      33.893 -22.147 -19.476  0.00  0.00    -0.204 F 
ATOM      4  C   UNL     1      35.580 -23.126 -15.888  0.00  0.00    +0.031 C 
ATOM      5  C   UNL     1      36.350 -22.465 -16.812  0.00  0.00    +0.141 C 
ATOM      6  C   UNL     1      34.270 -23.474 -16.109  0.00  0.00    +0.003 C 
ATOM      7  C   UNL     1      35.774 -22.131 -18.038  0.00  0.00    +0.059 C 
ATOM      8  C   UNL     1      33.694 -23.140 -17.335  0.00  0.00    +0.030 C 
ATOM      9  C   UNL     1      34.445 -22.468 -18.299  0.00  0.00    +0.142 C 
ENDBRANCH   1   4
BRANCH   1  10
ATOM     10  O   UNL     1      37.363 -22.676 -14.295  0.00  0.00    -0.380 OA
ATOM     11  H   UNL     1      37.856 -23.025 -13.536  0.00  0.00    +0.211 HD
ENDBRANCH   1  10
BRANCH   1  12
ATOM     12  C   UNL     1      36.676 -25.008 -14.528  0.00  0.00    +0.073 C 
ATOM     13  C   UNL     1      36.097 -25.840 -15.687  0.00  0.00    +0.009 C 
BRANCH  12  17
ATOM     14  F   UNL     1      38.059 -26.042 -12.270  0.00  0.00    -0.201 F 
ATOM     15  N   UNL     1      38.837 -24.815 -15.596  0.00  0.00    -0.226 NA
ATOM     16  N   UNL     1      40.871 -25.469 -14.481  0.00  0.00    -0.220 NA
ATOM     17  C   UNL     1      38.195 -25.184 -14.488  0.00  0.00    +0.092 C 
ATOM     18  C   UNL     1      38.755 -25.688 -13.354  0.00  0.00    +0.173 C 
ATOM     19  C   UNL     1      40.129 -25.812 -13.408  0.00  0.00    +0.131 C 
ATOM     20  C   UNL     1      40.172 -24.984 -15.525  0.00  0.00    +0.199 C 
ENDBRANCH  12  17
ENDBRANCH   1  12
BRANCH   1  21
ATOM     21  C   UNL     1      35.208 -23.232 -13.369  0.00  0.00    +0.149 C 
BRANCH  21  22
ATOM     22  N   UNL     1      35.726 -23.503 -12.025  0.00  0.00    -0.188 N 
ATOM     23  N   UNL     1      36.760 -22.811 -11.561  0.00  0.00    -0.154 NA
ATOM     24  N   UNL     1      35.990 -24.349 -10.055  0.00  0.00    -0.203 NA
ATOM     25  C   UNL     1      35.264 -24.410 -11.147  0.00  0.00    +0.186 C 
ATOM     26  C   UNL     1      36.887 -23.364 -10.353  0.00  0.00    +0.218 C 
ENDBRANCH  21  22
ENDBRANCH   1  21
TORSDOF 6
ENDMDL
MODEL 4
REMARK VINA RESULT:      -8.6      2.657      4.891
REMARK  Name = 71616
REMARK  6 active torsions:
REMARK  status: ('A' for Active; 'I' for Inactive)
REMARK    1  A    between atoms: C_1  and  C_4
REMARK    2  A    between atoms: C_1  and  O_10
REMARK    3  A    between atoms: C_1  and  C_12
REMARK    4  A    between atoms: C_1  and  C_21
REMARK    5  A    between atoms: C_12  and  C_17
REMARK    6  A    between atoms: C_21  and  N_22
REMARK                            x       y       z     vdW  Elec       q    Type
REMARK                         _______ _______ _______ _____ _____    ______ ____
ROOT
ATOM      1  C   UNL     1      34.627 -24.183 -15.113  0.00  0.00    +0.134 C 
ENDROOT
BRANCH   1   4
ATOM      2  F   UNL     1      32.789 -22.910 -16.841  0.00  0.00    -0.204 F 
ATOM      3  F   UNL     1      29.068 -24.345 -14.295  0.00  0.00    -0.204 F 
ATOM      4  C   UNL     1      33.106 -24.226 -14.892  0.00  0.00    +0.031 C 
ATOM      5  C   UNL     1      32.295 -23.575 -15.787  0.00  0.00    +0.141 C 
ATOM      6  C   UNL     1      32.628 -24.915 -13.805  0.00  0.00    +0.003 C 
ATOM      7  C   UNL     1      30.916 -23.616 -15.584  0.00  0.00    +0.059 C 
ATOM      8  C   UNL     1      31.248 -24.956 -13.601  0.00  0.00    +0.030 C 
ATOM      9  C   UNL     1      30.392 -24.306 -14.490  0.00  0.00    +0.142 C 
ENDBRANCH   1   4
BRANCH   1  10
ATOM     10  O   UNL     1      34.939 -24.622 -16.443  0.00  0.00    -0.380 OA
ATOM     11  H   UNL     1      34.536 -24.018 -17.086  0.00  0.00    +0.211 HD
ENDBRANCH   1  10
BRANCH   1  12
ATOM     12  C   UNL     1      35.370 -25.135 -14.094  0.00  0.00    +0.073 C 
ATOM     13  C   UNL     1      36.054 -26.343 -14.760  0.00  0.00    +0.009 C 
BRANCH  12  17
ATOM     14  F   UNL     1      34.608 -23.513 -11.887  0.00  0.00    -0.201 F 
ATOM     15  N   UNL     1      37.659 -24.591 -13.531  0.00  0.00    -0.226 NA
ATOM     16  N   UNL     1      38.208 -23.162 -11.670  0.00  0.00    -0.220 NA
ATOM     17  C   UNL     1      36.381 -24.410 -13.201  0.00  0.00    +0.092 C 
ATOM     18  C   UNL     1      35.906 -23.658 -12.171  0.00  0.00    +0.173 C 
ATOM     19  C   UNL     1      36.887 -23.042 -11.420  0.00  0.00    +0.131 C 
ATOM     20  C   UNL     1      38.519 -23.939 -12.724  0.00  0.00    +0.199 C 
ENDBRANCH  12  17
ENDBRANCH   1  12
BRANCH   1  21
ATOM     21  C   UNL     1      35.161 -22.721 -14.978  0.00  0.00    +0.149 C 
BRANCH  21  22
ATOM     22  N   UNL     1      36.066 -22.284 -16.045  0.00  0.00    -0.188 N 
ATOM     23  N   UNL     1      35.591 -22.055 -17.264  0.00  0.00    -0.154 NA
ATOM     24  N   UNL     1      37.844 -21.686 -17.117  0.00  0.00    -0.203 NA
ATOM     25  C   UNL     1      37.390 -22.070 -15.947  0.00  0.00    +0.186 C 
ATOM     26  C   UNL     1      36.715 -21.692 -17.887  0.00  0.00    +0.218 C 
ENDBRANCH  21  22
ENDBRANCH   1  21
TORSDOF 6
ENDMDL
MODEL 5
REMARK VINA RESULT:      -8.6      1.700      2.211
REMARK  Name = 71616
REMARK  6 active torsions:
REMARK  status: ('A' for Active; 'I' for Inactive)
REMARK    1  A    between atoms: C_1  and  C_4
REMARK    2  A    between atoms: C_1  and  O_10
REMARK    3  A    between atoms: C_1  and  C_12
REMARK    4  A    between atoms: C_1  and  C_21
REMARK    5  A    between atoms: C_12  and  C_17
REMARK    6  A    between atoms: C_21  and  N_22
REMARK                            x       y       z     vdW  Elec       q    Type
REMARK                         _______ _______ _______ _____ _____    ______ ____
ROOT
ATOM      1  C   UNL     1      34.515 -23.364 -14.932  0.00  0.00    +0.134 C 
ENDROOT
BRANCH   1   4
ATOM      2  F   UNL     1      33.101 -23.249 -17.375  0.00  0.00    -0.204 F 
ATOM      3  F   UNL     1      36.765 -21.307 -19.654  0.00  0.00    -0.204 F 
ATOM      4  C   UNL     1      35.128 -22.802 -16.224  0.00  0.00    +0.031 C 
ATOM      5  C   UNL     1      34.360 -22.790 -17.362  0.00  0.00    +0.141 C 
ATOM      6  C   UNL     1      36.419 -22.338 -16.182  0.00  0.00    +0.003 C 
ATOM      7  C   UNL     1      34.919 -22.279 -18.533  0.00  0.00    +0.059 C 
ATOM      8  C   UNL     1      36.978 -21.827 -17.353  0.00  0.00    +0.030 C 
ATOM      9  C   UNL     1      36.229 -21.798 -18.529  0.00  0.00    +0.142 C 
ENDBRANCH   1   4
BRANCH   1  10
ATOM     10  O   UNL     1      33.630 -22.396 -14.350  0.00  0.00    -0.380 OA
ATOM     11  H   UNL     1      33.787 -22.349 -13.394  0.00  0.00    +0.211 HD
ENDBRANCH   1  10
BRANCH   1  12
ATOM     12  C   UNL     1      35.641 -23.698 -13.874  0.00  0.00    +0.073 C 
ATOM     13  C   UNL     1      35.105 -23.925 -12.449  0.00  0.00    +0.009 C 
BRANCH  12  17
ATOM     14  F   UNL     1      38.314 -24.009 -12.958  0.00  0.00    -0.201 F 
ATOM     15  N   UNL     1      35.960 -25.764 -15.092  0.00  0.00    -0.226 NA
ATOM     16  N   UNL     1      38.039 -26.979 -15.015  0.00  0.00    -0.220 NA
ATOM     17  C   UNL     1      36.529 -24.879 -14.274  0.00  0.00    +0.092 C 
ATOM     18  C   UNL     1      37.795 -24.929 -13.777  0.00  0.00    +0.173 C 
ATOM     19  C   UNL     1      38.523 -26.027 -14.190  0.00  0.00    +0.131 C 
ATOM     20  C   UNL     1      36.770 -26.788 -15.422  0.00  0.00    +0.199 C 
ENDBRANCH  12  17
ENDBRANCH   1  12
BRANCH   1  21
ATOM     21  C   UNL     1      33.662 -24.638 -15.236  0.00  0.00    +0.149 C 
BRANCH  21  22
ATOM     22  N   UNL     1      32.302 -24.626 -14.689  0.00  0.00    -0.188 N 
ATOM     23  N   UNL     1      32.099 -24.930 -13.412  0.00  0.00    -0.154 NA
ATOM     24  N   UNL     1      30.158 -24.427 -14.513  0.00  0.00    -0.203 NA
ATOM     25  C   UNL     1      31.168 -24.328 -15.347  0.00  0.00    +0.186 C 
ATOM     26  C   UNL     1      30.772 -24.796 -13.350  0.00  0.00    +0.218 C 
ENDBRANCH  21  22
ENDBRANCH   1  21
TORSDOF 6
ENDMDL
MODEL 6
REMARK VINA RESULT:      -8.6      1.698      2.117
REMARK  Name = 71616
REMARK  6 active torsions:
REMARK  status: ('A' for Active; 'I' for Inactive)
REMARK    1  A    between atoms: C_1  and  C_4
REMARK    2  A    between atoms: C_1  and  O_10
REMARK    3  A    between atoms: C_1  and  C_12
REMARK    4  A    between atoms: C_1  and  C_21
REMARK    5  A    between atoms: C_12  and  C_17
REMARK    6  A    between atoms: C_21  and  N_22
REMARK                            x       y       z     vdW  Elec       q    Type
REMARK                         _______ _______ _______ _____ _____    ______ ____
ROOT
ATOM      1  C   UNL     1      34.339 -23.452 -15.257  0.00  0.00    +0.134 C 
ENDROOT
BRANCH   1   4
ATOM      2  F   UNL     1      36.857 -22.188 -15.041  0.00  0.00    -0.204 F 
ATOM      3  F   UNL     1      36.994 -21.186 -19.662  0.00  0.00    -0.204 F 
ATOM      4  C   UNL     1      35.067 -22.832 -16.460  0.00  0.00    +0.031 C 
ATOM      5  C   UNL     1      36.288 -22.239 -16.253  0.00  0.00    +0.141 C 
ATOM      6  C   UNL     1      34.462 -22.899 -17.691  0.00  0.00    +0.003 C 
ATOM      7  C   UNL     1      36.946 -21.677 -17.347  0.00  0.00    +0.059 C 
ATOM      8  C   UNL     1      35.120 -22.337 -18.785  0.00  0.00    +0.030 C 
ATOM      9  C   UNL     1      36.362 -21.726 -18.613  0.00  0.00    +0.142 C 
ENDBRANCH   1   4
BRANCH   1  10
ATOM     10  O   UNL     1      34.301 -22.514 -14.173  0.00  0.00    -0.380 OA
ATOM     11  H   UNL     1      35.186 -22.431 -13.785  0.00  0.00    +0.211 HD
ENDBRANCH   1  10
BRANCH   1  12
ATOM     12  C   UNL     1      35.088 -24.751 -14.756  0.00  0.00    +0.073 C 
ATOM     13  C   UNL     1      36.117 -25.299 -15.760  0.00  0.00    +0.009 C 
BRANCH  12  17
ATOM     14  F   UNL     1      37.905 -24.597 -14.410  0.00  0.00    -0.201 F 
ATOM     15  N   UNL     1      34.915 -24.521 -12.354  0.00  0.00    -0.226 NA
ATOM     16  N   UNL     1      36.863 -24.299 -10.953  0.00  0.00    -0.220 NA
ATOM     17  C   UNL     1      35.754 -24.587 -13.388  0.00  0.00    +0.092 C 
ATOM     18  C   UNL     1      37.113 -24.525 -13.336  0.00  0.00    +0.173 C 
ATOM     19  C   UNL     1      37.625 -24.377 -12.063  0.00  0.00    +0.131 C 
ATOM     20  C   UNL     1      35.536 -24.377 -11.167  0.00  0.00    +0.199 C 
ENDBRANCH  12  17
ENDBRANCH   1  12
BRANCH   1  21
ATOM     21  C   UNL     1      32.859 -23.789 -15.624  0.00  0.00    +0.149 C 
BRANCH  21  22
ATOM     22  N   UNL     1      31.954 -23.958 -14.483  0.00  0.00    -0.188 N 
ATOM     23  N   UNL     1      31.390 -22.895 -13.921  0.00  0.00    -0.154 NA
ATOM     24  N   UNL     1      30.772 -24.852 -12.911  0.00  0.00    -0.203 NA
ATOM     25  C   UNL     1      31.598 -25.115 -13.897  0.00  0.00    +0.186 C 
ATOM     26  C   UNL     1      30.676 -23.491 -12.963  0.00  0.00    +0.218 C 
ENDBRANCH  21  22
ENDBRANCH   1  21
TORSDOF 6
ENDMDL
MODEL 7
REMARK VINA RESULT:      -8.4      1.649      2.114
REMARK  Name = 71616
REMARK  6 active torsions:
REMARK  status: ('A' for Active; 'I' for Inactive)
REMARK    1  A    between atoms: C_1  and  C_4
REMARK    2  A    between atoms: C_1  and  O_10
REMARK    3  A    between atoms: C_1  and  C_12
REMARK    4  A    between atoms: C_1  and  C_21
REMARK    5  A    between atoms: C_12  and  C_17
REMARK    6  A    between atoms: C_21  and  N_22
REMARK                            x       y       z     vdW  Elec       q    Type
REMARK                         _______ _______ _______ _____ _____    ______ ____
ROOT
ATOM      1  C   UNL     1      34.658 -23.482 -15.179  0.00  0.00    +0.134 C 
ENDROOT
BRANCH   1   4
ATOM      2  F   UNL     1      33.437 -23.498 -17.726  0.00  0.00    -0.204 F 
ATOM      3  F   UNL     1      36.934 -20.966 -19.660  0.00  0.00    -0.204 F 
ATOM      4  C   UNL     1      35.279 -22.795 -16.406  0.00  0.00    +0.031 C 
ATOM      5  C   UNL     1      34.608 -22.860 -17.602  0.00  0.00    +0.141 C 
ATOM      6  C   UNL     1      36.479 -22.147 -16.249  0.00  0.00    +0.003 C 
ATOM      7  C   UNL     1      35.174 -22.235 -18.713  0.00  0.00    +0.059 C 
ATOM      8  C   UNL     1      37.044 -21.522 -17.361  0.00  0.00    +0.030 C 
ATOM      9  C   UNL     1      36.392 -21.566 -18.593  0.00  0.00    +0.142 C 
ENDBRANCH   1   4
BRANCH   1  10
ATOM     10  O   UNL     1      34.281 -22.498 -14.206  0.00  0.00    -0.380 OA
ATOM     11  H   UNL     1      33.379 -22.191 -14.390  0.00  0.00    +0.211 HD
ENDBRANCH   1  10
BRANCH   1  12
ATOM     12  C   UNL     1      35.693 -24.468 -14.503  0.00  0.00    +0.073 C 
ATOM     13  C   UNL     1      36.870 -24.853 -15.418  0.00  0.00    +0.009 C 
BRANCH  12  17
ATOM     14  F   UNL     1      34.470 -25.071 -12.009  0.00  0.00    -0.201 F 
ATOM     15  N   UNL     1      37.335 -23.216 -13.243  0.00  0.00    -0.226 NA
ATOM     16  N   UNL     1      37.241 -23.050 -10.841  0.00  0.00    -0.220 NA
ATOM     17  C   UNL     1      36.236 -23.965 -13.164  0.00  0.00    +0.092 C 
ATOM     18  C   UNL     1      35.571 -24.314 -12.028  0.00  0.00    +0.173 C 
ATOM     19  C   UNL     1      36.131 -23.817 -10.869  0.00  0.00    +0.131 C 
ATOM     20  C   UNL     1      37.784 -22.792 -12.046  0.00  0.00    +0.199 C 
ENDBRANCH  12  17
ENDBRANCH   1  12
BRANCH   1  21
ATOM     21  C   UNL     1      33.359 -24.252 -15.579  0.00  0.00    +0.149 C 
BRANCH  21  22
ATOM     22  N   UNL     1      32.145 -23.844 -14.864  0.00  0.00    -0.188 N 
ATOM     23  N   UNL     1      32.012 -24.123 -13.572  0.00  0.00    -0.154 NA
ATOM     24  N   UNL     1      30.206 -23.003 -14.417  0.00  0.00    -0.203 NA
ATOM     25  C   UNL     1      31.089 -23.186 -15.372  0.00  0.00    +0.186 C 
ATOM     26  C   UNL     1      30.810 -23.590 -13.342  0.00  0.00    +0.218 C 
ENDBRANCH  21  22
ENDBRANCH   1  21
TORSDOF 6
ENDMDL
MODEL 8
REMARK VINA RESULT:      -8.3      2.644      4.526
REMARK  Name = 71616
REMARK  6 active torsions:
REMARK  status: ('A' for Active; 'I' for Inactive)
REMARK    1  A    between atoms: C_1  and  C_4
REMARK    2  A    between atoms: C_1  and  O_10
REMARK    3  A    between atoms: C_1  and  C_12
REMARK    4  A    between atoms: C_1  and  C_21
REMARK    5  A    between atoms: C_12  and  C_17
REMARK    6  A    between atoms: C_21  and  N_22
REMARK                            x       y       z     vdW  Elec       q    Type
REMARK                         _______ _______ _______ _____ _____    ______ ____
ROOT
ATOM      1  C   UNL     1      34.411 -23.924 -14.282  0.00  0.00    +0.134 C 
ENDROOT
BRANCH   1   4
ATOM      2  F   UNL     1      33.142 -22.660 -16.466  0.00  0.00    -0.204 F 
ATOM      3  F   UNL     1      28.968 -24.655 -15.476  0.00  0.00    -0.204 F 
ATOM      4  C   UNL     1      32.923 -24.123 -14.610  0.00  0.00    +0.031 C 
ATOM      5  C   UNL     1      32.397 -23.463 -15.694  0.00  0.00    +0.141 C 
ATOM      6  C   UNL     1      32.184 -24.952 -13.803  0.00  0.00    +0.003 C 
ATOM      7  C   UNL     1      31.046 -23.646 -15.989  0.00  0.00    +0.059 C 
ATOM      8  C   UNL     1      30.833 -25.134 -14.098  0.00  0.00    +0.030 C 
ATOM      9  C   UNL     1      30.264 -24.481 -15.191  0.00  0.00    +0.142 C 
ENDBRANCH   1   4
BRANCH   1  10
ATOM     10  O   UNL     1      34.645 -22.569 -13.872  0.00  0.00    -0.380 OA
ATOM     11  H   UNL     1      34.692 -22.528 -12.904  0.00  0.00    +0.211 HD
ENDBRANCH   1  10
BRANCH   1  12
ATOM     12  C   UNL     1      35.310 -24.216 -15.549  0.00  0.00    +0.073 C 
ATOM     13  C   UNL     1      35.903 -22.950 -16.193  0.00  0.00    +0.009 C 
BRANCH  12  17
ATOM     14  F   UNL     1      37.950 -23.446 -14.831  0.00  0.00    -0.201 F 
ATOM     15  N   UNL     1      36.086 -26.504 -15.420  0.00  0.00    -0.226 NA
ATOM     16  N   UNL     1      38.362 -27.045 -14.840  0.00  0.00    -0.220 NA
ATOM     17  C   UNL     1      36.432 -25.223 -15.287  0.00  0.00    +0.092 C 
ATOM     18  C   UNL     1      37.661 -24.745 -14.949  0.00  0.00    +0.173 C 
ATOM     19  C   UNL     1      38.610 -25.723 -14.732  0.00  0.00    +0.131 C 
ATOM     20  C   UNL     1      37.098 -27.360 -15.183  0.00  0.00    +0.199 C 
ENDBRANCH  12  17
ENDBRANCH   1  12
BRANCH   1  21
ATOM     21  C   UNL     1      34.838 -24.842 -13.091  0.00  0.00    +0.149 C 
BRANCH  21  22
ATOM     22  N   UNL     1      35.624 -24.182 -12.044  0.00  0.00    -0.188 N 
ATOM     23  N   UNL     1      36.467 -23.207 -12.363  0.00  0.00    -0.154 NA
ATOM     24  N   UNL     1      36.442 -23.644 -10.118  0.00  0.00    -0.203 NA
ATOM     25  C   UNL     1      35.600 -24.448 -10.726  0.00  0.00    +0.186 C 
ATOM     26  C   UNL     1      36.946 -22.909 -11.153  0.00  0.00    +0.218 C 
ENDBRANCH  21  22
ENDBRANCH   1  21
TORSDOF 6
ENDMDL
MODEL 9
REMARK VINA RESULT:      -8.3      2.834      5.874
REMARK  Name = 71616
REMARK  6 active torsions:
REMARK  status: ('A' for Active; 'I' for Inactive)
REMARK    1  A    between atoms: C_1  and  C_4
REMARK    2  A    between atoms: C_1  and  O_10
REMARK    3  A    between atoms: C_1  and  C_12
REMARK    4  A    between atoms: C_1  and  C_21
REMARK    5  A    between atoms: C_12  and  C_17
REMARK    6  A    between atoms: C_21  and  N_22
REMARK                            x       y       z     vdW  Elec       q    Type
REMARK                         _______ _______ _______ _____ _____    ______ ____
ROOT
ATOM      1  C   UNL     1      33.742 -23.536 -15.840  0.00  0.00    +0.134 C 
ENDROOT
BRANCH   1   4
ATOM      2  F   UNL     1      36.045 -21.903 -15.732  0.00  0.00    -0.204 F 
ATOM      3  F   UNL     1      38.820 -25.522 -14.474  0.00  0.00    -0.204 F 
ATOM      4  C   UNL     1      35.132 -24.077 -15.466  0.00  0.00    +0.031 C 
ATOM      5  C   UNL     1      36.190 -23.203 -15.443  0.00  0.00    +0.141 C 
ATOM      6  C   UNL     1      35.251 -25.413 -15.173  0.00  0.00    +0.003 C 
ATOM      7  C   UNL     1      37.450 -23.697 -15.104  0.00  0.00    +0.059 C 
ATOM      8  C   UNL     1      36.511 -25.907 -14.834  0.00  0.00    +0.030 C 
ATOM      9  C   UNL     1      37.610 -25.049 -14.800  0.00  0.00    +0.142 C 
ENDBRANCH   1   4
BRANCH   1  10
ATOM     10  O   UNL     1      33.716 -22.110 -15.685  0.00  0.00    -0.380 OA
ATOM     11  H   UNL     1      33.037 -21.735 -16.268  0.00  0.00    +0.211 HD
ENDBRANCH   1  10
BRANCH   1  12
ATOM     12  C   UNL     1      32.629 -24.152 -14.902  0.00  0.00    +0.073 C 
ATOM     13  C   UNL     1      32.739 -23.705 -13.433  0.00  0.00    +0.009 C 
BRANCH  12  17
ATOM     14  F   UNL     1      30.543 -26.065 -14.632  0.00  0.00    -0.201 F 
ATOM     15  N   UNL     1      30.998 -22.724 -15.976  0.00  0.00    -0.226 NA
ATOM     16  N   UNL     1      28.713 -23.417 -16.296  0.00  0.00    -0.220 NA
ATOM     17  C   UNL     1      31.202 -23.908 -15.399  0.00  0.00    +0.092 C 
ATOM     18  C   UNL     1      30.280 -24.893 -15.219  0.00  0.00    +0.173 C 
ATOM     19  C   UNL     1      29.023 -24.587 -15.698  0.00  0.00    +0.131 C 
ATOM     20  C   UNL     1      29.733 -22.545 -16.401  0.00  0.00    +0.199 C 
ENDBRANCH  12  17
ENDBRANCH   1  12
BRANCH   1  21
ATOM     21  C   UNL     1      33.418 -23.840 -17.337  0.00  0.00    +0.149 C 
BRANCH  21  22
ATOM     22  N   UNL     1      33.677 -22.739 -18.270  0.00  0.00    -0.188 N 
ATOM     23  N   UNL     1      32.667 -22.014 -18.736  0.00  0.00    -0.154 NA
ATOM     24  N   UNL     1      34.690 -21.323 -19.549  0.00  0.00    -0.203 NA
ATOM     25  C   UNL     1      34.872 -22.342 -18.741  0.00  0.00    +0.186 C 
ATOM     26  C   UNL     1      33.334 -21.160 -19.515  0.00  0.00    +0.218 C 
ENDBRANCH  21  22
ENDBRANCH   1  21
TORSDOF 6
ENDMDL
