MODEL 1
REMARK VINA RESULT:     -10.8      0.000      0.000
REMARK  Name = 6918837
REMARK  8 active torsions:
REMARK  status: ('A' for Active; 'I' for Inactive)
REMARK    1  A    between atoms: N_1  and  C_4
REMARK    2  A    between atoms: N_1  and  C_17
REMARK    3  A    between atoms: C_4  and  C_5
REMARK    4  A    between atoms: C_5  and  C_7
REMARK    5  A    between atoms: C_17  and  C_18
REMARK    6  A    between atoms: C_23  and  C_24
REMARK    7  A    between atoms: C_25  and  C_28
REMARK    8  A    between atoms: N_27  and  O_30
REMARK                            x       y       z     vdW  Elec       q    Type
REMARK                         _______ _______ _______ _____ _____    ______ ____
ROOT
ATOM      1  N   UNL     1      33.307 -22.814 -17.376  0.00  0.00    +0.387 N 
ATOM      2  H   UNL     1      33.367 -21.825 -17.134  0.00  0.00    -0.084 HD
ATOM      3  H   UNL     1      32.338 -23.083 -17.542  0.00  0.00    -0.084 HD
ENDROOT
BRANCH   1   4
ATOM      4  C   UNL     1      33.829 -23.608 -16.270  0.00  0.00    -0.076 C 
BRANCH   4   5
ATOM      5  C   UNL     1      34.709 -22.770 -15.326  0.00  0.00    +0.004 C 
BRANCH   5   7
ATOM      6  N   UNL     1      38.285 -23.320 -15.833  0.00  0.00    -0.357 N 
ATOM      7  C   UNL     1      36.126 -23.189 -15.335  0.00  0.00    -0.011 A 
ATOM      8  C   UNL     1      36.708 -24.204 -14.527  0.00  0.00    +0.013 A 
ATOM      9  C   UNL     1      37.121 -22.664 -16.128  0.00  0.00    +0.030 A 
ATOM     10  C   UNL     1      38.063 -24.267 -14.858  0.00  0.00    +0.056 A 
ATOM     11  C   UNL     1      36.210 -25.080 -13.541  0.00  0.00    +0.001 C 
ATOM     12  C   UNL     1      37.087 -21.594 -17.144  0.00  0.00    +0.049 C 
ATOM     13  C   UNL     1      38.949 -25.165 -14.252  0.00  0.00    +0.017 C 
ATOM     14  C   UNL     1      37.085 -25.983 -12.926  0.00  0.00    +0.000 C 
ATOM     15  C   UNL     1      38.432 -26.023 -13.277  0.00  0.00    +0.001 C 
ATOM     16  H   UNL     1      39.156 -23.142 -16.257  0.00  0.00    +0.166 HD
ENDBRANCH   5   7
ENDBRANCH   4   5
ENDBRANCH   1   4
BRANCH   1  17
ATOM     17  C   UNL     1      34.072 -23.053 -18.592  0.00  0.00    -0.054 C 
BRANCH  17  18
ATOM     18  C   UNL     1      34.135 -21.827 -19.465  0.00  0.00    -0.044 C 
ATOM     19  C   UNL     1      35.359 -21.414 -19.974  0.00  0.00    -0.006 C 
ATOM     20  C   UNL     1      32.970 -21.129 -19.748  0.00  0.00    -0.006 C 
ATOM     21  C   UNL     1      35.418 -20.279 -20.781  0.00  0.00    -0.000 C 
ATOM     22  C   UNL     1      33.029 -19.993 -20.556  0.00  0.00    -0.000 C 
ATOM     23  C   UNL     1      34.254 -19.568 -21.072  0.00  0.00    +0.000 C 
BRANCH  23  24
ATOM     24  C   UNL     1      34.315 -18.384 -21.915  0.00  0.00    +0.005 C 
ATOM     25  C   UNL     1      34.932 -18.312 -23.116  0.00  0.00    +0.060 C 
BRANCH  25  28
ATOM     26  O   UNL     1      35.409 -16.001 -23.478  0.00  0.00    -0.268 OA
ATOM     27  N   UNL     1      34.321 -17.210 -25.120  0.00  0.00    -0.193 N 
ATOM     28  C   UNL     1      34.923 -17.046 -23.899  0.00  0.00    +0.268 C 
ATOM     29  H   UNL     1      33.947 -18.074 -25.408  0.00  0.00    +0.183 HD
BRANCH  27  30
ATOM     30  O   UNL     1      34.271 -16.067 -25.930  0.00  0.00    -0.295 OA
ATOM     31  H   UNL     1      34.440 -15.279 -25.390  0.00  0.00    +0.241 HD
ENDBRANCH  27  30
ENDBRANCH  25  28
ENDBRANCH  23  24
ENDBRANCH  17  18
ENDBRANCH   1  17
TORSDOF 8
ENDMDL
MODEL 2
REMARK VINA RESULT:     -10.8      4.904     10.478
REMARK  Name = 6918837
REMARK  8 active torsions:
REMARK  status: ('A' for Active; 'I' for Inactive)
REMARK    1  A    between atoms: N_1  and  C_4
REMARK    2  A    between atoms: N_1  and  C_17
REMARK    3  A    between atoms: C_4  and  C_5
REMARK    4  A    between atoms: C_5  and  C_7
REMARK    5  A    between atoms: C_17  and  C_18
REMARK    6  A    between atoms: C_23  and  C_24
REMARK    7  A    between atoms: C_25  and  C_28
REMARK    8  A    between atoms: N_27  and  O_30
REMARK                            x       y       z     vdW  Elec       q    Type
REMARK                         _______ _______ _______ _____ _____    ______ ____
ROOT
ATOM      1  N   UNL     1      36.641 -20.167 -19.630  0.00  0.00    +0.387 N 
ATOM      2  H   UNL     1      36.436 -19.516 -18.871  0.00  0.00    -0.084 HD
ATOM      3  H   UNL     1      37.593 -20.523 -19.547  0.00  0.00    -0.084 HD
ENDROOT
BRANCH   1   4
ATOM      4  C   UNL     1      36.511 -19.470 -20.904  0.00  0.00    -0.076 C 
BRANCH   4   5
ATOM      5  C   UNL     1      35.041 -19.336 -21.338  0.00  0.00    +0.004 C 
BRANCH   5   7
ATOM      6  N   UNL     1      34.557 -17.198 -24.261  0.00  0.00    -0.357 N 
ATOM      7  C   UNL     1      34.829 -18.264 -22.334  0.00  0.00    -0.011 A 
ATOM      8  C   UNL     1      34.655 -16.880 -22.056  0.00  0.00    +0.013 A 
ATOM      9  C   UNL     1      34.765 -18.429 -23.699  0.00  0.00    +0.030 A 
ATOM     10  C   UNL     1      34.487 -16.233 -23.282  0.00  0.00    +0.056 A 
ATOM     11  C   UNL     1      34.625 -16.113 -20.874  0.00  0.00    +0.001 C 
ATOM     12  C   UNL     1      34.877 -19.639 -24.536  0.00  0.00    +0.049 C 
ATOM     13  C   UNL     1      34.289 -14.851 -23.386  0.00  0.00    +0.017 C 
ATOM     14  C   UNL     1      34.428 -14.730 -20.964  0.00  0.00    +0.000 C 
ATOM     15  C   UNL     1      34.263 -14.111 -22.201  0.00  0.00    +0.001 C 
ATOM     16  H   UNL     1      34.472 -17.027 -25.227  0.00  0.00    +0.166 HD
ENDBRANCH   5   7
ENDBRANCH   4   5
ENDBRANCH   1   4
BRANCH   1  17
ATOM     17  C   UNL     1      35.716 -21.289 -19.556  0.00  0.00    -0.054 C 
BRANCH  17  18
ATOM     18  C   UNL     1      35.703 -21.916 -18.187  0.00  0.00    -0.044 C 
ATOM     19  C   UNL     1      34.571 -22.598 -17.759  0.00  0.00    -0.006 C 
ATOM     20  C   UNL     1      36.821 -21.804 -17.373  0.00  0.00    -0.006 C 
ATOM     21  C   UNL     1      34.558 -23.177 -16.491  0.00  0.00    -0.000 C 
ATOM     22  C   UNL     1      36.808 -22.384 -16.104  0.00  0.00    -0.000 C 
ATOM     23  C   UNL     1      35.676 -23.071 -15.663  0.00  0.00    +0.000 C 
BRANCH  23  24
ATOM     24  C   UNL     1      35.663 -23.676 -14.341  0.00  0.00    +0.005 C 
ATOM     25  C   UNL     1      36.430 -24.719 -13.952  0.00  0.00    +0.060 C 
BRANCH  25  28
ATOM     26  O   UNL     1      37.019 -26.194 -12.170  0.00  0.00    -0.268 OA
ATOM     27  N   UNL     1      35.425 -24.559 -11.815  0.00  0.00    -0.193 N 
ATOM     28  C   UNL     1      36.340 -25.252 -12.565  0.00  0.00    +0.268 C 
ATOM     29  H   UNL     1      34.906 -23.808 -12.184  0.00  0.00    +0.183 HD
BRANCH  27  30
ATOM     30  O   UNL     1      35.277 -24.989 -10.489  0.00  0.00    -0.295 OA
ATOM     31  H   UNL     1      34.686 -24.382 -10.016  0.00  0.00    +0.241 HD
ENDBRANCH  27  30
ENDBRANCH  25  28
ENDBRANCH  23  24
ENDBRANCH  17  18
ENDBRANCH   1  17
TORSDOF 8
ENDMDL
MODEL 3
REMARK VINA RESULT:     -10.6      4.010     10.426
REMARK  Name = 6918837
REMARK  8 active torsions:
REMARK  status: ('A' for Active; 'I' for Inactive)
REMARK    1  A    between atoms: N_1  and  C_4
REMARK    2  A    between atoms: N_1  and  C_17
REMARK    3  A    between atoms: C_4  and  C_5
REMARK    4  A    between atoms: C_5  and  C_7
REMARK    5  A    between atoms: C_17  and  C_18
REMARK    6  A    between atoms: C_23  and  C_24
REMARK    7  A    between atoms: C_25  and  C_28
REMARK    8  A    between atoms: N_27  and  O_30
REMARK                            x       y       z     vdW  Elec       q    Type
REMARK                         _______ _______ _______ _____ _____    ______ ____
ROOT
ATOM      1  N   UNL     1      34.563 -18.957 -23.956  0.00  0.00    +0.387 N 
ATOM      2  H   UNL     1      34.968 -19.770 -24.421  0.00  0.00    -0.084 HD
ATOM      3  H   UNL     1      33.714 -19.219 -23.456  0.00  0.00    -0.084 HD
ENDROOT
BRANCH   1   4
ATOM      4  C   UNL     1      34.225 -17.953 -24.958  0.00  0.00    -0.076 C 
BRANCH   4   5
ATOM      5  C   UNL     1      34.936 -16.615 -24.692  0.00  0.00    +0.004 C 
BRANCH   5   7
ATOM      6  N   UNL     1      32.551 -13.875 -24.302  0.00  0.00    -0.357 N 
ATOM      7  C   UNL     1      34.011 -15.545 -24.261  0.00  0.00    -0.011 A 
ATOM      8  C   UNL     1      33.716 -15.180 -22.919  0.00  0.00    +0.013 A 
ATOM      9  C   UNL     1      33.280 -14.725 -25.089  0.00  0.00    +0.030 A 
ATOM     10  C   UNL     1      32.798 -14.130 -22.971  0.00  0.00    +0.056 A 
ATOM     11  C   UNL     1      34.143 -15.644 -21.658  0.00  0.00    +0.001 C 
ATOM     12  C   UNL     1      33.195 -14.660 -26.561  0.00  0.00    +0.049 C 
ATOM     13  C   UNL     1      32.283 -13.517 -21.823  0.00  0.00    +0.017 C 
ATOM     14  C   UNL     1      33.637 -15.041 -20.501  0.00  0.00    +0.000 C 
ATOM     15  C   UNL     1      32.722 -13.994 -20.585  0.00  0.00    +0.001 C 
ATOM     16  H   UNL     1      31.939 -13.180 -24.638  0.00  0.00    +0.166 HD
ENDBRANCH   5   7
ENDBRANCH   4   5
ENDBRANCH   1   4
BRANCH   1  17
ATOM     17  C   UNL     1      35.524 -18.430 -22.997  0.00  0.00    -0.054 C 
BRANCH  17  18
ATOM     18  C   UNL     1      35.639 -19.307 -21.778  0.00  0.00    -0.044 C 
ATOM     19  C   UNL     1      34.516 -19.973 -21.308  0.00  0.00    -0.006 C 
ATOM     20  C   UNL     1      36.866 -19.437 -21.143  0.00  0.00    -0.006 C 
ATOM     21  C   UNL     1      34.622 -20.785 -20.179  0.00  0.00    -0.000 C 
ATOM     22  C   UNL     1      36.973 -20.250 -20.014  0.00  0.00    -0.000 C 
ATOM     23  C   UNL     1      35.850 -20.923 -19.532  0.00  0.00    +0.000 C 
BRANCH  23  24
ATOM     24  C   UNL     1      35.961 -21.770 -18.355  0.00  0.00    +0.005 C 
ATOM     25  C   UNL     1      36.865 -21.612 -17.362  0.00  0.00    +0.060 C 
BRANCH  25  28
ATOM     26  O   UNL     1      35.900 -22.719 -15.480  0.00  0.00    -0.268 OA
ATOM     27  N   UNL     1      38.101 -23.142 -16.043  0.00  0.00    -0.193 N 
ATOM     28  C   UNL     1      36.880 -22.537 -16.196  0.00  0.00    +0.268 C 
ATOM     29  H   UNL     1      38.856 -22.958 -16.649  0.00  0.00    +0.183 HD
BRANCH  27  30
ATOM     30  O   UNL     1      38.206 -24.037 -14.970  0.00  0.00    -0.295 OA
ATOM     31  H   UNL     1      39.132 -24.092 -14.684  0.00  0.00    +0.241 HD
ENDBRANCH  27  30
ENDBRANCH  25  28
ENDBRANCH  23  24
ENDBRANCH  17  18
ENDBRANCH   1  17
TORSDOF 8
ENDMDL
MODEL 4
REMARK VINA RESULT:     -10.6      4.708      9.902
REMARK  Name = 6918837
REMARK  8 active torsions:
REMARK  status: ('A' for Active; 'I' for Inactive)
REMARK    1  A    between atoms: N_1  and  C_4
REMARK    2  A    between atoms: N_1  and  C_17
REMARK    3  A    between atoms: C_4  and  C_5
REMARK    4  A    between atoms: C_5  and  C_7
REMARK    5  A    between atoms: C_17  and  C_18
REMARK    6  A    between atoms: C_23  and  C_24
REMARK    7  A    between atoms: C_25  and  C_28
REMARK    8  A    between atoms: N_27  and  O_30
REMARK                            x       y       z     vdW  Elec       q    Type
REMARK                         _______ _______ _______ _____ _____    ______ ____
ROOT
ATOM      1  N   UNL     1      36.688 -19.917 -19.652  0.00  0.00    +0.387 N 
ATOM      2  H   UNL     1      35.986 -19.568 -18.999  0.00  0.00    -0.084 HD
ATOM      3  H   UNL     1      37.626 -19.758 -19.285  0.00  0.00    -0.084 HD
ENDROOT
BRANCH   1   4
ATOM      4  C   UNL     1      36.556 -19.207 -20.919  0.00  0.00    -0.076 C 
BRANCH   4   5
ATOM      5  C   UNL     1      35.109 -19.229 -21.441  0.00  0.00    +0.004 C 
BRANCH   5   7
ATOM      6  N   UNL     1      34.486 -17.122 -24.360  0.00  0.00    -0.357 N 
ATOM      7  C   UNL     1      34.838 -18.169 -22.436  0.00  0.00    -0.011 A 
ATOM      8  C   UNL     1      34.625 -16.791 -22.159  0.00  0.00    +0.013 A 
ATOM      9  C   UNL     1      34.748 -18.342 -23.798  0.00  0.00    +0.030 A 
ATOM     10  C   UNL     1      34.407 -16.155 -23.383  0.00  0.00    +0.056 A 
ATOM     11  C   UNL     1      34.596 -16.019 -20.980  0.00  0.00    +0.001 C 
ATOM     12  C   UNL     1      34.881 -19.552 -24.633  0.00  0.00    +0.049 C 
ATOM     13  C   UNL     1      34.160 -14.782 -23.488  0.00  0.00    +0.017 C 
ATOM     14  C   UNL     1      34.351 -14.644 -21.070  0.00  0.00    +0.000 C 
ATOM     15  C   UNL     1      34.137 -14.037 -22.305  0.00  0.00    +0.001 C 
ATOM     16  H   UNL     1      34.374 -16.958 -25.325  0.00  0.00    +0.166 HD
ENDBRANCH   5   7
ENDBRANCH   4   5
ENDBRANCH   1   4
BRANCH   1  17
ATOM     17  C   UNL     1      36.496 -21.348 -19.837  0.00  0.00    -0.054 C 
BRANCH  17  18
ATOM     18  C   UNL     1      35.527 -21.918 -18.834  0.00  0.00    -0.044 C 
ATOM     19  C   UNL     1      35.972 -22.234 -17.558  0.00  0.00    -0.006 C 
ATOM     20  C   UNL     1      34.204 -22.119 -19.200  0.00  0.00    -0.006 C 
ATOM     21  C   UNL     1      35.076 -22.762 -16.630  0.00  0.00    -0.000 C 
ATOM     22  C   UNL     1      33.306 -22.648 -18.272  0.00  0.00    -0.000 C 
ATOM     23  C   UNL     1      33.743 -22.970 -16.986  0.00  0.00    +0.000 C 
BRANCH  23  24
ATOM     24  C   UNL     1      32.808 -23.520 -16.018  0.00  0.00    +0.005 C 
ATOM     25  C   UNL     1      31.502 -23.185 -15.916  0.00  0.00    +0.060 C 
BRANCH  25  28
ATOM     26  O   UNL     1      29.411 -23.866 -14.988  0.00  0.00    -0.268 OA
ATOM     27  N   UNL     1      31.368 -24.345 -13.857  0.00  0.00    -0.193 N 
ATOM     28  C   UNL     1      30.633 -23.823 -14.890  0.00  0.00    +0.268 C 
ATOM     29  H   UNL     1      32.351 -24.283 -13.829  0.00  0.00    +0.183 HD
BRANCH  27  30
ATOM     30  O   UNL     1      30.631 -24.973 -12.843  0.00  0.00    -0.295 OA
ATOM     31  H   UNL     1      30.940 -25.886 -12.737  0.00  0.00    +0.241 HD
ENDBRANCH  27  30
ENDBRANCH  25  28
ENDBRANCH  23  24
ENDBRANCH  17  18
ENDBRANCH   1  17
TORSDOF 8
ENDMDL
MODEL 5
REMARK VINA RESULT:     -10.6      1.926      4.101
REMARK  Name = 6918837
REMARK  8 active torsions:
REMARK  status: ('A' for Active; 'I' for Inactive)
REMARK    1  A    between atoms: N_1  and  C_4
REMARK    2  A    between atoms: N_1  and  C_17
REMARK    3  A    between atoms: C_4  and  C_5
REMARK    4  A    between atoms: C_5  and  C_7
REMARK    5  A    between atoms: C_17  and  C_18
REMARK    6  A    between atoms: C_23  and  C_24
REMARK    7  A    between atoms: C_25  and  C_28
REMARK    8  A    between atoms: N_27  and  O_30
REMARK                            x       y       z     vdW  Elec       q    Type
REMARK                         _______ _______ _______ _____ _____    ______ ____
ROOT
ATOM      1  N   UNL     1      36.532 -22.009 -17.213  0.00  0.00    +0.387 N 
ATOM      2  H   UNL     1      37.410 -22.424 -17.526  0.00  0.00    -0.084 HD
ATOM      3  H   UNL     1      36.599 -20.992 -17.211  0.00  0.00    -0.084 HD
ENDROOT
BRANCH   1   4
ATOM      4  C   UNL     1      36.249 -22.460 -15.855  0.00  0.00    -0.076 C 
BRANCH   4   5
ATOM      5  C   UNL     1      35.410 -23.750 -15.841  0.00  0.00    +0.004 C 
BRANCH   5   7
ATOM      6  N   UNL     1      32.966 -23.680 -13.127  0.00  0.00    -0.357 N 
ATOM      7  C   UNL     1      34.238 -23.666 -14.945  0.00  0.00    -0.011 A 
ATOM      8  C   UNL     1      32.898 -23.392 -15.337  0.00  0.00    +0.013 A 
ATOM      9  C   UNL     1      34.248 -23.840 -13.580  0.00  0.00    +0.030 A 
ATOM     10  C   UNL     1      32.120 -23.407 -14.178  0.00  0.00    +0.056 A 
ATOM     11  C   UNL     1      32.270 -23.132 -16.572  0.00  0.00    +0.001 C 
ATOM     12  C   UNL     1      35.353 -24.140 -12.649  0.00  0.00    +0.049 C 
ATOM     13  C   UNL     1      30.740 -23.174 -14.190  0.00  0.00    +0.017 C 
ATOM     14  C   UNL     1      30.890 -22.897 -16.600  0.00  0.00    +0.000 C 
ATOM     15  C   UNL     1      30.140 -22.919 -15.427  0.00  0.00    +0.001 C 
ATOM     16  H   UNL     1      32.689 -23.753 -12.185  0.00  0.00    +0.166 HD
ENDBRANCH   5   7
ENDBRANCH   4   5
ENDBRANCH   1   4
BRANCH   1  17
ATOM     17  C   UNL     1      35.467 -22.405 -18.123  0.00  0.00    -0.054 C 
BRANCH  17  18
ATOM     18  C   UNL     1      35.268 -21.398 -19.225  0.00  0.00    -0.044 C 
ATOM     19  C   UNL     1      33.983 -21.116 -19.668  0.00  0.00    -0.006 C 
ATOM     20  C   UNL     1      36.371 -20.766 -19.781  0.00  0.00    -0.006 C 
ATOM     21  C   UNL     1      33.798 -20.184 -20.689  0.00  0.00    -0.000 C 
ATOM     22  C   UNL     1      36.186 -19.834 -20.802  0.00  0.00    -0.000 C 
ATOM     23  C   UNL     1      34.899 -19.543 -21.256  0.00  0.00    +0.000 C 
BRANCH  23  24
ATOM     24  C   UNL     1      34.707 -18.571 -22.321  0.00  0.00    +0.005 C 
ATOM     25  C   UNL     1      35.375 -17.402 -22.440  0.00  0.00    +0.060 C 
BRANCH  25  28
ATOM     26  O   UNL     1      34.996 -15.270 -23.446  0.00  0.00    -0.268 OA
ATOM     27  N   UNL     1      34.996 -17.167 -24.765  0.00  0.00    -0.193 N 
ATOM     28  C   UNL     1      35.102 -16.485 -23.581  0.00  0.00    +0.268 C 
ATOM     29  H   UNL     1      35.090 -18.146 -24.817  0.00  0.00    +0.183 HD
BRANCH  27  30
ATOM     30  O   UNL     1      34.744 -16.381 -25.898  0.00  0.00    -0.295 OA
ATOM     31  H   UNL     1      34.285 -15.569 -25.633  0.00  0.00    +0.241 HD
ENDBRANCH  27  30
ENDBRANCH  25  28
ENDBRANCH  23  24
ENDBRANCH  17  18
ENDBRANCH   1  17
TORSDOF 8
ENDMDL
MODEL 6
REMARK VINA RESULT:     -10.5      1.308      2.035
REMARK  Name = 6918837
REMARK  8 active torsions:
REMARK  status: ('A' for Active; 'I' for Inactive)
REMARK    1  A    between atoms: N_1  and  C_4
REMARK    2  A    between atoms: N_1  and  C_17
REMARK    3  A    between atoms: C_4  and  C_5
REMARK    4  A    between atoms: C_5  and  C_7
REMARK    5  A    between atoms: C_17  and  C_18
REMARK    6  A    between atoms: C_23  and  C_24
REMARK    7  A    between atoms: C_25  and  C_28
REMARK    8  A    between atoms: N_27  and  O_30
REMARK                            x       y       z     vdW  Elec       q    Type
REMARK                         _______ _______ _______ _____ _____    ______ ____
ROOT
ATOM      1  N   UNL     1      33.086 -22.925 -18.009  0.00  0.00    +0.387 N 
ATOM      2  H   UNL     1      32.584 -22.039 -17.952  0.00  0.00    -0.084 HD
ATOM      3  H   UNL     1      32.558 -23.597 -18.567  0.00  0.00    -0.084 HD
ENDROOT
BRANCH   1   4
ATOM      4  C   UNL     1      33.257 -23.466 -16.666  0.00  0.00    -0.076 C 
BRANCH   4   5
ATOM      5  C   UNL     1      34.592 -23.030 -16.037  0.00  0.00    +0.004 C 
BRANCH   5   7
ATOM      6  N   UNL     1      34.718 -24.751 -12.817  0.00  0.00    -0.357 N 
ATOM      7  C   UNL     1      34.912 -23.765 -14.796  0.00  0.00    -0.011 A 
ATOM      8  C   UNL     1      36.183 -24.293 -14.436  0.00  0.00    +0.013 A 
ATOM      9  C   UNL     1      34.032 -24.062 -13.781  0.00  0.00    +0.030 A 
ATOM     10  C   UNL     1      36.035 -24.906 -13.190  0.00  0.00    +0.056 A 
ATOM     11  C   UNL     1      37.451 -24.307 -15.052  0.00  0.00    +0.001 C 
ATOM     12  C   UNL     1      32.595 -23.764 -13.624  0.00  0.00    +0.049 C 
ATOM     13  C   UNL     1      37.094 -25.536 -12.527  0.00  0.00    +0.017 C 
ATOM     14  C   UNL     1      38.519 -24.933 -14.400  0.00  0.00    +0.000 C 
ATOM     15  C   UNL     1      38.342 -25.537 -13.157  0.00  0.00    +0.001 C 
ATOM     16  H   UNL     1      34.328 -25.086 -11.978  0.00  0.00    +0.166 HD
ENDBRANCH   5   7
ENDBRANCH   4   5
ENDBRANCH   1   4
BRANCH   1  17
ATOM     17  C   UNL     1      34.376 -22.702 -18.646  0.00  0.00    -0.054 C 
BRANCH  17  18
ATOM     18  C   UNL     1      34.355 -21.494 -19.546  0.00  0.00    -0.044 C 
ATOM     19  C   UNL     1      35.551 -20.986 -20.035  0.00  0.00    -0.006 C 
ATOM     20  C   UNL     1      33.142 -20.905 -19.873  0.00  0.00    -0.006 C 
ATOM     21  C   UNL     1      35.533 -19.868 -20.867  0.00  0.00    -0.000 C 
ATOM     22  C   UNL     1      33.123 -19.786 -20.706  0.00  0.00    -0.000 C 
ATOM     23  C   UNL     1      34.319 -19.267 -21.202  0.00  0.00    +0.000 C 
BRANCH  23  24
ATOM     24  C   UNL     1      34.300 -18.101 -22.071  0.00  0.00    +0.005 C 
ATOM     25  C   UNL     1      34.974 -17.985 -23.237  0.00  0.00    +0.060 C 
BRANCH  25  28
ATOM     26  O   UNL     1      35.280 -15.655 -23.659  0.00  0.00    -0.268 OA
ATOM     27  N   UNL     1      34.283 -16.981 -25.267  0.00  0.00    -0.193 N 
ATOM     28  C   UNL     1      34.872 -16.743 -24.052  0.00  0.00    +0.268 C 
ATOM     29  H   UNL     1      33.973 -17.878 -25.532  0.00  0.00    +0.183 HD
BRANCH  27  30
ATOM     30  O   UNL     1      34.150 -15.867 -26.106  0.00  0.00    -0.295 OA
ATOM     31  H   UNL     1      33.796 -15.119 -25.598  0.00  0.00    +0.241 HD
ENDBRANCH  27  30
ENDBRANCH  25  28
ENDBRANCH  23  24
ENDBRANCH  17  18
ENDBRANCH   1  17
TORSDOF 8
ENDMDL
MODEL 7
REMARK VINA RESULT:     -10.4      5.013     11.787
REMARK  Name = 6918837
REMARK  8 active torsions:
REMARK  status: ('A' for Active; 'I' for Inactive)
REMARK    1  A    between atoms: N_1  and  C_4
REMARK    2  A    between atoms: N_1  and  C_17
REMARK    3  A    between atoms: C_4  and  C_5
REMARK    4  A    between atoms: C_5  and  C_7
REMARK    5  A    between atoms: C_17  and  C_18
REMARK    6  A    between atoms: C_23  and  C_24
REMARK    7  A    between atoms: C_25  and  C_28
REMARK    8  A    between atoms: N_27  and  O_30
REMARK                            x       y       z     vdW  Elec       q    Type
REMARK                         _______ _______ _______ _____ _____    ______ ____
ROOT
ATOM      1  N   UNL     1      33.327 -15.626 -25.426  0.00  0.00    +0.387 N 
ATOM      2  H   UNL     1      33.156 -15.930 -26.385  0.00  0.00    -0.084 HD
ATOM      3  H   UNL     1      32.660 -16.062 -24.790  0.00  0.00    -0.084 HD
ENDROOT
BRANCH   1   4
ATOM      4  C   UNL     1      33.169 -14.178 -25.350  0.00  0.00    -0.076 C 
BRANCH   4   5
ATOM      5  C   UNL     1      33.989 -13.571 -24.198  0.00  0.00    +0.004 C 
BRANCH   5   7
ATOM      6  N   UNL     1      33.361  -9.987 -23.873  0.00  0.00    -0.357 N 
ATOM      7  C   UNL     1      33.570 -12.196 -23.854  0.00  0.00    -0.011 A 
ATOM      8  C   UNL     1      32.681 -11.824 -22.808  0.00  0.00    +0.013 A 
ATOM      9  C   UNL     1      33.972 -11.044 -24.491  0.00  0.00    +0.030 A 
ATOM     10  C   UNL     1      32.567 -10.433 -22.841  0.00  0.00    +0.056 A 
ATOM     11  C   UNL     1      31.959 -12.541 -21.832  0.00  0.00    +0.001 C 
ATOM     12  C   UNL     1      34.880 -10.836 -25.636  0.00  0.00    +0.049 C 
ATOM     13  C   UNL     1      31.764  -9.719 -21.944  0.00  0.00    +0.017 C 
ATOM     14  C   UNL     1      31.153 -11.840 -20.928  0.00  0.00    +0.000 C 
ATOM     15  C   UNL     1      31.059 -10.451 -20.985  0.00  0.00    +0.001 C 
ATOM     16  H   UNL     1      33.474  -9.043 -24.129  0.00  0.00    +0.166 HD
ENDBRANCH   5   7
ENDBRANCH   4   5
ENDBRANCH   1   4
BRANCH   1  17
ATOM     17  C   UNL     1      34.673 -16.022 -25.035  0.00  0.00    -0.054 C 
BRANCH  17  18
ATOM     18  C   UNL     1      34.656 -17.050 -23.934  0.00  0.00    -0.044 C 
ATOM     19  C   UNL     1      34.604 -16.632 -22.611  0.00  0.00    -0.006 C 
ATOM     20  C   UNL     1      34.695 -18.398 -24.257  0.00  0.00    -0.006 C 
ATOM     21  C   UNL     1      34.589 -17.583 -21.591  0.00  0.00    -0.000 C 
ATOM     22  C   UNL     1      34.680 -19.350 -23.237  0.00  0.00    -0.000 C 
ATOM     23  C   UNL     1      34.628 -18.942 -21.904  0.00  0.00    +0.000 C 
BRANCH  23  24
ATOM     24  C   UNL     1      34.613 -19.934 -20.840  0.00  0.00    +0.005 C 
ATOM     25  C   UNL     1      33.514 -20.584 -20.395  0.00  0.00    +0.060 C 
BRANCH  25  28
ATOM     26  O   UNL     1      32.640 -22.157 -18.826  0.00  0.00    -0.268 OA
ATOM     27  N   UNL     1      34.920 -21.794 -18.925  0.00  0.00    -0.193 N 
ATOM     28  C   UNL     1      33.618 -21.591 -19.304  0.00  0.00    +0.268 C 
ATOM     29  H   UNL     1      35.670 -21.311 -19.343  0.00  0.00    +0.183 HD
BRANCH  27  30
ATOM     30  O   UNL     1      35.116 -22.733 -17.903  0.00  0.00    -0.295 OA
ATOM     31  H   UNL     1      35.570 -22.310 -17.157  0.00  0.00    +0.241 HD
ENDBRANCH  27  30
ENDBRANCH  25  28
ENDBRANCH  23  24
ENDBRANCH  17  18
ENDBRANCH   1  17
TORSDOF 8
ENDMDL
MODEL 8
REMARK VINA RESULT:     -10.4      5.849     12.637
REMARK  Name = 6918837
REMARK  8 active torsions:
REMARK  status: ('A' for Active; 'I' for Inactive)
REMARK    1  A    between atoms: N_1  and  C_4
REMARK    2  A    between atoms: N_1  and  C_17
REMARK    3  A    between atoms: C_4  and  C_5
REMARK    4  A    between atoms: C_5  and  C_7
REMARK    5  A    between atoms: C_17  and  C_18
REMARK    6  A    between atoms: C_23  and  C_24
REMARK    7  A    between atoms: C_25  and  C_28
REMARK    8  A    between atoms: N_27  and  O_30
REMARK                            x       y       z     vdW  Elec       q    Type
REMARK                         _______ _______ _______ _____ _____    ______ ____
ROOT
ATOM      1  N   UNL     1      34.498 -13.900 -23.150  0.00  0.00    +0.387 N 
ATOM      2  H   UNL     1      34.547 -14.161 -22.165  0.00  0.00    -0.084 HD
ATOM      3  H   UNL     1      35.351 -13.416 -23.433  0.00  0.00    -0.084 HD
ENDROOT
BRANCH   1   4
ATOM      4  C   UNL     1      33.365 -13.005 -23.352  0.00  0.00    -0.076 C 
BRANCH   4   5
ATOM      5  C   UNL     1      33.536 -12.136 -24.610  0.00  0.00    +0.004 C 
BRANCH   5   7
ATOM      6  N   UNL     1      34.861  -8.742 -24.336  0.00  0.00    -0.357 N 
ATOM      7  C   UNL     1      33.881 -10.732 -24.299  0.00  0.00    -0.011 A 
ATOM      8  C   UNL     1      33.258  -9.912 -23.318  0.00  0.00    +0.013 A 
ATOM      9  C   UNL     1      34.863  -9.986 -24.908  0.00  0.00    +0.030 A 
ATOM     10  C   UNL     1      33.891  -8.668 -23.361  0.00  0.00    +0.056 A 
ATOM     11  C   UNL     1      32.212 -10.108 -22.394  0.00  0.00    +0.001 C 
ATOM     12  C   UNL     1      35.811 -10.326 -25.986  0.00  0.00    +0.049 C 
ATOM     13  C   UNL     1      33.531  -7.606 -22.524  0.00  0.00    +0.017 C 
ATOM     14  C   UNL     1      31.840  -9.055 -21.550  0.00  0.00    +0.000 C 
ATOM     15  C   UNL     1      32.491  -7.825 -21.615  0.00  0.00    +0.001 C 
ATOM     16  H   UNL     1      35.467  -8.006 -24.584  0.00  0.00    +0.166 HD
ENDBRANCH   5   7
ENDBRANCH   4   5
ENDBRANCH   1   4
BRANCH   1  17
ATOM     17  C   UNL     1      34.358 -15.105 -23.955  0.00  0.00    -0.054 C 
BRANCH  17  18
ATOM     18  C   UNL     1      34.582 -16.352 -23.141  0.00  0.00    -0.044 C 
ATOM     19  C   UNL     1      34.635 -16.264 -21.757  0.00  0.00    -0.006 C 
ATOM     20  C   UNL     1      34.732 -17.572 -23.786  0.00  0.00    -0.006 C 
ATOM     21  C   UNL     1      34.843 -17.418 -21.003  0.00  0.00    -0.000 C 
ATOM     22  C   UNL     1      34.940 -18.727 -23.032  0.00  0.00    -0.000 C 
ATOM     23  C   UNL     1      34.996 -18.649 -21.640  0.00  0.00    +0.000 C 
BRANCH  23  24
ATOM     24  C   UNL     1      35.212 -19.854 -20.853  0.00  0.00    +0.005 C 
ATOM     25  C   UNL     1      34.249 -20.544 -20.201  0.00  0.00    +0.060 C 
BRANCH  25  28
ATOM     26  O   UNL     1      35.670 -21.937 -18.883  0.00  0.00    -0.268 OA
ATOM     27  N   UNL     1      33.544 -22.664 -19.420  0.00  0.00    -0.193 N 
ATOM     28  C   UNL     1      34.586 -21.773 -19.433  0.00  0.00    +0.268 C 
ATOM     29  H   UNL     1      32.692 -22.481 -19.879  0.00  0.00    +0.183 HD
BRANCH  27  30
ATOM     30  O   UNL     1      33.769 -23.852 -18.711  0.00  0.00    -0.295 OA
ATOM     31  H   UNL     1      34.709 -24.090 -18.768  0.00  0.00    +0.241 HD
ENDBRANCH  27  30
ENDBRANCH  25  28
ENDBRANCH  23  24
ENDBRANCH  17  18
ENDBRANCH   1  17
TORSDOF 8
ENDMDL
MODEL 9
REMARK VINA RESULT:     -10.4      6.306     12.494
REMARK  Name = 6918837
REMARK  8 active torsions:
REMARK  status: ('A' for Active; 'I' for Inactive)
REMARK    1  A    between atoms: N_1  and  C_4
REMARK    2  A    between atoms: N_1  and  C_17
REMARK    3  A    between atoms: C_4  and  C_5
REMARK    4  A    between atoms: C_5  and  C_7
REMARK    5  A    between atoms: C_17  and  C_18
REMARK    6  A    between atoms: C_23  and  C_24
REMARK    7  A    between atoms: C_25  and  C_28
REMARK    8  A    between atoms: N_27  and  O_30
REMARK                            x       y       z     vdW  Elec       q    Type
REMARK                         _______ _______ _______ _____ _____    ______ ____
ROOT
ATOM      1  N   UNL     1      34.295 -12.151 -23.646  0.00  0.00    +0.387 N 
ATOM      2  H   UNL     1      33.900 -11.903 -22.739  0.00  0.00    -0.084 HD
ATOM      3  H   UNL     1      35.271 -12.428 -23.547  0.00  0.00    -0.084 HD
ENDROOT
BRANCH   1   4
ATOM      4  C   UNL     1      34.225 -10.994 -24.531  0.00  0.00    -0.076 C 
BRANCH   4   5
ATOM      5  C   UNL     1      32.911 -10.213 -24.351  0.00  0.00    +0.004 C 
BRANCH   5   7
ATOM      6  N   UNL     1      33.060  -8.006 -21.444  0.00  0.00    -0.357 N 
ATOM      7  C   UNL     1      32.824  -9.521 -23.049  0.00  0.00    -0.011 A 
ATOM      8  C   UNL     1      32.171 -10.004 -21.881  0.00  0.00    +0.013 A 
ATOM      9  C   UNL     1      33.362  -8.290 -22.748  0.00  0.00    +0.030 A 
ATOM     10  C   UNL     1      32.334  -9.036 -20.889  0.00  0.00    +0.056 A 
ATOM     11  C   UNL     1      31.454 -11.178 -21.572  0.00  0.00    +0.001 C 
ATOM     12  C   UNL     1      34.136  -7.343 -23.574  0.00  0.00    +0.049 C 
ATOM     13  C   UNL     1      31.814  -9.182 -19.597  0.00  0.00    +0.017 C 
ATOM     14  C   UNL     1      30.928 -11.337 -20.285  0.00  0.00    +0.000 C 
ATOM     15  C   UNL     1      31.107 -10.354 -19.315  0.00  0.00    +0.001 C 
ATOM     16  H   UNL     1      33.326  -7.185 -20.970  0.00  0.00    +0.166 HD
ENDBRANCH   5   7
ENDBRANCH   4   5
ENDBRANCH   1   4
BRANCH   1  17
ATOM     17  C   UNL     1      33.547 -13.272 -24.199  0.00  0.00    -0.054 C 
BRANCH  17  18
ATOM     18  C   UNL     1      33.798 -14.545 -23.435  0.00  0.00    -0.044 C 
ATOM     19  C   UNL     1      34.494 -15.582 -24.043  0.00  0.00    -0.006 C 
ATOM     20  C   UNL     1      33.331 -14.665 -22.134  0.00  0.00    -0.006 C 
ATOM     21  C   UNL     1      34.725 -16.761 -23.336  0.00  0.00    -0.000 C 
ATOM     22  C   UNL     1      33.564 -15.844 -21.426  0.00  0.00    -0.000 C 
ATOM     23  C   UNL     1      34.260 -16.892 -22.028  0.00  0.00    +0.000 C 
BRANCH  23  24
ATOM     24  C   UNL     1      34.503 -18.122 -21.290  0.00  0.00    +0.005 C 
ATOM     25  C   UNL     1      33.581 -19.082 -21.048  0.00  0.00    +0.060 C 
BRANCH  25  28
ATOM     26  O   UNL     1      35.076 -20.512 -19.857  0.00  0.00    -0.268 OA
ATOM     27  N   UNL     1      32.872 -21.148 -20.135  0.00  0.00    -0.193 N 
ATOM     28  C   UNL     1      33.946 -20.308 -20.287  0.00  0.00    +0.268 C 
ATOM     29  H   UNL     1      31.983 -20.934 -20.502  0.00  0.00    +0.183 HD
BRANCH  27  30
ATOM     30  O   UNL     1      33.121 -22.329 -19.423  0.00  0.00    -0.295 OA
ATOM     31  H   UNL     1      32.314 -22.605 -18.960  0.00  0.00    +0.241 HD
ENDBRANCH  27  30
ENDBRANCH  25  28
ENDBRANCH  23  24
ENDBRANCH  17  18
ENDBRANCH   1  17
TORSDOF 8
ENDMDL
