MODEL 1
REMARK VINA RESULT:      -6.0      0.000      0.000
REMARK  Name = 17753927
REMARK  7 active torsions:
REMARK  status: ('A' for Active; 'I' for Inactive)
REMARK    1  A    between atoms: CA_1  and  N_3
REMARK    2  A    between atoms: CA_1  and  C_9
REMARK    3  A    between atoms: CA_1  and  CB_12
REMARK    4  A    between atoms: C_4  and  O_6
REMARK    5  A    between atoms: C_9  and  O_10
REMARK    6  A    between atoms: CB_12  and  CG_13
REMARK    7  A    between atoms: CG_13  and  SD_14
REMARK                            x       y       z     vdW  Elec       q    Type
REMARK                         _______ _______ _______ _____ _____    ______ ____
ROOT
ATOM      1  CA  UNL     1      37.908 -26.228 -14.164  0.00  0.00    +0.175 C 
ENDROOT
BRANCH   1   3
ATOM      2  O   UNL     1      40.715 -26.878 -14.648  0.00  0.00    -0.227 OA
ATOM      3  N   UNL     1      39.000 -25.320 -14.406  0.00  0.00    -0.263 N 
ATOM      4  C   ACE A   0      40.299 -25.727 -14.626  0.00  0.00    +0.399 C 
ATOM      5  H   UNL     1      38.808 -24.355 -14.417  0.00  0.00    +0.153 HD
BRANCH   4   6
ATOM      6  O   UNL     1      41.111 -24.654 -14.825  0.00  0.00    -0.466 OA
ATOM      7  H   UNL     1      41.136 -23.962 -14.195  0.00  0.00    +0.297 HD
ENDBRANCH   4   6
ENDBRANCH   1   3
BRANCH   1   9
ATOM      8  OXT UNL     1      36.017 -25.357 -15.399  0.00  0.00    -0.248 OA
ATOM      9  C   UNL     1      36.886 -26.216 -15.290  0.00  0.00    +0.332 C 
BRANCH   9  10
ATOM     10  O   UNL     1      36.973 -27.268 -16.139  0.00  0.00    -0.479 OA
ATOM     11  H   UNL     1      36.352 -27.362 -16.835  0.00  0.00    +0.295 HD
ENDBRANCH   9  10
ENDBRANCH   1   9
BRANCH   1  12
ATOM     12  CB  UNL     1      37.262 -25.982 -12.794  0.00  0.00    +0.043 C 
BRANCH  12  13
ATOM     13  CG  UNL     1      37.861 -24.795 -12.036  0.00  0.00    +0.060 C 
BRANCH  13  14
ATOM     14  SD  UNL     1      36.687 -23.408 -12.000  0.00  0.00    -0.139 S 
ATOM     15  CE  UNL     1      35.161 -24.355 -12.199  0.00  0.00    +0.069 C 
ENDBRANCH  13  14
ENDBRANCH  12  13
ENDBRANCH   1  12
TORSDOF 7
ENDMDL
MODEL 2
REMARK VINA RESULT:      -6.0      2.326      2.863
REMARK  Name = 17753927
REMARK  7 active torsions:
REMARK  status: ('A' for Active; 'I' for Inactive)
REMARK    1  A    between atoms: CA_1  and  N_3
REMARK    2  A    between atoms: CA_1  and  C_9
REMARK    3  A    between atoms: CA_1  and  CB_12
REMARK    4  A    between atoms: C_4  and  O_6
REMARK    5  A    between atoms: C_9  and  O_10
REMARK    6  A    between atoms: CB_12  and  CG_13
REMARK    7  A    between atoms: CG_13  and  SD_14
REMARK                            x       y       z     vdW  Elec       q    Type
REMARK                         _______ _______ _______ _____ _____    ______ ____
ROOT
ATOM      1  CA  UNL     1      38.314 -25.038 -13.474  0.00  0.00    +0.175 C 
ENDROOT
BRANCH   1   3
ATOM      2  O   UNL     1      40.957 -24.763 -14.687  0.00  0.00    -0.227 OA
ATOM      3  N   UNL     1      39.331 -26.048 -13.623  0.00  0.00    -0.263 N 
ATOM      4  C   ACE A   0      40.555 -25.818 -14.213  0.00  0.00    +0.399 C 
ATOM      5  H   UNL     1      39.142 -26.951 -13.282  0.00  0.00    +0.153 HD
BRANCH   4   6
ATOM      6  O   UNL     1      41.309 -26.951 -14.212  0.00  0.00    -0.466 OA
ATOM      7  H   UNL     1      40.894 -27.789 -14.166  0.00  0.00    +0.297 HD
ENDBRANCH   4   6
ENDBRANCH   1   3
BRANCH   1   9
ATOM      8  OXT UNL     1      37.628 -24.398 -11.242  0.00  0.00    -0.248 OA
ATOM      9  C   UNL     1      37.536 -25.189 -12.176  0.00  0.00    +0.332 C 
BRANCH   9  10
ATOM     10  O   UNL     1      36.769 -26.303 -12.106  0.00  0.00    -0.479 OA
ATOM     11  H   UNL     1      35.849 -26.230 -11.941  0.00  0.00    +0.295 HD
ENDBRANCH   9  10
ENDBRANCH   1   9
BRANCH   1  12
ATOM     12  CB  UNL     1      37.390 -24.981 -14.698  0.00  0.00    +0.043 C 
BRANCH  12  13
ATOM     13  CG  UNL     1      37.263 -23.582 -15.307  0.00  0.00    +0.060 C 
BRANCH  13  14
ATOM     14  SD  UNL     1      35.554 -22.982 -15.165  0.00  0.00    -0.139 S 
ATOM     15  CE  UNL     1      34.761 -24.552 -14.750  0.00  0.00    +0.069 C 
ENDBRANCH  13  14
ENDBRANCH  12  13
ENDBRANCH   1  12
TORSDOF 7
ENDMDL
MODEL 3
REMARK VINA RESULT:      -5.7      1.083      3.336
REMARK  Name = 17753927
REMARK  7 active torsions:
REMARK  status: ('A' for Active; 'I' for Inactive)
REMARK    1  A    between atoms: CA_1  and  N_3
REMARK    2  A    between atoms: CA_1  and  C_9
REMARK    3  A    between atoms: CA_1  and  CB_12
REMARK    4  A    between atoms: C_4  and  O_6
REMARK    5  A    between atoms: C_9  and  O_10
REMARK    6  A    between atoms: CB_12  and  CG_13
REMARK    7  A    between atoms: CG_13  and  SD_14
REMARK                            x       y       z     vdW  Elec       q    Type
REMARK                         _______ _______ _______ _____ _____    ______ ____
ROOT
ATOM      1  CA  UNL     1      38.967 -25.350 -14.317  0.00  0.00    +0.175 C 
ENDROOT
BRANCH   1   3
ATOM      2  O   UNL     1      36.489 -24.521 -15.621  0.00  0.00    -0.227 OA
ATOM      3  N   UNL     1      37.814 -26.156 -14.625  0.00  0.00    -0.263 N 
ATOM      4  C   ACE A   0      36.685 -25.670 -15.247  0.00  0.00    +0.399 C 
ATOM      5  H   UNL     1      37.835 -27.109 -14.378  0.00  0.00    +0.153 HD
BRANCH   4   6
ATOM      6  O   UNL     1      35.763 -26.657 -15.409  0.00  0.00    -0.466 OA
ATOM      7  H   UNL     1      35.981 -27.426 -15.897  0.00  0.00    +0.297 HD
ENDBRANCH   4   6
ENDBRANCH   1   3
BRANCH   1   9
ATOM      8  OXT UNL     1      41.124 -26.431 -14.114  0.00  0.00    -0.248 OA
ATOM      9  C   UNL     1      40.257 -25.960 -14.844  0.00  0.00    +0.332 C 
BRANCH   9  10
ATOM     10  O   UNL     1      40.403 -25.892 -16.189  0.00  0.00    -0.479 OA
ATOM     11  H   UNL     1      41.260 -25.878 -16.568  0.00  0.00    +0.295 HD
ENDBRANCH   9  10
ENDBRANCH   1   9
BRANCH   1  12
ATOM     12  CB  UNL     1      39.050 -25.029 -12.819  0.00  0.00    +0.043 C 
BRANCH  12  13
ATOM     13  CG  UNL     1      37.693 -25.060 -12.109  0.00  0.00    +0.060 C 
BRANCH  13  14
ATOM     14  SD  UNL     1      36.941 -23.406 -12.108  0.00  0.00    -0.139 S 
ATOM     15  CE  UNL     1      35.218 -23.903 -12.327  0.00  0.00    +0.069 C 
ENDBRANCH  13  14
ENDBRANCH  12  13
ENDBRANCH   1  12
TORSDOF 7
ENDMDL
MODEL 4
REMARK VINA RESULT:      -5.7      2.459      3.618
REMARK  Name = 17753927
REMARK  7 active torsions:
REMARK  status: ('A' for Active; 'I' for Inactive)
REMARK    1  A    between atoms: CA_1  and  N_3
REMARK    2  A    between atoms: CA_1  and  C_9
REMARK    3  A    between atoms: CA_1  and  CB_12
REMARK    4  A    between atoms: C_4  and  O_6
REMARK    5  A    between atoms: C_9  and  O_10
REMARK    6  A    between atoms: CB_12  and  CG_13
REMARK    7  A    between atoms: CG_13  and  SD_14
REMARK                            x       y       z     vdW  Elec       q    Type
REMARK                         _______ _______ _______ _____ _____    ______ ____
ROOT
ATOM      1  CA  UNL     1      38.687 -25.467 -14.282  0.00  0.00    +0.175 C 
ENDROOT
BRANCH   1   3
ATOM      2  O   UNL     1      36.949 -26.281 -12.080  0.00  0.00    -0.227 OA
ATOM      3  N   UNL     1      38.494 -24.809 -13.014  0.00  0.00    -0.263 N 
ATOM      4  C   ACE A   0      37.647 -25.275 -12.033  0.00  0.00    +0.399 C 
ATOM      5  H   UNL     1      38.998 -23.982 -12.839  0.00  0.00    +0.153 HD
BRANCH   4   6
ATOM      6  O   UNL     1      37.670 -24.454 -10.948  0.00  0.00    -0.466 OA
ATOM      7  H   UNL     1      38.314 -24.579 -10.280  0.00  0.00    +0.297 HD
ENDBRANCH   4   6
ENDBRANCH   1   3
BRANCH   1   9
ATOM      8  OXT UNL     1      40.969 -24.658 -14.222  0.00  0.00    -0.248 OA
ATOM      9  C   UNL     1      40.106 -25.305 -14.807  0.00  0.00    +0.332 C 
BRANCH   9  10
ATOM     10  O   UNL     1      40.330 -25.889 -16.009  0.00  0.00    -0.479 OA
ATOM     11  H   UNL     1      41.180 -26.226 -16.215  0.00  0.00    +0.295 HD
ENDBRANCH   9  10
ENDBRANCH   1   9
BRANCH   1  12
ATOM     12  CB  UNL     1      37.637 -25.029 -15.311  0.00  0.00    +0.043 C 
BRANCH  12  13
ATOM     13  CG  UNL     1      37.436 -23.512 -15.377  0.00  0.00    +0.060 C 
BRANCH  13  14
ATOM     14  SD  UNL     1      35.666 -23.111 -15.465  0.00  0.00    -0.139 S 
ATOM     15  CE  UNL     1      35.014 -24.662 -14.807  0.00  0.00    +0.069 C 
ENDBRANCH  13  14
ENDBRANCH  12  13
ENDBRANCH   1  12
TORSDOF 7
ENDMDL
MODEL 5
REMARK VINA RESULT:      -5.5      2.731      3.366
REMARK  Name = 17753927
REMARK  7 active torsions:
REMARK  status: ('A' for Active; 'I' for Inactive)
REMARK    1  A    between atoms: CA_1  and  N_3
REMARK    2  A    between atoms: CA_1  and  C_9
REMARK    3  A    between atoms: CA_1  and  CB_12
REMARK    4  A    between atoms: C_4  and  O_6
REMARK    5  A    between atoms: C_9  and  O_10
REMARK    6  A    between atoms: CB_12  and  CG_13
REMARK    7  A    between atoms: CG_13  and  SD_14
REMARK                            x       y       z     vdW  Elec       q    Type
REMARK                         _______ _______ _______ _____ _____    ______ ____
ROOT
ATOM      1  CA  UNL     1      37.051 -25.263 -14.048  0.00  0.00    +0.175 C 
ENDROOT
BRANCH   1   3
ATOM      2  O   UNL     1      37.286 -24.695 -11.192  0.00  0.00    -0.227 OA
ATOM      3  N   UNL     1      37.964 -24.358 -13.396  0.00  0.00    -0.263 N 
ATOM      4  C   ACE A   0      37.998 -24.159 -12.033  0.00  0.00    +0.399 C 
ATOM      5  H   UNL     1      38.600 -23.857 -13.955  0.00  0.00    +0.153 HD
BRANCH   4   6
ATOM      6  O   UNL     1      38.958 -23.253 -11.704  0.00  0.00    -0.466 OA
ATOM      7  H   UNL     1      38.715 -22.412 -11.372  0.00  0.00    +0.297 HD
ENDBRANCH   4   6
ENDBRANCH   1   3
BRANCH   1   9
ATOM      8  OXT UNL     1      38.894 -26.761 -14.520  0.00  0.00    -0.248 OA
ATOM      9  C   UNL     1      37.774 -26.358 -14.818  0.00  0.00    +0.332 C 
BRANCH   9  10
ATOM     10  O   UNL     1      37.105 -26.819 -15.902  0.00  0.00    -0.479 OA
ATOM     11  H   UNL     1      36.220 -27.114 -15.816  0.00  0.00    +0.295 HD
ENDBRANCH   9  10
ENDBRANCH   1   9
BRANCH   1  12
ATOM     12  CB  UNL     1      36.040 -24.512 -14.924  0.00  0.00    +0.043 C 
BRANCH  12  13
ATOM     13  CG  UNL     1      34.636 -24.441 -14.319  0.00  0.00    +0.060 C 
BRANCH  13  14
ATOM     14  SD  UNL     1      33.536 -23.460 -15.381  0.00  0.00    -0.139 S 
ATOM     15  CE  UNL     1      32.151 -23.287 -14.234  0.00  0.00    +0.069 C 
ENDBRANCH  13  14
ENDBRANCH  12  13
ENDBRANCH   1  12
TORSDOF 7
ENDMDL
MODEL 6
REMARK VINA RESULT:      -5.4      3.022      4.373
REMARK  Name = 17753927
REMARK  7 active torsions:
REMARK  status: ('A' for Active; 'I' for Inactive)
REMARK    1  A    between atoms: CA_1  and  N_3
REMARK    2  A    between atoms: CA_1  and  C_9
REMARK    3  A    between atoms: CA_1  and  CB_12
REMARK    4  A    between atoms: C_4  and  O_6
REMARK    5  A    between atoms: C_9  and  O_10
REMARK    6  A    between atoms: CB_12  and  CG_13
REMARK    7  A    between atoms: CG_13  and  SD_14
REMARK                            x       y       z     vdW  Elec       q    Type
REMARK                         _______ _______ _______ _____ _____    ______ ____
ROOT
ATOM      1  CA  UNL     1      36.323 -25.235 -14.193  0.00  0.00    +0.175 C 
ENDROOT
BRANCH   1   3
ATOM      2  O   UNL     1      34.491 -23.966 -12.304  0.00  0.00    -0.227 OA
ATOM      3  N   UNL     1      36.267 -25.402 -12.763  0.00  0.00    -0.263 N 
ATOM      4  C   ACE A   0      35.360 -24.755 -11.952  0.00  0.00    +0.399 C 
ATOM      5  H   UNL     1      36.912 -26.014 -12.342  0.00  0.00    +0.153 HD
BRANCH   4   6
ATOM      6  O   UNL     1      35.542 -25.106 -10.651  0.00  0.00    -0.466 OA
ATOM      7  H   UNL     1      34.802 -25.301 -10.110  0.00  0.00    +0.297 HD
ENDBRANCH   4   6
ENDBRANCH   1   3
BRANCH   1   9
ATOM      8  OXT UNL     1      38.007 -26.938 -14.548  0.00  0.00    -0.248 OA
ATOM      9  C   UNL     1      36.941 -26.436 -14.892  0.00  0.00    +0.332 C 
BRANCH   9  10
ATOM     10  O   UNL     1      36.247 -26.880 -15.967  0.00  0.00    -0.479 OA
ATOM     11  H   UNL     1      36.328 -26.440 -16.791  0.00  0.00    +0.295 HD
ENDBRANCH   9  10
ENDBRANCH   1   9
BRANCH   1  12
ATOM     12  CB  UNL     1      37.014 -23.921 -14.582  0.00  0.00    +0.043 C 
BRANCH  12  13
ATOM     13  CG  UNL     1      36.360 -23.213 -15.772  0.00  0.00    +0.060 C 
BRANCH  13  14
ATOM     14  SD  UNL     1      34.550 -23.313 -15.652  0.00  0.00    -0.139 S 
ATOM     15  CE  UNL     1      34.157 -23.010 -17.390  0.00  0.00    +0.069 C 
ENDBRANCH  13  14
ENDBRANCH  12  13
ENDBRANCH   1  12
TORSDOF 7
ENDMDL
MODEL 7
REMARK VINA RESULT:      -5.4      7.118      9.291
REMARK  Name = 17753927
REMARK  7 active torsions:
REMARK  status: ('A' for Active; 'I' for Inactive)
REMARK    1  A    between atoms: CA_1  and  N_3
REMARK    2  A    between atoms: CA_1  and  C_9
REMARK    3  A    between atoms: CA_1  and  CB_12
REMARK    4  A    between atoms: C_4  and  O_6
REMARK    5  A    between atoms: C_9  and  O_10
REMARK    6  A    between atoms: CB_12  and  CG_13
REMARK    7  A    between atoms: CG_13  and  SD_14
REMARK                            x       y       z     vdW  Elec       q    Type
REMARK                         _______ _______ _______ _____ _____    ______ ____
ROOT
ATOM      1  CA  UNL     1      30.015 -23.804 -15.777  0.00  0.00    +0.175 C 
ENDROOT
BRANCH   1   3
ATOM      2  O   UNL     1      27.799 -23.744 -17.680  0.00  0.00    -0.227 OA
ATOM      3  N   UNL     1      29.090 -22.728 -16.028  0.00  0.00    -0.263 N 
ATOM      4  C   ACE A   0      28.070 -22.796 -16.952  0.00  0.00    +0.399 C 
ATOM      5  H   UNL     1      29.191 -21.899 -15.508  0.00  0.00    +0.153 HD
BRANCH   4   6
ATOM      6  O   UNL     1      27.360 -21.637 -16.970  0.00  0.00    -0.466 OA
ATOM      7  H   UNL     1      26.487 -21.616 -16.631  0.00  0.00    +0.297 HD
ENDBRANCH   4   6
ENDBRANCH   1   3
BRANCH   1   9
ATOM      8  OXT UNL     1      28.392 -25.225 -14.676  0.00  0.00    -0.248 OA
ATOM      9  C   UNL     1      29.523 -24.748 -14.690  0.00  0.00    +0.332 C 
BRANCH   9  10
ATOM     10  O   UNL     1      30.417 -24.980 -13.700  0.00  0.00    -0.479 OA
ATOM     11  H   UNL     1      30.132 -25.350 -12.888  0.00  0.00    +0.295 HD
ENDBRANCH   9  10
ENDBRANCH   1   9
BRANCH   1  12
ATOM     12  CB  UNL     1      31.428 -23.280 -15.490  0.00  0.00    +0.043 C 
BRANCH  12  13
ATOM     13  CG  UNL     1      32.333 -23.247 -16.725  0.00  0.00    +0.060 C 
BRANCH  13  14
ATOM     14  SD  UNL     1      34.075 -23.414 -16.237  0.00  0.00    -0.139 S 
ATOM     15  CE  UNL     1      33.819 -23.895 -14.514  0.00  0.00    +0.069 C 
ENDBRANCH  13  14
ENDBRANCH  12  13
ENDBRANCH   1  12
TORSDOF 7
ENDMDL
MODEL 8
REMARK VINA RESULT:      -5.3     11.387     12.401
REMARK  Name = 17753927
REMARK  7 active torsions:
REMARK  status: ('A' for Active; 'I' for Inactive)
REMARK    1  A    between atoms: CA_1  and  N_3
REMARK    2  A    between atoms: CA_1  and  C_9
REMARK    3  A    between atoms: CA_1  and  CB_12
REMARK    4  A    between atoms: C_4  and  O_6
REMARK    5  A    between atoms: C_9  and  O_10
REMARK    6  A    between atoms: CB_12  and  CG_13
REMARK    7  A    between atoms: CG_13  and  SD_14
REMARK                            x       y       z     vdW  Elec       q    Type
REMARK                         _______ _______ _______ _____ _____    ______ ____
ROOT
ATOM      1  CA  UNL     1      34.964 -17.264 -22.293  0.00  0.00    +0.175 C 
ENDROOT
BRANCH   1   3
ATOM      2  O   UNL     1      34.159 -18.640 -24.740  0.00  0.00    -0.227 OA
ATOM      3  N   UNL     1      35.126 -16.821 -23.655  0.00  0.00    -0.263 N 
ATOM      4  C   ACE A   0      34.709 -17.546 -24.749  0.00  0.00    +0.399 C 
ATOM      5  H   UNL     1      35.556 -15.949 -23.811  0.00  0.00    +0.153 HD
BRANCH   4   6
ATOM      6  O   UNL     1      34.991 -16.881 -25.902  0.00  0.00    -0.466 OA
ATOM      7  H   UNL     1      35.795 -17.045 -26.353  0.00  0.00    +0.297 HD
ENDBRANCH   4   6
ENDBRANCH   1   3
BRANCH   1   9
ATOM      8  OXT UNL     1      35.057 -16.224 -20.109  0.00  0.00    -0.248 OA
ATOM      9  C   UNL     1      34.868 -16.103 -21.315  0.00  0.00    +0.332 C 
BRANCH   9  10
ATOM     10  O   UNL     1      34.499 -14.925 -21.874  0.00  0.00    -0.479 OA
ATOM     11  H   UNL     1      35.109 -14.216 -21.919  0.00  0.00    +0.295 HD
ENDBRANCH   9  10
ENDBRANCH   1   9
BRANCH   1  12
ATOM     12  CB  UNL     1      36.052 -18.268 -21.892  0.00  0.00    +0.043 C 
BRANCH  12  13
ATOM     13  CG  UNL     1      35.530 -19.437 -21.052  0.00  0.00    +0.060 C 
BRANCH  13  14
ATOM     14  SD  UNL     1      33.727 -19.587 -21.227  0.00  0.00    -0.139 S 
ATOM     15  CE  UNL     1      33.445 -20.838 -19.955  0.00  0.00    +0.069 C 
ENDBRANCH  13  14
ENDBRANCH  12  13
ENDBRANCH   1  12
TORSDOF 7
ENDMDL
MODEL 9
REMARK VINA RESULT:      -5.2     12.975     13.720
REMARK  Name = 17753927
REMARK  7 active torsions:
REMARK  status: ('A' for Active; 'I' for Inactive)
REMARK    1  A    between atoms: CA_1  and  N_3
REMARK    2  A    between atoms: CA_1  and  C_9
REMARK    3  A    between atoms: CA_1  and  CB_12
REMARK    4  A    between atoms: C_4  and  O_6
REMARK    5  A    between atoms: C_9  and  O_10
REMARK    6  A    between atoms: CB_12  and  CG_13
REMARK    7  A    between atoms: CG_13  and  SD_14
REMARK                            x       y       z     vdW  Elec       q    Type
REMARK                         _______ _______ _______ _____ _____    ______ ____
ROOT
ATOM      1  CA  UNL     1      34.284 -16.176 -23.912  0.00  0.00    +0.175 C 
ENDROOT
BRANCH   1   3
ATOM      2  O   UNL     1      34.703 -18.851 -22.815  0.00  0.00    -0.227 OA
ATOM      3  N   UNL     1      35.519 -16.768 -23.466  0.00  0.00    -0.263 N 
ATOM      4  C   ACE A   0      35.616 -18.047 -22.961  0.00  0.00    +0.399 C 
ATOM      5  H   UNL     1      36.341 -16.230 -23.527  0.00  0.00    +0.153 HD
BRANCH   4   6
ATOM      6  O   UNL     1      36.902 -18.334 -22.623  0.00  0.00    -0.466 OA
ATOM      7  H   UNL     1      37.257 -18.016 -21.817  0.00  0.00    +0.297 HD
ENDBRANCH   4   6
ENDBRANCH   1   3
BRANCH   1   9
ATOM      8  OXT UNL     1      33.892 -15.592 -26.229  0.00  0.00    -0.248 OA
ATOM      9  C   UNL     1      33.999 -16.469 -25.378  0.00  0.00    +0.332 C 
BRANCH   9  10
ATOM     10  O   UNL     1      33.815 -17.780 -25.664  0.00  0.00    -0.479 OA
ATOM     11  H   UNL     1      34.555 -18.338 -25.803  0.00  0.00    +0.295 HD
ENDBRANCH   9  10
ENDBRANCH   1   9
BRANCH   1  12
ATOM     12  CB  UNL     1      34.233 -14.674 -23.602  0.00  0.00    +0.043 C 
BRANCH  12  13
ATOM     13  CG  UNL     1      32.988 -14.251 -22.817  0.00  0.00    +0.060 C 
BRANCH  13  14
ATOM     14  SD  UNL     1      32.812 -15.263 -21.318  0.00  0.00    -0.139 S 
ATOM     15  CE  UNL     1      34.413 -14.893 -20.564  0.00  0.00    +0.069 C 
ENDBRANCH  13  14
ENDBRANCH  12  13
ENDBRANCH   1  12
TORSDOF 7
ENDMDL
