MODEL 1
REMARK VINA RESULT:     -10.6      0.000      0.000
REMARK  Name = 3689
REMARK  7 active torsions:
REMARK  status: ('A' for Active; 'I' for Inactive)
REMARK    1  A    between atoms: N_1  and  C_8
REMARK    2  A    between atoms: C_2  and  C_21
REMARK    3  A    between atoms: C_8  and  C_10
REMARK    4  A    between atoms: C_10  and  C_11
REMARK    5  A    between atoms: C_10  and  O_19
REMARK    6  A    between atoms: C_16  and  O_17
REMARK    7  A    between atoms: C_21  and  C_22
REMARK                            x       y       z     vdW  Elec       q    Type
REMARK                         _______ _______ _______ _____ _____    ______ ____
ROOT
ATOM      1  N   UNL     1      34.064 -14.846 -23.807  0.00  0.00    +0.390 N 
ATOM      2  C   UNL     1      34.680 -17.397 -22.501  0.00  0.00    +0.000 C 
ATOM      3  C   UNL     1      35.046 -17.111 -23.961  0.00  0.00    -0.023 C 
ATOM      4  C   UNL     1      34.578 -16.079 -21.725  0.00  0.00    -0.023 C 
ATOM      5  C   UNL     1      34.091 -16.091 -24.585  0.00  0.00    -0.077 C 
ATOM      6  C   UNL     1      33.638 -15.094 -22.423  0.00  0.00    -0.077 C 
ATOM      7  H   UNL     1      35.011 -14.470 -23.782  0.00  0.00    -0.079 HD
ENDROOT
BRANCH   1   8
ATOM      8  C   UNL     1      33.187 -13.863 -24.444  0.00  0.00    -0.026 C 
ATOM      9  C   UNL     1      32.741 -14.433 -25.793  0.00  0.00    -0.020 C 
BRANCH   8  10
ATOM     10  C   UNL     1      33.931 -12.517 -24.585  0.00  0.00    +0.114 C 
BRANCH  10  11
ATOM     11  C   UNL     1      33.348 -11.406 -23.738  0.00  0.00    +0.002 C 
ATOM     12  C   UNL     1      33.805 -10.113 -23.913  0.00  0.00    +0.001 C 
ATOM     13  C   UNL     1      32.370 -11.711 -22.808  0.00  0.00    +0.001 C 
ATOM     14  C   UNL     1      33.267  -9.089 -23.132  0.00  0.00    +0.036 C 
ATOM     15  C   UNL     1      31.832 -10.688 -22.026  0.00  0.00    +0.036 C 
ATOM     16  C   UNL     1      32.281  -9.377 -22.189  0.00  0.00    +0.134 C 
BRANCH  16  17
ATOM     17  O   UNL     1      31.757  -8.379 -21.427  0.00  0.00    -0.506 OA
ATOM     18  H   UNL     1      31.205  -7.730 -21.819  0.00  0.00    +0.292 HD
ENDBRANCH  16  17
ENDBRANCH  10  11
BRANCH  10  19
ATOM     19  O   UNL     1      33.879 -12.072 -25.943  0.00  0.00    -0.382 OA
ATOM     20  H   UNL     1      33.735 -12.833 -26.528  0.00  0.00    +0.211 HD
ENDBRANCH  10  19
ENDBRANCH   8  10
ENDBRANCH   1   8
BRANCH   2  21
ATOM     21  C   UNL     1      35.694 -18.337 -21.855  0.00  0.00    +0.026 C 
BRANCH  21  22
ATOM     22  C   UNL     1      35.018 -19.418 -21.056  0.00  0.00    -0.022 C 
ATOM     23  C   UNL     1      33.632 -19.466 -21.002  0.00  0.00    -0.004 C 
ATOM     24  C   UNL     1      35.791 -20.355 -20.383  0.00  0.00    -0.004 C 
ATOM     25  C   UNL     1      33.006 -20.467 -20.261  0.00  0.00    -0.000 C 
ATOM     26  C   UNL     1      35.165 -21.358 -19.642  0.00  0.00    -0.000 C 
ATOM     27  C   UNL     1      33.773 -21.414 -19.581  0.00  0.00    -0.000 C 
ENDBRANCH  21  22
ENDBRANCH   2  21
TORSDOF 7
ENDMDL
MODEL 2
REMARK VINA RESULT:     -10.3      3.740      6.648
REMARK  Name = 3689
REMARK  7 active torsions:
REMARK  status: ('A' for Active; 'I' for Inactive)
REMARK    1  A    between atoms: N_1  and  C_8
REMARK    2  A    between atoms: C_2  and  C_21
REMARK    3  A    between atoms: C_8  and  C_10
REMARK    4  A    between atoms: C_10  and  C_11
REMARK    5  A    between atoms: C_10  and  O_19
REMARK    6  A    between atoms: C_16  and  O_17
REMARK    7  A    between atoms: C_21  and  C_22
REMARK                            x       y       z     vdW  Elec       q    Type
REMARK                         _______ _______ _______ _____ _____    ______ ____
ROOT
ATOM      1  N   UNL     1      35.165 -20.423 -20.926  0.00  0.00    +0.390 N 
ATOM      2  C   UNL     1      33.930 -22.004 -18.789  0.00  0.00    +0.000 C 
ATOM      3  C   UNL     1      33.110 -21.347 -19.904  0.00  0.00    -0.023 C 
ATOM      4  C   UNL     1      35.360 -22.257 -19.277  0.00  0.00    -0.023 C 
ATOM      5  C   UNL     1      33.812 -20.102 -20.452  0.00  0.00    -0.077 C 
ATOM      6  C   UNL     1      35.988 -20.982 -19.845  0.00  0.00    -0.077 C 
ATOM      7  H   UNL     1      35.083 -21.130 -21.656  0.00  0.00    -0.079 HD
ENDROOT
BRANCH   1   8
ATOM      8  C   UNL     1      35.804 -19.235 -21.493  0.00  0.00    -0.026 C 
ATOM      9  C   UNL     1      37.115 -18.999 -20.739  0.00  0.00    -0.020 C 
BRANCH   8  10
ATOM     10  C   UNL     1      34.840 -18.031 -21.396  0.00  0.00    +0.114 C 
BRANCH  10  11
ATOM     11  C   UNL     1      34.565 -17.363 -22.726  0.00  0.00    +0.002 C 
ATOM     12  C   UNL     1      34.130 -16.050 -22.745  0.00  0.00    +0.001 C 
ATOM     13  C   UNL     1      34.756 -18.080 -23.894  0.00  0.00    +0.001 C 
ATOM     14  C   UNL     1      33.877 -15.434 -23.971  0.00  0.00    +0.036 C 
ATOM     15  C   UNL     1      34.503 -17.465 -25.120  0.00  0.00    +0.036 C 
ATOM     16  C   UNL     1      34.064 -16.142 -25.158  0.00  0.00    +0.134 C 
BRANCH  16  17
ATOM     17  O   UNL     1      33.816 -15.541 -26.354  0.00  0.00    -0.506 OA
ATOM     18  H   UNL     1      33.485 -16.044 -27.072  0.00  0.00    +0.292 HD
ENDBRANCH  16  17
ENDBRANCH  10  11
BRANCH  10  19
ATOM     19  O   UNL     1      35.394 -17.031 -20.537  0.00  0.00    -0.382 OA
ATOM     20  H   UNL     1      35.637 -17.433 -19.688  0.00  0.00    +0.211 HD
ENDBRANCH  10  19
ENDBRANCH   8  10
ENDBRANCH   1   8
BRANCH   2  21
ATOM     21  C   UNL     1      33.274 -23.299 -18.316  0.00  0.00    +0.026 C 
BRANCH  21  22
ATOM     22  C   UNL     1      32.784 -23.188 -16.898  0.00  0.00    -0.022 C 
ATOM     23  C   UNL     1      31.443 -22.928 -16.654  0.00  0.00    -0.004 C 
ATOM     24  C   UNL     1      33.682 -23.348 -15.851  0.00  0.00    -0.004 C 
ATOM     25  C   UNL     1      30.990 -22.825 -15.340  0.00  0.00    -0.000 C 
ATOM     26  C   UNL     1      33.228 -23.245 -14.535  0.00  0.00    -0.000 C 
ATOM     27  C   UNL     1      31.882 -22.984 -14.280  0.00  0.00    -0.000 C 
ENDBRANCH  21  22
ENDBRANCH   2  21
TORSDOF 7
ENDMDL
MODEL 3
REMARK VINA RESULT:     -10.1      3.477      8.891
REMARK  Name = 3689
REMARK  7 active torsions:
REMARK  status: ('A' for Active; 'I' for Inactive)
REMARK    1  A    between atoms: N_1  and  C_8
REMARK    2  A    between atoms: C_2  and  C_21
REMARK    3  A    between atoms: C_8  and  C_10
REMARK    4  A    between atoms: C_10  and  C_11
REMARK    5  A    between atoms: C_10  and  O_19
REMARK    6  A    between atoms: C_16  and  O_17
REMARK    7  A    between atoms: C_21  and  C_22
REMARK                            x       y       z     vdW  Elec       q    Type
REMARK                         _______ _______ _______ _____ _____    ______ ____
ROOT
ATOM      1  N   UNL     1      33.879 -16.498 -22.074  0.00  0.00    +0.390 N 
ATOM      2  C   UNL     1      32.922 -13.728 -22.007  0.00  0.00    +0.000 C 
ATOM      3  C   UNL     1      33.567 -14.346 -23.252  0.00  0.00    -0.023 C 
ATOM      4  C   UNL     1      32.305 -14.833 -21.142  0.00  0.00    -0.023 C 
ATOM      5  C   UNL     1      34.542 -15.463 -22.878  0.00  0.00    -0.077 C 
ATOM      6  C   UNL     1      33.323 -15.934 -20.837  0.00  0.00    -0.077 C 
ATOM      7  H   UNL     1      33.107 -16.876 -22.623  0.00  0.00    -0.079 HD
ENDROOT
BRANCH   1   8
ATOM      8  C   UNL     1      34.811 -17.584 -21.768  0.00  0.00    -0.026 C 
ATOM      9  C   UNL     1      36.063 -17.387 -22.625  0.00  0.00    -0.020 C 
BRANCH   8  10
ATOM     10  C   UNL     1      34.125 -18.945 -22.023  0.00  0.00    +0.114 C 
BRANCH  10  11
ATOM     11  C   UNL     1      34.369 -19.965 -20.932  0.00  0.00    +0.002 C 
ATOM     12  C   UNL     1      35.669 -20.286 -20.587  0.00  0.00    +0.001 C 
ATOM     13  C   UNL     1      33.285 -20.552 -20.304  0.00  0.00    +0.001 C 
ATOM     14  C   UNL     1      35.893 -21.226 -19.580  0.00  0.00    +0.036 C 
ATOM     15  C   UNL     1      33.508 -21.492 -19.298  0.00  0.00    +0.036 C 
ATOM     16  C   UNL     1      34.813 -21.829 -18.937  0.00  0.00    +0.134 C 
BRANCH  16  17
ATOM     17  O   UNL     1      35.032 -22.746 -17.955  0.00  0.00    -0.506 OA
ATOM     18  H   UNL     1      35.298 -22.465 -17.102  0.00  0.00    +0.292 HD
ENDBRANCH  16  17
ENDBRANCH  10  11
BRANCH  10  19
ATOM     19  O   UNL     1      34.614 -19.516 -23.240  0.00  0.00    -0.382 OA
ATOM     20  H   UNL     1      34.109 -19.163 -23.990  0.00  0.00    +0.211 HD
ENDBRANCH  10  19
ENDBRANCH   8  10
ENDBRANCH   1   8
BRANCH   2  21
ATOM     21  C   UNL     1      31.876 -12.684 -22.391  0.00  0.00    +0.026 C 
BRANCH  21  22
ATOM     22  C   UNL     1      31.837 -11.550 -21.404  0.00  0.00    -0.022 C 
ATOM     23  C   UNL     1      31.656 -11.820 -20.055  0.00  0.00    -0.004 C 
ATOM     24  C   UNL     1      31.983 -10.245 -21.856  0.00  0.00    -0.004 C 
ATOM     25  C   UNL     1      31.620 -10.768 -19.141  0.00  0.00    -0.000 C 
ATOM     26  C   UNL     1      31.947  -9.192 -20.942  0.00  0.00    -0.000 C 
ATOM     27  C   UNL     1      31.765  -9.454 -19.584  0.00  0.00    -0.000 C 
ENDBRANCH  21  22
ENDBRANCH   2  21
TORSDOF 7
ENDMDL
MODEL 4
REMARK VINA RESULT:     -10.0      3.046      5.424
REMARK  Name = 3689
REMARK  7 active torsions:
REMARK  status: ('A' for Active; 'I' for Inactive)
REMARK    1  A    between atoms: N_1  and  C_8
REMARK    2  A    between atoms: C_2  and  C_21
REMARK    3  A    between atoms: C_8  and  C_10
REMARK    4  A    between atoms: C_10  and  C_11
REMARK    5  A    between atoms: C_10  and  O_19
REMARK    6  A    between atoms: C_16  and  O_17
REMARK    7  A    between atoms: C_21  and  C_22
REMARK                            x       y       z     vdW  Elec       q    Type
REMARK                         _______ _______ _______ _____ _____    ______ ____
ROOT
ATOM      1  N   UNL     1      34.447 -19.613 -21.484  0.00  0.00    +0.390 N 
ATOM      2  C   UNL     1      34.072 -21.569 -19.334  0.00  0.00    +0.000 C 
ATOM      3  C   UNL     1      32.904 -21.023 -20.162  0.00  0.00    -0.023 C 
ATOM      4  C   UNL     1      35.369 -21.477 -20.145  0.00  0.00    -0.023 C 
ATOM      5  C   UNL     1      33.207 -19.622 -20.696  0.00  0.00    -0.077 C 
ATOM      6  C   UNL     1      35.591 -20.060 -20.679  0.00  0.00    -0.077 C 
ATOM      7  H   UNL     1      34.332 -20.266 -22.259  0.00  0.00    -0.079 HD
ENDROOT
BRANCH   1   8
ATOM      8  C   UNL     1      34.696 -18.278 -22.030  0.00  0.00    -0.026 C 
ATOM      9  C   UNL     1      36.166 -18.207 -22.451  0.00  0.00    -0.020 C 
BRANCH   8  10
ATOM     10  C   UNL     1      34.328 -17.209 -20.977  0.00  0.00    +0.114 C 
BRANCH  10  11
ATOM     11  C   UNL     1      33.744 -15.945 -21.570  0.00  0.00    +0.002 C 
ATOM     12  C   UNL     1      32.895 -15.169 -20.803  0.00  0.00    +0.001 C 
ATOM     13  C   UNL     1      34.075 -15.594 -22.867  0.00  0.00    +0.001 C 
ATOM     14  C   UNL     1      32.357 -14.003 -21.350  0.00  0.00    +0.036 C 
ATOM     15  C   UNL     1      33.538 -14.429 -23.415  0.00  0.00    +0.036 C 
ATOM     16  C   UNL     1      32.679 -13.634 -22.656  0.00  0.00    +0.134 C 
BRANCH  16  17
ATOM     17  O   UNL     1      32.153 -12.497 -23.190  0.00  0.00    -0.506 OA
ATOM     18  H   UNL     1      31.227 -12.420 -23.310  0.00  0.00    +0.292 HD
ENDBRANCH  16  17
ENDBRANCH  10  11
BRANCH  10  19
ATOM     19  O   UNL     1      35.496 -16.823 -20.247  0.00  0.00    -0.382 OA
ATOM     20  H   UNL     1      36.177 -17.507 -20.340  0.00  0.00    +0.211 HD
ENDBRANCH  10  19
ENDBRANCH   8  10
ENDBRANCH   1   8
BRANCH   2  21
ATOM     21  C   UNL     1      33.805 -23.005 -18.889  0.00  0.00    +0.026 C 
BRANCH  21  22
ATOM     22  C   UNL     1      33.424 -23.073 -17.435  0.00  0.00    -0.022 C 
ATOM     23  C   UNL     1      32.083 -23.051 -17.076  0.00  0.00    -0.004 C 
ATOM     24  C   UNL     1      34.419 -23.158 -16.471  0.00  0.00    -0.004 C 
ATOM     25  C   UNL     1      31.730 -23.114 -15.729  0.00  0.00    -0.000 C 
ATOM     26  C   UNL     1      34.066 -23.222 -15.122  0.00  0.00    -0.000 C 
ATOM     27  C   UNL     1      32.722 -23.199 -14.752  0.00  0.00    -0.000 C 
ENDBRANCH  21  22
ENDBRANCH   2  21
TORSDOF 7
ENDMDL
MODEL 5
REMARK VINA RESULT:     -10.0      3.389      9.121
REMARK  Name = 3689
REMARK  7 active torsions:
REMARK  status: ('A' for Active; 'I' for Inactive)
REMARK    1  A    between atoms: N_1  and  C_8
REMARK    2  A    between atoms: C_2  and  C_21
REMARK    3  A    between atoms: C_8  and  C_10
REMARK    4  A    between atoms: C_10  and  C_11
REMARK    5  A    between atoms: C_10  and  O_19
REMARK    6  A    between atoms: C_16  and  O_17
REMARK    7  A    between atoms: C_21  and  C_22
REMARK                            x       y       z     vdW  Elec       q    Type
REMARK                         _______ _______ _______ _____ _____    ______ ____
ROOT
ATOM      1  N   UNL     1      34.071 -16.516 -22.026  0.00  0.00    +0.390 N 
ATOM      2  C   UNL     1      33.591 -13.737 -22.827  0.00  0.00    +0.000 C 
ATOM      3  C   UNL     1      33.558 -14.899 -23.825  0.00  0.00    -0.023 C 
ATOM      4  C   UNL     1      33.270 -14.255 -21.420  0.00  0.00    -0.023 C 
ATOM      5  C   UNL     1      34.451 -16.053 -23.367  0.00  0.00    -0.077 C 
ATOM      6  C   UNL     1      34.173 -15.431 -21.041  0.00  0.00    -0.077 C 
ATOM      7  H   UNL     1      33.098 -16.818 -22.061  0.00  0.00    -0.079 HD
ENDROOT
BRANCH   1   8
ATOM      8  C   UNL     1      34.900 -17.653 -21.622  0.00  0.00    -0.026 C 
ATOM      9  C   UNL     1      36.227 -17.562 -22.380  0.00  0.00    -0.020 C 
BRANCH   8  10
ATOM     10  C   UNL     1      34.145 -18.971 -21.903  0.00  0.00    +0.114 C 
BRANCH  10  11
ATOM     11  C   UNL     1      34.345 -20.027 -20.837  0.00  0.00    +0.002 C 
ATOM     12  C   UNL     1      35.631 -20.394 -20.484  0.00  0.00    +0.001 C 
ATOM     13  C   UNL     1      33.236 -20.600 -20.240  0.00  0.00    +0.001 C 
ATOM     14  C   UNL     1      35.815 -21.367 -19.501  0.00  0.00    +0.036 C 
ATOM     15  C   UNL     1      33.420 -21.573 -19.257  0.00  0.00    +0.036 C 
ATOM     16  C   UNL     1      34.709 -21.956 -18.888  0.00  0.00    +0.134 C 
BRANCH  16  17
ATOM     17  O   UNL     1      34.889 -22.906 -17.930  0.00  0.00    -0.506 OA
ATOM     18  H   UNL     1      34.239 -23.569 -17.798  0.00  0.00    +0.292 HD
ENDBRANCH  16  17
ENDBRANCH  10  11
BRANCH  10  19
ATOM     19  O   UNL     1      34.597 -19.538 -23.136  0.00  0.00    -0.382 OA
ATOM     20  H   UNL     1      35.561 -19.640 -23.112  0.00  0.00    +0.211 HD
ENDBRANCH  10  19
ENDBRANCH   8  10
ENDBRANCH   1   8
BRANCH   2  21
ATOM     21  C   UNL     1      32.622 -12.632 -23.238  0.00  0.00    +0.026 C 
BRANCH  21  22
ATOM     22  C   UNL     1      33.350 -11.383 -23.654  0.00  0.00    -0.022 C 
ATOM     23  C   UNL     1      34.326 -11.454 -24.640  0.00  0.00    -0.004 C 
ATOM     24  C   UNL     1      33.036 -10.174 -23.047  0.00  0.00    -0.004 C 
ATOM     25  C   UNL     1      35.000 -10.296 -25.025  0.00  0.00    -0.000 C 
ATOM     26  C   UNL     1      33.710  -9.015 -23.433  0.00  0.00    -0.000 C 
ATOM     27  C   UNL     1      34.692  -9.076 -24.421  0.00  0.00    -0.000 C 
ENDBRANCH  21  22
ENDBRANCH   2  21
TORSDOF 7
ENDMDL
MODEL 6
REMARK VINA RESULT:      -9.8      1.399      2.169
REMARK  Name = 3689
REMARK  7 active torsions:
REMARK  status: ('A' for Active; 'I' for Inactive)
REMARK    1  A    between atoms: N_1  and  C_8
REMARK    2  A    between atoms: C_2  and  C_21
REMARK    3  A    between atoms: C_8  and  C_10
REMARK    4  A    between atoms: C_10  and  C_11
REMARK    5  A    between atoms: C_10  and  O_19
REMARK    6  A    between atoms: C_16  and  O_17
REMARK    7  A    between atoms: C_21  and  C_22
REMARK                            x       y       z     vdW  Elec       q    Type
REMARK                         _______ _______ _______ _____ _____    ______ ____
ROOT
ATOM      1  N   UNL     1      34.391 -14.612 -22.359  0.00  0.00    +0.390 N 
ATOM      2  C   UNL     1      34.762 -17.498 -22.007  0.00  0.00    +0.000 C 
ATOM      3  C   UNL     1      34.996 -16.797 -23.349  0.00  0.00    -0.023 C 
ATOM      4  C   UNL     1      34.950 -16.499 -20.861  0.00  0.00    -0.023 C 
ATOM      5  C   UNL     1      34.140 -15.535 -23.474  0.00  0.00    -0.077 C 
ATOM      6  C   UNL     1      34.095 -15.247 -21.068  0.00  0.00    -0.077 C 
ATOM      7  H   UNL     1      35.381 -14.368 -22.370  0.00  0.00    -0.079 HD
ENDROOT
BRANCH   1   8
ATOM      8  C   UNL     1      33.604 -13.389 -22.521  0.00  0.00    -0.026 C 
ATOM      9  C   UNL     1      32.150 -13.714 -22.172  0.00  0.00    -0.020 C 
BRANCH   8  10
ATOM     10  C   UNL     1      33.764 -12.855 -23.962  0.00  0.00    +0.114 C 
BRANCH  10  11
ATOM     11  C   UNL     1      33.928 -11.352 -24.040  0.00  0.00    +0.002 C 
ATOM     12  C   UNL     1      33.059 -10.541 -23.335  0.00  0.00    +0.001 C 
ATOM     13  C   UNL     1      34.946 -10.825 -24.815  0.00  0.00    +0.001 C 
ATOM     14  C   UNL     1      33.211  -9.155 -23.407  0.00  0.00    +0.036 C 
ATOM     15  C   UNL     1      35.098  -9.441 -24.888  0.00  0.00    +0.036 C 
ATOM     16  C   UNL     1      34.230  -8.606 -24.184  0.00  0.00    +0.134 C 
BRANCH  16  17
ATOM     17  O   UNL     1      34.378  -7.255 -24.255  0.00  0.00    -0.506 OA
ATOM     18  H   UNL     1      34.973  -6.880 -24.874  0.00  0.00    +0.292 HD
ENDBRANCH  16  17
ENDBRANCH  10  11
BRANCH  10  19
ATOM     19  O   UNL     1      32.606 -13.185 -24.734  0.00  0.00    -0.382 OA
ATOM     20  H   UNL     1      31.915 -13.535 -24.149  0.00  0.00    +0.211 HD
ENDBRANCH  10  19
ENDBRANCH   8  10
ENDBRANCH   1   8
BRANCH   2  21
ATOM     21  C   UNL     1      35.690 -18.699 -21.846  0.00  0.00    +0.026 C 
BRANCH  21  22
ATOM     22  C   UNL     1      35.077 -19.763 -20.977  0.00  0.00    -0.022 C 
ATOM     23  C   UNL     1      35.900 -20.625 -20.265  0.00  0.00    -0.004 C 
ATOM     24  C   UNL     1      33.695 -19.868 -20.897  0.00  0.00    -0.004 C 
ATOM     25  C   UNL     1      35.330 -21.610 -19.460  0.00  0.00    -0.000 C 
ATOM     26  C   UNL     1      33.125 -20.854 -20.091  0.00  0.00    -0.000 C 
ATOM     27  C   UNL     1      33.943 -21.725 -19.373  0.00  0.00    -0.000 C 
ENDBRANCH  21  22
ENDBRANCH   2  21
TORSDOF 7
ENDMDL
MODEL 7
REMARK VINA RESULT:      -9.8      2.840      9.119
REMARK  Name = 3689
REMARK  7 active torsions:
REMARK  status: ('A' for Active; 'I' for Inactive)
REMARK    1  A    between atoms: N_1  and  C_8
REMARK    2  A    between atoms: C_2  and  C_21
REMARK    3  A    between atoms: C_8  and  C_10
REMARK    4  A    between atoms: C_10  and  C_11
REMARK    5  A    between atoms: C_10  and  O_19
REMARK    6  A    between atoms: C_16  and  O_17
REMARK    7  A    between atoms: C_21  and  C_22
REMARK                            x       y       z     vdW  Elec       q    Type
REMARK                         _______ _______ _______ _____ _____    ______ ____
ROOT
ATOM      1  N   UNL     1      32.504 -13.667 -22.460  0.00  0.00    +0.390 N 
ATOM      2  C   UNL     1      32.728 -10.780 -22.916  0.00  0.00    +0.000 C 
ATOM      3  C   UNL     1      33.385 -11.812 -23.839  0.00  0.00    -0.023 C 
ATOM      4  C   UNL     1      31.523 -11.410 -22.210  0.00  0.00    -0.023 C 
ATOM      5  C   UNL     1      33.707 -13.106 -23.088  0.00  0.00    -0.077 C 
ATOM      6  C   UNL     1      31.907 -12.716 -21.513  0.00  0.00    -0.077 C 
ATOM      7  H   UNL     1      31.821 -13.849 -23.195  0.00  0.00    -0.079 HD
ENDROOT
BRANCH   1   8
ATOM      8  C   UNL     1      32.817 -14.929 -21.789  0.00  0.00    -0.026 C 
ATOM      9  C   UNL     1      32.503 -14.763 -20.300  0.00  0.00    -0.020 C 
BRANCH   8  10
ATOM     10  C   UNL     1      34.295 -15.300 -22.046  0.00  0.00    +0.114 C 
BRANCH  10  11
ATOM     11  C   UNL     1      34.475 -16.595 -22.809  0.00  0.00    +0.002 C 
ATOM     12  C   UNL     1      34.612 -17.779 -22.107  0.00  0.00    +0.001 C 
ATOM     13  C   UNL     1      34.497 -16.564 -24.192  0.00  0.00    +0.001 C 
ATOM     14  C   UNL     1      34.777 -18.972 -22.811  0.00  0.00    +0.036 C 
ATOM     15  C   UNL     1      34.663 -17.757 -24.897  0.00  0.00    +0.036 C 
ATOM     16  C   UNL     1      34.803 -18.961 -24.206  0.00  0.00    +0.134 C 
BRANCH  16  17
ATOM     17  O   UNL     1      34.965 -20.125 -24.892  0.00  0.00    -0.506 OA
ATOM     18  H   UNL     1      34.731 -20.941 -24.493  0.00  0.00    +0.292 HD
ENDBRANCH  16  17
ENDBRANCH  10  11
BRANCH  10  19
ATOM     19  O   UNL     1      34.982 -15.455 -20.801  0.00  0.00    -0.382 OA
ATOM     20  H   UNL     1      35.680 -16.122 -20.897  0.00  0.00    +0.211 HD
ENDBRANCH  10  19
ENDBRANCH   8  10
ENDBRANCH   1   8
BRANCH   2  21
ATOM     21  C   UNL     1      32.319  -9.532 -23.693  0.00  0.00    +0.026 C 
BRANCH  21  22
ATOM     22  C   UNL     1      32.101  -8.357 -22.780  0.00  0.00    -0.022 C 
ATOM     23  C   UNL     1      32.765  -8.302 -21.562  0.00  0.00    -0.004 C 
ATOM     24  C   UNL     1      31.237  -7.340 -23.168  0.00  0.00    -0.004 C 
ATOM     25  C   UNL     1      32.562  -7.213 -20.716  0.00  0.00    -0.000 C 
ATOM     26  C   UNL     1      31.035  -6.250 -22.321  0.00  0.00    -0.000 C 
ATOM     27  C   UNL     1      31.697  -6.186 -21.096  0.00  0.00    -0.000 C 
ENDBRANCH  21  22
ENDBRANCH   2  21
TORSDOF 7
ENDMDL
MODEL 8
REMARK VINA RESULT:      -9.7      7.234     11.954
REMARK  Name = 3689
REMARK  7 active torsions:
REMARK  status: ('A' for Active; 'I' for Inactive)
REMARK    1  A    between atoms: N_1  and  C_8
REMARK    2  A    between atoms: C_2  and  C_21
REMARK    3  A    between atoms: C_8  and  C_10
REMARK    4  A    between atoms: C_10  and  C_11
REMARK    5  A    between atoms: C_10  and  O_19
REMARK    6  A    between atoms: C_16  and  O_17
REMARK    7  A    between atoms: C_21  and  C_22
REMARK                            x       y       z     vdW  Elec       q    Type
REMARK                         _______ _______ _______ _____ _____    ______ ____
ROOT
ATOM      1  N   UNL     1      33.927 -23.593 -15.746  0.00  0.00    +0.390 N 
ATOM      2  C   UNL     1      34.864 -22.092 -18.084  0.00  0.00    +0.000 C 
ATOM      3  C   UNL     1      35.805 -22.534 -16.958  0.00  0.00    -0.023 C 
ATOM      4  C   UNL     1      33.648 -23.025 -18.137  0.00  0.00    -0.023 C 
ATOM      5  C   UNL     1      35.060 -22.666 -15.628  0.00  0.00    -0.077 C 
ATOM      6  C   UNL     1      32.975 -23.140 -16.769  0.00  0.00    -0.077 C 
ATOM      7  H   UNL     1      34.292 -24.500 -16.036  0.00  0.00    -0.079 HD
ENDROOT
BRANCH   1   8
ATOM      8  C   UNL     1      33.257 -23.748 -14.455  0.00  0.00    -0.026 C 
ATOM      9  C   UNL     1      34.318 -24.105 -13.411  0.00  0.00    -0.020 C 
BRANCH   8  10
ATOM     10  C   UNL     1      32.152 -24.822 -14.569  0.00  0.00    +0.114 C 
BRANCH  10  11
ATOM     11  C   UNL     1      30.798 -24.265 -14.956  0.00  0.00    +0.002 C 
ATOM     12  C   UNL     1      29.925 -25.057 -15.679  0.00  0.00    +0.001 C 
ATOM     13  C   UNL     1      30.466 -22.977 -14.577  0.00  0.00    +0.001 C 
ATOM     14  C   UNL     1      28.677 -24.544 -16.035  0.00  0.00    +0.036 C 
ATOM     15  C   UNL     1      29.219 -22.463 -14.933  0.00  0.00    +0.036 C 
ATOM     16  C   UNL     1      28.325 -23.246 -15.663  0.00  0.00    +0.134 C 
BRANCH  16  17
ATOM     17  O   UNL     1      27.109 -22.746 -16.011  0.00  0.00    -0.506 OA
ATOM     18  H   UNL     1      26.995 -21.822 -16.120  0.00  0.00    +0.292 HD
ENDBRANCH  16  17
ENDBRANCH  10  11
BRANCH  10  19
ATOM     19  O   UNL     1      31.983 -25.483 -13.312  0.00  0.00    -0.382 OA
ATOM     20  H   UNL     1      31.899 -26.438 -13.457  0.00  0.00    +0.211 HD
ENDBRANCH  10  19
ENDBRANCH   8  10
ENDBRANCH   1   8
BRANCH   2  21
ATOM     21  C   UNL     1      35.590 -22.060 -19.426  0.00  0.00    +0.026 C 
BRANCH  21  22
ATOM     22  C   UNL     1      35.375 -20.754 -20.141  0.00  0.00    -0.022 C 
ATOM     23  C   UNL     1      36.470 -19.972 -20.484  0.00  0.00    -0.004 C 
ATOM     24  C   UNL     1      34.084 -20.348 -20.450  0.00  0.00    -0.004 C 
ATOM     25  C   UNL     1      36.270 -18.762 -21.147  0.00  0.00    -0.000 C 
ATOM     26  C   UNL     1      33.884 -19.137 -21.114  0.00  0.00    -0.000 C 
ATOM     27  C   UNL     1      34.977 -18.344 -21.462  0.00  0.00    -0.000 C 
ENDBRANCH  21  22
ENDBRANCH   2  21
TORSDOF 7
ENDMDL
MODEL 9
REMARK VINA RESULT:      -9.7      2.784      5.049
REMARK  Name = 3689
REMARK  7 active torsions:
REMARK  status: ('A' for Active; 'I' for Inactive)
REMARK    1  A    between atoms: N_1  and  C_8
REMARK    2  A    between atoms: C_2  and  C_21
REMARK    3  A    between atoms: C_8  and  C_10
REMARK    4  A    between atoms: C_10  and  C_11
REMARK    5  A    between atoms: C_10  and  O_19
REMARK    6  A    between atoms: C_16  and  O_17
REMARK    7  A    between atoms: C_21  and  C_22
REMARK                            x       y       z     vdW  Elec       q    Type
REMARK                         _______ _______ _______ _____ _____    ______ ____
ROOT
ATOM      1  N   UNL     1      34.231 -19.601 -22.068  0.00  0.00    +0.390 N 
ATOM      2  C   UNL     1      34.448 -21.065 -19.538  0.00  0.00    +0.000 C 
ATOM      3  C   UNL     1      33.099 -20.755 -20.196  0.00  0.00    -0.023 C 
ATOM      4  C   UNL     1      35.549 -21.097 -20.603  0.00  0.00    -0.023 C 
ATOM      5  C   UNL     1      33.175 -19.490 -21.053  0.00  0.00    -0.077 C 
ATOM      6  C   UNL     1      35.544 -19.820 -21.446  0.00  0.00    -0.077 C 
ATOM      7  H   UNL     1      34.021 -20.409 -22.653  0.00  0.00    -0.079 HD
ENDROOT
BRANCH   1   8
ATOM      8  C   UNL     1      34.257 -18.405 -22.911  0.00  0.00    -0.026 C 
ATOM      9  C   UNL     1      35.003 -18.754 -24.202  0.00  0.00    -0.020 C 
BRANCH   8  10
ATOM     10  C   UNL     1      34.917 -17.240 -22.141  0.00  0.00    +0.114 C 
BRANCH  10  11
ATOM     11  C   UNL     1      34.037 -16.015 -22.017  0.00  0.00    +0.002 C 
ATOM     12  C   UNL     1      33.765 -15.263 -23.146  0.00  0.00    +0.001 C 
ATOM     13  C   UNL     1      33.525 -15.676 -20.778  0.00  0.00    +0.001 C 
ATOM     14  C   UNL     1      32.954 -14.134 -23.032  0.00  0.00    +0.036 C 
ATOM     15  C   UNL     1      32.714 -14.546 -20.663  0.00  0.00    +0.036 C 
ATOM     16  C   UNL     1      32.429 -13.776 -21.790  0.00  0.00    +0.134 C 
BRANCH  16  17
ATOM     17  O   UNL     1      31.638 -12.674 -21.679  0.00  0.00    -0.506 OA
ATOM     18  H   UNL     1      31.436 -12.163 -22.439  0.00  0.00    +0.292 HD
ENDBRANCH  16  17
ENDBRANCH  10  11
BRANCH  10  19
ATOM     19  O   UNL     1      36.111 -16.827 -22.812  0.00  0.00    -0.382 OA
ATOM     20  H   UNL     1      36.876 -16.976 -22.234  0.00  0.00    +0.211 HD
ENDBRANCH  10  19
ENDBRANCH   8  10
ENDBRANCH   1   8
BRANCH   2  21
ATOM     21  C   UNL     1      34.393 -22.381 -18.766  0.00  0.00    +0.026 C 
BRANCH  21  22
ATOM     22  C   UNL     1      35.324 -22.371 -17.585  0.00  0.00    -0.022 C 
ATOM     23  C   UNL     1      36.577 -21.785 -17.704  0.00  0.00    -0.004 C 
ATOM     24  C   UNL     1      34.917 -22.949 -16.389  0.00  0.00    -0.004 C 
ATOM     25  C   UNL     1      37.439 -21.777 -16.609  0.00  0.00    -0.000 C 
ATOM     26  C   UNL     1      35.781 -22.940 -15.293  0.00  0.00    -0.000 C 
ATOM     27  C   UNL     1      37.041 -22.354 -15.403  0.00  0.00    -0.000 C 
ENDBRANCH  21  22
ENDBRANCH   2  21
TORSDOF 7
ENDMDL
