MODEL 1
REMARK VINA RESULT:      -8.1      0.000      0.000
REMARK  Name = 3713
REMARK  7 active torsions:
REMARK  status: ('A' for Active; 'I' for Inactive)
REMARK    1  A    between atoms: C_1  and  C_3
REMARK    2  A    between atoms: C_1  and  C_12
REMARK    3  A    between atoms: C_12  and  C_13
REMARK    4  A    between atoms: C_13  and  O_14
REMARK    5  A    between atoms: O_14  and  P_15
REMARK    6  A    between atoms: P_15  and  O_17
REMARK    7  A    between atoms: P_15  and  O_19
REMARK                            x       y       z     vdW  Elec       q    Type
REMARK                         _______ _______ _______ _____ _____    ______ ____
ROOT
ATOM      1  C   UNL     1      36.406 -24.475 -15.056  0.00  0.00    +0.030 C 
ENDROOT
BRANCH   1   3
ATOM      2  N   UNL     1      33.268 -23.719 -13.349  0.00  0.00    -0.312 N 
ATOM      3  C   UNL     1      35.041 -24.110 -14.627  0.00  0.00    -0.006 C 
ATOM      4  C   UNL     1      33.971 -23.691 -15.466  0.00  0.00    +0.011 C 
ATOM      5  C   UNL     1      32.871 -23.452 -14.641  0.00  0.00    +0.048 C 
ATOM      6  C   UNL     1      34.577 -24.117 -13.331  0.00  0.00    +0.058 C 
ATOM      7  C   UNL     1      33.833 -23.490 -16.854  0.00  0.00    +0.001 C 
ATOM      8  C   UNL     1      31.635 -23.021 -15.135  0.00  0.00    +0.015 C 
ATOM      9  C   UNL     1      32.603 -23.059 -17.362  0.00  0.00    +0.000 C 
ATOM     10  C   UNL     1      31.522 -22.829 -16.515  0.00  0.00    +0.001 C 
ATOM     11  H   UNL     1      32.693 -23.636 -12.555  0.00  0.00    +0.152 HD
ENDBRANCH   1   3
BRANCH   1  12
ATOM     12  C   UNL     1      36.653 -25.992 -15.056  0.00  0.00    +0.037 C 
BRANCH  12  13
ATOM     13  C   UNL     1      37.587 -26.429 -13.936  0.00  0.00    +0.154 C 
BRANCH  13  14
ATOM     14  O   UNL     1      38.796 -26.910 -14.507  0.00  0.00    -0.273 OA
BRANCH  14  15
ATOM     15  P   UNL     1      40.059 -25.905 -14.594  0.00  0.00    +0.473 P 
ATOM     16  O   UNL     1      39.871 -24.587 -13.901  0.00  0.00    -0.227 OA
BRANCH  15  17
ATOM     17  O   UNL     1      40.371 -25.815 -16.178  0.00  0.00    -0.303 OA
ATOM     18  H   UNL     1      40.347 -24.888 -16.461  0.00  0.00    +0.222 HD
ENDBRANCH  15  17
BRANCH  15  19
ATOM     19  O   UNL     1      41.275 -26.808 -14.026  0.00  0.00    -0.303 OA
ATOM     20  H   UNL     1      42.035 -26.239 -13.829  0.00  0.00    +0.222 HD
ENDBRANCH  15  19
ENDBRANCH  14  15
ENDBRANCH  13  14
ENDBRANCH  12  13
ENDBRANCH   1  12
TORSDOF 7
ENDMDL
MODEL 2
REMARK VINA RESULT:      -8.0      3.169      4.310
REMARK  Name = 3713
REMARK  7 active torsions:
REMARK  status: ('A' for Active; 'I' for Inactive)
REMARK    1  A    between atoms: C_1  and  C_3
REMARK    2  A    between atoms: C_1  and  C_12
REMARK    3  A    between atoms: C_12  and  C_13
REMARK    4  A    between atoms: C_13  and  O_14
REMARK    5  A    between atoms: O_14  and  P_15
REMARK    6  A    between atoms: P_15  and  O_17
REMARK    7  A    between atoms: P_15  and  O_19
REMARK                            x       y       z     vdW  Elec       q    Type
REMARK                         _______ _______ _______ _____ _____    ______ ____
ROOT
ATOM      1  C   UNL     1      35.327 -23.266 -16.641  0.00  0.00    +0.030 C 
ENDROOT
BRANCH   1   3
ATOM      2  N   UNL     1      32.684 -22.081 -18.863  0.00  0.00    -0.312 N 
ATOM      3  C   UNL     1      34.468 -22.649 -17.672  0.00  0.00    -0.006 C 
ATOM      4  C   UNL     1      34.890 -21.785 -18.721  0.00  0.00    +0.011 C 
ATOM      5  C   UNL     1      33.752 -21.443 -19.453  0.00  0.00    +0.048 C 
ATOM      6  C   UNL     1      33.106 -22.812 -17.787  0.00  0.00    +0.058 C 
ATOM      7  C   UNL     1      36.135 -21.259 -19.118  0.00  0.00    +0.001 C 
ATOM      8  C   UNL     1      33.796 -20.598 -20.568  0.00  0.00    +0.015 C 
ATOM      9  C   UNL     1      36.194 -20.412 -20.231  0.00  0.00    +0.000 C 
ATOM     10  C   UNL     1      35.042 -20.088 -20.943  0.00  0.00    +0.001 C 
ATOM     11  H   UNL     1      31.750 -22.020 -19.172  0.00  0.00    +0.152 HD
ENDBRANCH   1   3
BRANCH   1  12
ATOM     12  C   UNL     1      34.537 -23.779 -15.426  0.00  0.00    +0.037 C 
BRANCH  12  13
ATOM     13  C   UNL     1      35.257 -24.905 -14.698  0.00  0.00    +0.154 C 
BRANCH  13  14
ATOM     14  O   UNL     1      36.572 -25.024 -15.221  0.00  0.00    -0.273 OA
BRANCH  14  15
ATOM     15  P   UNL     1      37.361 -26.420 -15.011  0.00  0.00    +0.473 P 
ATOM     16  O   UNL     1      37.192 -27.047 -13.658  0.00  0.00    -0.227 OA
BRANCH  15  17
ATOM     17  O   UNL     1      38.883 -26.069 -15.426  0.00  0.00    -0.303 OA
ATOM     18  H   UNL     1      39.445 -26.848 -15.289  0.00  0.00    +0.222 HD
ENDBRANCH  15  17
BRANCH  15  19
ATOM     19  O   UNL     1      36.835 -27.318 -16.250  0.00  0.00    -0.303 OA
ATOM     20  H   UNL     1      36.892 -28.257 -16.016  0.00  0.00    +0.222 HD
ENDBRANCH  15  19
ENDBRANCH  14  15
ENDBRANCH  13  14
ENDBRANCH  12  13
ENDBRANCH   1  12
TORSDOF 7
ENDMDL
MODEL 3
REMARK VINA RESULT:      -7.9      3.718      4.765
REMARK  Name = 3713
REMARK  7 active torsions:
REMARK  status: ('A' for Active; 'I' for Inactive)
REMARK    1  A    between atoms: C_1  and  C_3
REMARK    2  A    between atoms: C_1  and  C_12
REMARK    3  A    between atoms: C_12  and  C_13
REMARK    4  A    between atoms: C_13  and  O_14
REMARK    5  A    between atoms: O_14  and  P_15
REMARK    6  A    between atoms: P_15  and  O_17
REMARK    7  A    between atoms: P_15  and  O_19
REMARK                            x       y       z     vdW  Elec       q    Type
REMARK                         _______ _______ _______ _____ _____    ______ ____
ROOT
ATOM      1  C   UNL     1      36.743 -22.060 -18.205  0.00  0.00    +0.030 C 
ENDROOT
BRANCH   1   3
ATOM      2  N   UNL     1      33.175 -22.039 -18.979  0.00  0.00    -0.312 N 
ATOM      3  C   UNL     1      35.369 -21.848 -18.704  0.00  0.00    -0.006 C 
ATOM      4  C   UNL     1      34.964 -20.920 -19.703  0.00  0.00    +0.011 C 
ATOM      5  C   UNL     1      33.583 -21.060 -19.857  0.00  0.00    +0.048 C 
ATOM      6  C   UNL     1      34.247 -22.521 -18.277  0.00  0.00    +0.058 C 
ATOM      7  C   UNL     1      35.641 -19.971 -20.494  0.00  0.00    +0.001 C 
ATOM      8  C   UNL     1      32.843 -20.296 -20.765  0.00  0.00    +0.015 C 
ATOM      9  C   UNL     1      34.913 -19.200 -21.407  0.00  0.00    +0.000 C 
ATOM     10  C   UNL     1      33.537 -19.361 -21.539  0.00  0.00    +0.001 C 
ATOM     11  H   UNL     1      32.246 -22.347 -18.871  0.00  0.00    +0.152 HD
ENDBRANCH   1   3
BRANCH   1  12
ATOM     12  C   UNL     1      36.924 -21.640 -16.737  0.00  0.00    +0.037 C 
BRANCH  12  13
ATOM     13  C   UNL     1      36.930 -22.831 -15.789  0.00  0.00    +0.154 C 
BRANCH  13  14
ATOM     14  O   UNL     1      38.257 -23.328 -15.684  0.00  0.00    -0.273 OA
BRANCH  14  15
ATOM     15  P   UNL     1      38.494 -24.733 -14.918  0.00  0.00    +0.473 P 
ATOM     16  O   UNL     1      38.661 -24.624 -13.431  0.00  0.00    -0.227 OA
BRANCH  15  17
ATOM     17  O   UNL     1      39.739 -25.397 -15.708  0.00  0.00    -0.303 OA
ATOM     18  H   UNL     1      39.744 -26.355 -15.558  0.00  0.00    +0.222 HD
ENDBRANCH  15  17
BRANCH  15  19
ATOM     19  O   UNL     1      37.231 -25.621 -15.401  0.00  0.00    -0.303 OA
ATOM     20  H   UNL     1      36.455 -25.049 -15.504  0.00  0.00    +0.222 HD
ENDBRANCH  15  19
ENDBRANCH  14  15
ENDBRANCH  13  14
ENDBRANCH  12  13
ENDBRANCH   1  12
TORSDOF 7
ENDMDL
MODEL 4
REMARK VINA RESULT:      -7.9      8.101      9.443
REMARK  Name = 3713
REMARK  7 active torsions:
REMARK  status: ('A' for Active; 'I' for Inactive)
REMARK    1  A    between atoms: C_1  and  C_3
REMARK    2  A    between atoms: C_1  and  C_12
REMARK    3  A    between atoms: C_12  and  C_13
REMARK    4  A    between atoms: C_13  and  O_14
REMARK    5  A    between atoms: O_14  and  P_15
REMARK    6  A    between atoms: P_15  and  O_17
REMARK    7  A    between atoms: P_15  and  O_19
REMARK                            x       y       z     vdW  Elec       q    Type
REMARK                         _______ _______ _______ _____ _____    ______ ____
ROOT
ATOM      1  C   UNL     1      34.534 -19.754 -21.198  0.00  0.00    +0.030 C 
ENDROOT
BRANCH   1   3
ATOM      2  N   UNL     1      34.934 -17.746 -24.221  0.00  0.00    -0.312 N 
ATOM      3  C   UNL     1      34.657 -18.721 -22.247  0.00  0.00    -0.006 C 
ATOM      4  C   UNL     1      34.562 -17.313 -22.065  0.00  0.00    +0.011 C 
ATOM      5  C   UNL     1      34.740 -16.725 -23.318  0.00  0.00    +0.048 C 
ATOM      6  C   UNL     1      34.886 -18.956 -23.584  0.00  0.00    +0.058 C 
ATOM      7  C   UNL     1      34.342 -16.480 -20.950  0.00  0.00    +0.001 C 
ATOM      8  C   UNL     1      34.707 -15.340 -23.514  0.00  0.00    +0.015 C 
ATOM      9  C   UNL     1      34.307 -15.093 -21.131  0.00  0.00    +0.000 C 
ATOM     10  C   UNL     1      34.487 -14.534 -22.394  0.00  0.00    +0.001 C 
ATOM     11  H   UNL     1      35.086 -17.623 -25.186  0.00  0.00    +0.152 HD
ENDBRANCH   1   3
BRANCH   1  12
ATOM     12  C   UNL     1      35.887 -20.158 -20.588  0.00  0.00    +0.037 C 
BRANCH  12  13
ATOM     13  C   UNL     1      35.752 -21.282 -19.571  0.00  0.00    +0.154 C 
BRANCH  13  14
ATOM     14  O   UNL     1      34.375 -21.472 -19.275  0.00  0.00    -0.273 OA
BRANCH  14  15
ATOM     15  P   UNL     1      33.945 -22.778 -18.423  0.00  0.00    +0.473 P 
ATOM     16  O   UNL     1      34.767 -23.034 -17.194  0.00  0.00    -0.227 OA
BRANCH  15  17
ATOM     17  O   UNL     1      33.946 -23.969 -19.517  0.00  0.00    -0.303 OA
ATOM     18  H   UNL     1      33.858 -23.592 -20.407  0.00  0.00    +0.222 HD
ENDBRANCH  15  17
BRANCH  15  19
ATOM     19  O   UNL     1      32.370 -22.525 -18.152  0.00  0.00    -0.303 OA
ATOM     20  H   UNL     1      32.251 -22.166 -17.259  0.00  0.00    +0.222 HD
ENDBRANCH  15  19
ENDBRANCH  14  15
ENDBRANCH  13  14
ENDBRANCH  12  13
ENDBRANCH   1  12
TORSDOF 7
ENDMDL
MODEL 5
REMARK VINA RESULT:      -7.9      9.995     11.362
REMARK  Name = 3713
REMARK  7 active torsions:
REMARK  status: ('A' for Active; 'I' for Inactive)
REMARK    1  A    between atoms: C_1  and  C_3
REMARK    2  A    between atoms: C_1  and  C_12
REMARK    3  A    between atoms: C_12  and  C_13
REMARK    4  A    between atoms: C_13  and  O_14
REMARK    5  A    between atoms: O_14  and  P_15
REMARK    6  A    between atoms: P_15  and  O_17
REMARK    7  A    between atoms: P_15  and  O_19
REMARK                            x       y       z     vdW  Elec       q    Type
REMARK                         _______ _______ _______ _____ _____    ______ ____
ROOT
ATOM      1  C   UNL     1      35.293 -17.515 -22.243  0.00  0.00    +0.030 C 
ENDROOT
BRANCH   1   3
ATOM      2  N   UNL     1      36.808 -20.135 -20.201  0.00  0.00    -0.312 N 
ATOM      3  C   UNL     1      35.638 -18.664 -21.383  0.00  0.00    -0.006 C 
ATOM      4  C   UNL     1      34.730 -19.601 -20.814  0.00  0.00    +0.011 C 
ATOM      5  C   UNL     1      35.489 -20.513 -20.079  0.00  0.00    +0.048 C 
ATOM      6  C   UNL     1      36.908 -19.020 -20.987  0.00  0.00    +0.058 C 
ATOM      7  C   UNL     1      33.331 -19.761 -20.856  0.00  0.00    +0.001 C 
ATOM      8  C   UNL     1      34.917 -21.581 -19.378  0.00  0.00    +0.015 C 
ATOM      9  C   UNL     1      32.745 -20.824 -20.160  0.00  0.00    +0.000 C 
ATOM     10  C   UNL     1      33.527 -21.719 -19.434  0.00  0.00    +0.001 C 
ATOM     11  H   UNL     1      37.568 -20.601 -19.784  0.00  0.00    +0.152 HD
ENDBRANCH   1   3
BRANCH   1  12
ATOM     12  C   UNL     1      35.037 -17.912 -23.706  0.00  0.00    +0.037 C 
BRANCH  12  13
ATOM     13  C   UNL     1      34.664 -16.720 -24.575  0.00  0.00    +0.154 C 
BRANCH  13  14
ATOM     14  O   UNL     1      34.780 -15.533 -23.802  0.00  0.00    -0.273 OA
BRANCH  14  15
ATOM     15  P   UNL     1      33.601 -14.431 -23.902  0.00  0.00    +0.473 P 
ATOM     16  O   UNL     1      32.849 -14.421 -25.201  0.00  0.00    -0.227 OA
BRANCH  15  17
ATOM     17  O   UNL     1      34.337 -13.043 -23.519  0.00  0.00    -0.303 OA
ATOM     18  H   UNL     1      34.573 -13.050 -22.578  0.00  0.00    +0.222 HD
ENDBRANCH  15  17
BRANCH  15  19
ATOM     19  O   UNL     1      32.703 -14.748 -22.594  0.00  0.00    -0.303 OA
ATOM     20  H   UNL     1      32.915 -15.636 -22.266  0.00  0.00    +0.222 HD
ENDBRANCH  15  19
ENDBRANCH  14  15
ENDBRANCH  13  14
ENDBRANCH  12  13
ENDBRANCH   1  12
TORSDOF 7
ENDMDL
MODEL 6
REMARK VINA RESULT:      -7.8      3.616      4.662
REMARK  Name = 3713
REMARK  7 active torsions:
REMARK  status: ('A' for Active; 'I' for Inactive)
REMARK    1  A    between atoms: C_1  and  C_3
REMARK    2  A    between atoms: C_1  and  C_12
REMARK    3  A    between atoms: C_12  and  C_13
REMARK    4  A    between atoms: C_13  and  O_14
REMARK    5  A    between atoms: O_14  and  P_15
REMARK    6  A    between atoms: P_15  and  O_17
REMARK    7  A    between atoms: P_15  and  O_19
REMARK                            x       y       z     vdW  Elec       q    Type
REMARK                         _______ _______ _______ _____ _____    ______ ____
ROOT
ATOM      1  C   UNL     1      34.850 -23.803 -16.030  0.00  0.00    +0.030 C 
ENDROOT
BRANCH   1   3
ATOM      2  N   UNL     1      32.430 -22.353 -18.347  0.00  0.00    -0.312 N 
ATOM      3  C   UNL     1      34.099 -23.101 -17.091  0.00  0.00    -0.006 C 
ATOM      4  C   UNL     1      34.648 -22.286 -18.120  0.00  0.00    +0.011 C 
ATOM      5  C   UNL     1      33.580 -21.830 -18.894  0.00  0.00    +0.048 C 
ATOM      6  C   UNL     1      32.733 -23.123 -17.257  0.00  0.00    +0.058 C 
ATOM      7  C   UNL     1      35.954 -21.891 -18.468  0.00  0.00    +0.001 C 
ATOM      8  C   UNL     1      33.753 -20.994 -20.003  0.00  0.00    +0.015 C 
ATOM      9  C   UNL     1      36.143 -21.056 -19.575  0.00  0.00    +0.000 C 
ATOM     10  C   UNL     1      35.059 -20.616 -20.329  0.00  0.00    +0.001 C 
ATOM     11  H   UNL     1      31.520 -22.197 -18.691  0.00  0.00    +0.152 HD
ENDBRANCH   1   3
BRANCH   1  12
ATOM     12  C   UNL     1      34.975 -22.982 -14.736  0.00  0.00    +0.037 C 
BRANCH  12  13
ATOM     13  C   UNL     1      35.934 -23.615 -13.737  0.00  0.00    +0.154 C 
BRANCH  13  14
ATOM     14  O   UNL     1      35.298 -23.680 -12.468  0.00  0.00    -0.273 OA
BRANCH  14  15
ATOM     15  P   UNL     1      36.182 -24.123 -11.187  0.00  0.00    +0.473 P 
ATOM     16  O   UNL     1      35.393 -24.432  -9.948  0.00  0.00    -0.227 OA
BRANCH  15  17
ATOM     17  O   UNL     1      37.266 -22.933 -11.038  0.00  0.00    -0.303 OA
ATOM     18  H   UNL     1      36.813 -22.109 -10.799  0.00  0.00    +0.222 HD
ENDBRANCH  15  17
BRANCH  15  19
ATOM     19  O   UNL     1      37.058 -25.354 -11.765  0.00  0.00    -0.303 OA
ATOM     20  H   UNL     1      37.079 -25.308 -12.733  0.00  0.00    +0.222 HD
ENDBRANCH  15  19
ENDBRANCH  14  15
ENDBRANCH  13  14
ENDBRANCH  12  13
ENDBRANCH   1  12
TORSDOF 7
ENDMDL
MODEL 7
REMARK VINA RESULT:      -7.8      8.260      9.556
REMARK  Name = 3713
REMARK  7 active torsions:
REMARK  status: ('A' for Active; 'I' for Inactive)
REMARK    1  A    between atoms: C_1  and  C_3
REMARK    2  A    between atoms: C_1  and  C_12
REMARK    3  A    between atoms: C_12  and  C_13
REMARK    4  A    between atoms: C_13  and  O_14
REMARK    5  A    between atoms: O_14  and  P_15
REMARK    6  A    between atoms: P_15  and  O_17
REMARK    7  A    between atoms: P_15  and  O_19
REMARK                            x       y       z     vdW  Elec       q    Type
REMARK                         _______ _______ _______ _____ _____    ______ ____
ROOT
ATOM      1  C   UNL     1      35.876 -18.933 -20.983  0.00  0.00    +0.030 C 
ENDROOT
BRANCH   1   3
ATOM      2  N   UNL     1      34.353 -15.683 -21.650  0.00  0.00    -0.312 N 
ATOM      3  C   UNL     1      35.256 -17.706 -21.522  0.00  0.00    -0.006 C 
ATOM      4  C   UNL     1      34.927 -17.451 -22.883  0.00  0.00    +0.011 C 
ATOM      5  C   UNL     1      34.363 -16.175 -22.936  0.00  0.00    +0.048 C 
ATOM      6  C   UNL     1      34.891 -16.600 -20.789  0.00  0.00    +0.058 C 
ATOM      7  C   UNL     1      35.056 -18.184 -24.079  0.00  0.00    +0.001 C 
ATOM      8  C   UNL     1      33.919 -15.594 -24.129  0.00  0.00    +0.015 C 
ATOM      9  C   UNL     1      34.617 -17.616 -25.280  0.00  0.00    +0.000 C 
ATOM     10  C   UNL     1      34.058 -16.341 -25.302  0.00  0.00    +0.001 C 
ATOM     11  H   UNL     1      34.009 -14.798 -21.388  0.00  0.00    +0.152 HD
ENDBRANCH   1   3
BRANCH   1  12
ATOM     12  C   UNL     1      34.851 -20.025 -20.636  0.00  0.00    +0.037 C 
BRANCH  12  13
ATOM     13  C   UNL     1      35.512 -21.339 -20.244  0.00  0.00    +0.154 C 
BRANCH  13  14
ATOM     14  O   UNL     1      35.150 -21.655 -18.907  0.00  0.00    -0.273 OA
BRANCH  14  15
ATOM     15  P   UNL     1      33.892 -22.642 -18.662  0.00  0.00    +0.473 P 
ATOM     16  O   UNL     1      32.546 -21.980 -18.717  0.00  0.00    -0.227 OA
BRANCH  15  17
ATOM     17  O   UNL     1      34.245 -23.377 -17.266  0.00  0.00    -0.303 OA
ATOM     18  H   UNL     1      33.957 -22.822 -16.525  0.00  0.00    +0.222 HD
ENDBRANCH  15  17
BRANCH  15  19
ATOM     19  O   UNL     1      34.129 -23.803 -19.764  0.00  0.00    -0.303 OA
ATOM     20  H   UNL     1      35.066 -24.054 -19.772  0.00  0.00    +0.222 HD
ENDBRANCH  15  19
ENDBRANCH  14  15
ENDBRANCH  13  14
ENDBRANCH  12  13
ENDBRANCH   1  12
TORSDOF 7
ENDMDL
MODEL 8
REMARK VINA RESULT:      -7.7      1.819      2.810
REMARK  Name = 3713
REMARK  7 active torsions:
REMARK  status: ('A' for Active; 'I' for Inactive)
REMARK    1  A    between atoms: C_1  and  C_3
REMARK    2  A    between atoms: C_1  and  C_12
REMARK    3  A    between atoms: C_12  and  C_13
REMARK    4  A    between atoms: C_13  and  O_14
REMARK    5  A    between atoms: O_14  and  P_15
REMARK    6  A    between atoms: P_15  and  O_17
REMARK    7  A    between atoms: P_15  and  O_19
REMARK                            x       y       z     vdW  Elec       q    Type
REMARK                         _______ _______ _______ _____ _____    ______ ____
ROOT
ATOM      1  C   UNL     1      34.593 -23.109 -15.866  0.00  0.00    +0.030 C 
ENDROOT
BRANCH   1   3
ATOM      2  N   UNL     1      32.417 -25.033 -13.654  0.00  0.00    -0.312 N 
ATOM      3  C   UNL     1      33.502 -23.777 -15.127  0.00  0.00    -0.006 C 
ATOM      4  C   UNL     1      32.108 -23.667 -15.390  0.00  0.00    +0.011 C 
ATOM      5  C   UNL     1      31.450 -24.464 -14.453  0.00  0.00    +0.048 C 
ATOM      6  C   UNL     1      33.660 -24.624 -14.053  0.00  0.00    +0.058 C 
ATOM      7  C   UNL     1      31.341 -22.963 -16.339  0.00  0.00    +0.001 C 
ATOM      8  C   UNL     1      30.057 -24.593 -14.416  0.00  0.00    +0.015 C 
ATOM      9  C   UNL     1      29.947 -23.082 -16.315  0.00  0.00    +0.000 C 
ATOM     10  C   UNL     1      29.317 -23.886 -15.367  0.00  0.00    +0.001 C 
ATOM     11  H   UNL     1      32.239 -25.646 -12.904  0.00  0.00    +0.152 HD
ENDBRANCH   1   3
BRANCH   1  12
ATOM     12  C   UNL     1      35.846 -22.871 -15.006  0.00  0.00    +0.037 C 
BRANCH  12  13
ATOM     13  C   UNL     1      36.994 -23.796 -15.384  0.00  0.00    +0.154 C 
BRANCH  13  14
ATOM     14  O   UNL     1      37.223 -24.705 -14.316  0.00  0.00    -0.273 OA
BRANCH  14  15
ATOM     15  P   UNL     1      37.142 -26.291 -14.624  0.00  0.00    +0.473 P 
ATOM     16  O   UNL     1      36.240 -26.671 -15.762  0.00  0.00    -0.227 OA
BRANCH  15  17
ATOM     17  O   UNL     1      36.764 -26.942 -13.194  0.00  0.00    -0.303 OA
ATOM     18  H   UNL     1      35.806 -26.884 -13.054  0.00  0.00    +0.222 HD
ENDBRANCH  15  17
BRANCH  15  19
ATOM     19  O   UNL     1      38.696 -26.697 -14.819  0.00  0.00    -0.303 OA
ATOM     20  H   UNL     1      39.064 -26.981 -13.967  0.00  0.00    +0.222 HD
ENDBRANCH  15  19
ENDBRANCH  14  15
ENDBRANCH  13  14
ENDBRANCH  12  13
ENDBRANCH   1  12
TORSDOF 7
ENDMDL
MODEL 9
REMARK VINA RESULT:      -7.7      9.656     11.015
REMARK  Name = 3713
REMARK  7 active torsions:
REMARK  status: ('A' for Active; 'I' for Inactive)
REMARK    1  A    between atoms: C_1  and  C_3
REMARK    2  A    between atoms: C_1  and  C_12
REMARK    3  A    between atoms: C_12  and  C_13
REMARK    4  A    between atoms: C_13  and  O_14
REMARK    5  A    between atoms: O_14  and  P_15
REMARK    6  A    between atoms: P_15  and  O_17
REMARK    7  A    between atoms: P_15  and  O_19
REMARK                            x       y       z     vdW  Elec       q    Type
REMARK                         _______ _______ _______ _____ _____    ______ ____
ROOT
ATOM      1  C   UNL     1      35.576 -18.578 -21.893  0.00  0.00    +0.030 C 
ENDROOT
BRANCH   1   3
ATOM      2  N   UNL     1      32.663 -20.386 -20.639  0.00  0.00    -0.312 N 
ATOM      3  C   UNL     1      34.586 -19.447 -21.225  0.00  0.00    -0.006 C 
ATOM      4  C   UNL     1      34.857 -20.437 -20.239  0.00  0.00    +0.011 C 
ATOM      5  C   UNL     1      33.633 -21.011 -19.889  0.00  0.00    +0.048 C 
ATOM      6  C   UNL     1      33.229 -19.440 -21.449  0.00  0.00    +0.058 C 
ATOM      7  C   UNL     1      36.028 -20.902 -19.610  0.00  0.00    +0.001 C 
ATOM      8  C   UNL     1      33.522 -22.031 -18.937  0.00  0.00    +0.015 C 
ATOM      9  C   UNL     1      35.932 -21.921 -18.656  0.00  0.00    +0.000 C 
ATOM     10  C   UNL     1      34.698 -22.475 -18.326  0.00  0.00    +0.001 C 
ATOM     11  H   UNL     1      31.700 -20.591 -20.598  0.00  0.00    +0.152 HD
ENDBRANCH   1   3
BRANCH   1  12
ATOM     12  C   UNL     1      35.163 -17.097 -21.910  0.00  0.00    +0.037 C 
BRANCH  12  13
ATOM     13  C   UNL     1      34.882 -16.588 -23.317  0.00  0.00    +0.154 C 
BRANCH  13  14
ATOM     14  O   UNL     1      34.988 -15.172 -23.324  0.00  0.00    -0.273 OA
BRANCH  14  15
ATOM     15  P   UNL     1      33.638 -14.300 -23.504  0.00  0.00    +0.473 P 
ATOM     16  O   UNL     1      32.609 -14.494 -22.429  0.00  0.00    -0.227 OA
BRANCH  15  17
ATOM     17  O   UNL     1      33.147 -14.655 -25.003  0.00  0.00    -0.303 OA
ATOM     18  H   UNL     1      33.826 -15.186 -25.449  0.00  0.00    +0.222 HD
ENDBRANCH  15  17
BRANCH  15  19
ATOM     19  O   UNL     1      34.203 -12.790 -23.645  0.00  0.00    -0.303 OA
ATOM     20  H   UNL     1      33.500 -12.161 -23.422  0.00  0.00    +0.222 HD
ENDBRANCH  15  19
ENDBRANCH  14  15
ENDBRANCH  13  14
ENDBRANCH  12  13
ENDBRANCH   1  12
TORSDOF 7
ENDMDL
