MODEL 1
REMARK VINA RESULT:      -9.9      0.000      0.000
REMARK  Name = 14708
REMARK  1 active torsions:
REMARK  status: ('A' for Active; 'I' for Inactive)
REMARK    1  A    between atoms: C_9  and  O_24
REMARK                            x       y       z     vdW  Elec       q    Type
REMARK                         _______ _______ _______ _____ _____    ______ ____
ROOT
ATOM      1  O   UNL     1      39.998 -25.928 -13.536  0.00  0.00    -0.242 OA
ATOM      2  N   UNL     1      38.706 -26.291 -13.127  0.00  0.00    -0.053 NA
ATOM      3  N   UNL     1      39.968 -24.900 -14.489  0.00  0.00    -0.053 NA
ATOM      4  C   UNL     1      32.217 -23.611 -15.911  0.00  0.00    +0.002 C 
ATOM      5  C   UNL     1      31.347 -23.891 -14.667  0.00  0.00    +0.023 C 
ATOM      6  C   UNL     1      33.673 -23.262 -15.564  0.00  0.00    +0.000 C 
ATOM      7  C   UNL     1      34.300 -24.450 -14.769  0.00  0.00    +0.000 C 
ATOM      8  C   UNL     1      35.810 -24.193 -14.407  0.00  0.00    +0.006 C 
ATOM      9  C   UNL     1      29.949 -24.084 -15.332  0.00  0.00    +0.088 C 
ATOM     10  C   UNL     1      31.947 -25.105 -13.938  0.00  0.00    +0.002 C 
ATOM     11  C   UNL     1      33.422 -24.877 -13.563  0.00  0.00    +0.000 C 
ATOM     12  C   UNL     1      36.585 -23.866 -15.748  0.00  0.00    +0.006 C 
ATOM     13  C   UNL     1      31.395 -22.597 -16.700  0.00  0.00    +0.002 C 
ATOM     14  C   UNL     1      34.486 -22.957 -16.830  0.00  0.00    +0.000 C 
ATOM     15  C   UNL     1      29.931 -23.001 -16.443  0.00  0.00    +0.027 C 
ATOM     16  C   UNL     1      35.957 -22.701 -16.524  0.00  0.00    +0.000 C 
ATOM     17  C   UNL     1      36.428 -25.488 -13.761  0.00  0.00    +0.051 C 
ATOM     18  C   UNL     1      31.294 -22.694 -13.671  0.00  0.00    +0.002 C 
ATOM     19  C   UNL     1      35.950 -23.032 -13.387  0.00  0.00    +0.000 C 
ATOM     20  C   UNL     1      38.105 -23.622 -15.550  0.00  0.00    +0.051 C 
ATOM     21  C   UNL     1      29.701 -25.472 -15.938  0.00  0.00    +0.029 C 
ATOM     22  C   UNL     1      37.910 -25.484 -13.827  0.00  0.00    +0.117 A 
ATOM     23  C   UNL     1      38.670 -24.652 -14.652  0.00  0.00    +0.117 A 
ENDROOT
BRANCH   9  24
ATOM     24  O   UNL     1      28.878 -23.881 -14.412  0.00  0.00    -0.387 OA
ATOM     25  H   UNL     1      29.230 -23.527 -13.580  0.00  0.00    +0.210 HD
ENDBRANCH   9  24
TORSDOF 1
ENDMDL
MODEL 2
REMARK VINA RESULT:      -8.0      3.451      7.060
REMARK  Name = 14708
REMARK  1 active torsions:
REMARK  status: ('A' for Active; 'I' for Inactive)
REMARK    1  A    between atoms: C_9  and  O_24
REMARK                            x       y       z     vdW  Elec       q    Type
REMARK                         _______ _______ _______ _____ _____    ______ ____
ROOT
ATOM      1  O   UNL     1      27.991 -22.078 -15.718  0.00  0.00    -0.242 OA
ATOM      2  N   UNL     1      28.774 -22.368 -14.591  0.00  0.00    -0.053 NA
ATOM      3  N   UNL     1      28.741 -22.150 -16.900  0.00  0.00    -0.053 NA
ATOM      4  C   UNL     1      36.214 -23.663 -14.531  0.00  0.00    +0.002 C 
ATOM      5  C   UNL     1      36.251 -24.497 -13.232  0.00  0.00    +0.023 C 
ATOM      6  C   UNL     1      34.915 -23.847 -15.331  0.00  0.00    +0.000 C 
ATOM      7  C   UNL     1      33.708 -23.432 -14.432  0.00  0.00    +0.000 C 
ATOM      8  C   UNL     1      32.333 -23.551 -15.190  0.00  0.00    +0.006 C 
ATOM      9  C   UNL     1      37.699 -24.193 -12.736  0.00  0.00    +0.088 C 
ATOM     10  C   UNL     1      35.093 -24.024 -12.338  0.00  0.00    +0.002 C 
ATOM     11  C   UNL     1      33.734 -24.139 -13.051  0.00  0.00    +0.000 C 
ATOM     12  C   UNL     1      32.436 -22.703 -16.523  0.00  0.00    +0.006 C 
ATOM     13  C   UNL     1      37.538 -24.000 -15.208  0.00  0.00    +0.002 C 
ATOM     14  C   UNL     1      34.943 -23.027 -16.628  0.00  0.00    +0.000 C 
ATOM     15  C   UNL     1      38.531 -24.192 -14.047  0.00  0.00    +0.027 C 
ATOM     16  C   UNL     1      33.628 -23.115 -17.395  0.00  0.00    +0.000 C 
ATOM     17  C   UNL     1      31.182 -22.961 -14.294  0.00  0.00    +0.051 C 
ATOM     18  C   UNL     1      36.091 -26.027 -13.479  0.00  0.00    +0.002 C 
ATOM     19  C   UNL     1      31.992 -25.033 -15.499  0.00  0.00    +0.000 C 
ATOM     20  C   UNL     1      31.131 -22.698 -17.363  0.00  0.00    +0.051 C 
ATOM     21  C   UNL     1      37.869 -22.858 -11.999  0.00  0.00    +0.029 C 
ATOM     22  C   UNL     1      29.982 -22.616 -15.095  0.00  0.00    +0.117 A 
ATOM     23  C   UNL     1      29.962 -22.478 -16.485  0.00  0.00    +0.117 A 
ENDROOT
BRANCH   9  24
ATOM     24  O   UNL     1      38.182 -25.183 -11.832  0.00  0.00    -0.387 OA
ATOM     25  H   UNL     1      37.780 -26.040 -12.046  0.00  0.00    +0.210 HD
ENDBRANCH   9  24
TORSDOF 1
ENDMDL
MODEL 3
REMARK VINA RESULT:      -7.2     11.211     13.343
REMARK  Name = 14708
REMARK  1 active torsions:
REMARK  status: ('A' for Active; 'I' for Inactive)
REMARK    1  A    between atoms: C_9  and  O_24
REMARK                            x       y       z     vdW  Elec       q    Type
REMARK                         _______ _______ _______ _____ _____    ______ ____
ROOT
ATOM      1  O   UNL     1      33.742  -9.730 -24.482  0.00  0.00    -0.242 OA
ATOM      2  N   UNL     1      34.092 -10.466 -23.341  0.00  0.00    -0.053 NA
ATOM      3  N   UNL     1      33.459 -10.568 -25.570  0.00  0.00    -0.053 NA
ATOM      4  C   UNL     1      34.952 -17.958 -22.942  0.00  0.00    +0.002 C 
ATOM      5  C   UNL     1      34.676 -18.100 -21.429  0.00  0.00    +0.023 C 
ATOM      6  C   UNL     1      34.155 -16.820 -23.598  0.00  0.00    +0.000 C 
ATOM      7  C   UNL     1      34.521 -15.477 -22.891  0.00  0.00    +0.000 C 
ATOM      8  C   UNL     1      33.776 -14.246 -23.530  0.00  0.00    +0.006 C 
ATOM      9  C   UNL     1      35.513 -19.376 -21.103  0.00  0.00    +0.088 C 
ATOM     10  C   UNL     1      35.106 -16.790 -20.748  0.00  0.00    +0.002 C 
ATOM     11  C   UNL     1      34.384 -15.570 -21.348  0.00  0.00    +0.000 C 
ATOM     12  C   UNL     1      34.091 -14.237 -25.081  0.00  0.00    +0.006 C 
ATOM     13  C   UNL     1      34.767 -19.375 -23.473  0.00  0.00    +0.002 C 
ATOM     14  C   UNL     1      34.437 -16.743 -25.104  0.00  0.00    +0.000 C 
ATOM     15  C   UNL     1      35.273 -20.285 -22.338  0.00  0.00    +0.027 C 
ATOM     16  C   UNL     1      33.733 -15.562 -25.765  0.00  0.00    +0.000 C 
ATOM     17  C   UNL     1      34.313 -12.912 -22.890  0.00  0.00    +0.051 C 
ATOM     18  C   UNL     1      33.175 -18.359 -21.101  0.00  0.00    +0.002 C 
ATOM     19  C   UNL     1      32.248 -14.323 -23.273  0.00  0.00    +0.000 C 
ATOM     20  C   UNL     1      33.447 -13.048 -25.843  0.00  0.00    +0.051 C 
ATOM     21  C   UNL     1      37.016 -19.136 -20.905  0.00  0.00    +0.029 C 
ATOM     22  C   UNL     1      34.015 -11.733 -23.741  0.00  0.00    +0.117 A 
ATOM     23  C   UNL     1      33.641 -11.794 -25.085  0.00  0.00    +0.117 A 
ENDROOT
BRANCH   9  24
ATOM     24  O   UNL     1      35.077 -20.021 -19.909  0.00  0.00    -0.387 OA
ATOM     25  H   UNL     1      35.095 -19.387 -19.174  0.00  0.00    +0.210 HD
ENDBRANCH   9  24
TORSDOF 1
ENDMDL
MODEL 4
REMARK VINA RESULT:      -7.2     13.347     15.297
REMARK  Name = 14708
REMARK  1 active torsions:
REMARK  status: ('A' for Active; 'I' for Inactive)
REMARK    1  A    between atoms: C_9  and  O_24
REMARK                            x       y       z     vdW  Elec       q    Type
REMARK                         _______ _______ _______ _____ _____    ______ ____
ROOT
ATOM      1  O   UNL     1      34.843 -17.747 -22.472  0.00  0.00    -0.242 OA
ATOM      2  N   UNL     1      35.229 -16.620 -23.214  0.00  0.00    -0.053 NA
ATOM      3  N   UNL     1      33.834 -17.436 -21.550  0.00  0.00    -0.053 NA
ATOM      4  C   UNL     1      32.759  -9.553 -22.222  0.00  0.00    +0.002 C 
ATOM      5  C   UNL     1      33.037  -9.052 -23.656  0.00  0.00    +0.023 C 
ATOM      6  C   UNL     1      32.369 -11.038 -22.166  0.00  0.00    +0.000 C 
ATOM      7  C   UNL     1      33.526 -11.887 -22.780  0.00  0.00    +0.000 C 
ATOM      8  C   UNL     1      33.226 -13.431 -22.724  0.00  0.00    +0.006 C 
ATOM      9  C   UNL     1      33.276  -7.534 -23.389  0.00  0.00    +0.088 C 
ATOM     10  C   UNL     1      34.223  -9.858 -24.213  0.00  0.00    +0.002 C 
ATOM     11  C   UNL     1      33.952 -11.373 -24.181  0.00  0.00    +0.000 C 
ATOM     12  C   UNL     1      32.906 -13.812 -21.222  0.00  0.00    +0.006 C 
ATOM     13  C   UNL     1      31.781  -8.523 -21.668  0.00  0.00    +0.002 C 
ATOM     14  C   UNL     1      32.069 -11.477 -20.726  0.00  0.00    +0.000 C 
ATOM     15  C   UNL     1      32.215  -7.191 -22.309  0.00  0.00    +0.027 C 
ATOM     16  C   UNL     1      31.771 -12.969 -20.627  0.00  0.00    +0.000 C 
ATOM     17  C   UNL     1      34.494 -14.234 -23.198  0.00  0.00    +0.051 C 
ATOM     18  C   UNL     1      31.823  -9.232 -24.616  0.00  0.00    +0.002 C 
ATOM     19  C   UNL     1      32.044 -13.803 -23.657  0.00  0.00    +0.000 C 
ATOM     20  C   UNL     1      32.622 -15.323 -21.007  0.00  0.00    +0.051 C 
ATOM     21  C   UNL     1      34.681  -7.173 -22.887  0.00  0.00    +0.029 C 
ATOM     22  C   UNL     1      34.455 -15.645 -22.742  0.00  0.00    +0.117 A 
ATOM     23  C   UNL     1      33.621 -16.135 -21.735  0.00  0.00    +0.117 A 
ENDROOT
BRANCH   9  24
ATOM     24  O   UNL     1      33.082  -6.740 -24.557  0.00  0.00    -0.387 OA
ATOM     25  H   UNL     1      32.698  -7.288 -25.260  0.00  0.00    +0.210 HD
ENDBRANCH   9  24
TORSDOF 1
ENDMDL
MODEL 5
REMARK VINA RESULT:      -6.9     20.336     22.342
REMARK  Name = 14708
REMARK  1 active torsions:
REMARK  status: ('A' for Active; 'I' for Inactive)
REMARK    1  A    between atoms: C_9  and  O_24
REMARK                            x       y       z     vdW  Elec       q    Type
REMARK                         _______ _______ _______ _____ _____    ______ ____
ROOT
ATOM      1  O   UNL     1      32.567  -8.478 -20.083  0.00  0.00    -0.242 OA
ATOM      2  N   UNL     1      33.392  -8.404 -21.215  0.00  0.00    -0.053 NA
ATOM      3  N   UNL     1      31.563  -7.500 -20.112  0.00  0.00    -0.053 NA
ATOM      4  C   UNL     1      33.055  -3.183 -26.661  0.00  0.00    +0.002 C 
ATOM      5  C   UNL     1      33.703  -4.031 -27.777  0.00  0.00    +0.023 C 
ATOM      6  C   UNL     1      32.229  -4.017 -25.670  0.00  0.00    +0.000 C 
ATOM      7  C   UNL     1      33.159  -5.086 -25.014  0.00  0.00    +0.000 C 
ATOM      8  C   UNL     1      32.399  -5.963 -23.950  0.00  0.00    +0.006 C 
ATOM      9  C   UNL     1      34.344  -2.910 -28.653  0.00  0.00    +0.088 C 
ATOM     10  C   UNL     1      34.662  -5.030 -27.110  0.00  0.00    +0.002 C 
ATOM     11  C   UNL     1      33.943  -5.908 -26.070  0.00  0.00    +0.000 C 
ATOM     12  C   UNL     1      31.737  -4.986 -22.896  0.00  0.00    +0.006 C 
ATOM     13  C   UNL     1      32.359  -2.061 -27.424  0.00  0.00    +0.002 C 
ATOM     14  C   UNL     1      31.578  -3.126 -24.603  0.00  0.00    +0.000 C 
ATOM     15  C   UNL     1      33.275  -1.785 -28.631  0.00  0.00    +0.027 C 
ATOM     16  C   UNL     1      30.830  -3.936 -23.551  0.00  0.00    +0.000 C 
ATOM     17  C   UNL     1      33.424  -6.899 -23.208  0.00  0.00    +0.051 C 
ATOM     18  C   UNL     1      32.666  -4.830 -28.622  0.00  0.00    +0.002 C 
ATOM     19  C   UNL     1      31.329  -6.860 -24.626  0.00  0.00    +0.000 C 
ATOM     20  C   UNL     1      30.977  -5.716 -21.756  0.00  0.00    +0.051 C 
ATOM     21  C   UNL     1      35.689  -2.375 -28.146  0.00  0.00    +0.029 C 
ATOM     22  C   UNL     1      32.884  -7.392 -21.916  0.00  0.00    +0.117 A 
ATOM     23  C   UNL     1      31.787  -6.844 -21.248  0.00  0.00    +0.117 A 
ENDROOT
BRANCH   9  24
ATOM     24  O   UNL     1      34.593  -3.343 -29.989  0.00  0.00    -0.387 OA
ATOM     25  H   UNL     1      33.755  -3.387 -30.476  0.00  0.00    +0.210 HD
ENDBRANCH   9  24
TORSDOF 1
ENDMDL
