MODEL 1
REMARK VINA RESULT:     -10.0      0.000      0.000
REMARK  Name = 22024915
REMARK  2 active torsions:
REMARK  status: ('A' for Active; 'I' for Inactive)
REMARK    1  A    between atoms: N_5  and  C_23
REMARK    2  A    between atoms: C_26  and  C_29
REMARK                            x       y       z     vdW  Elec       q    Type
REMARK                         _______ _______ _______ _____ _____    ______ ____
ROOT
ATOM      1  O   UNL     1      31.562 -12.084 -21.095  0.00  0.00    -0.470 OA
ATOM      2  O   UNL     1      32.067 -10.953 -23.417  0.00  0.00    -0.474 OA
ATOM      3  O   UNL     1      32.654  -9.944 -19.473  0.00  0.00    -0.347 OA
ATOM      4  O   UNL     1      32.916  -8.583 -21.991  0.00  0.00    -0.347 OA
ATOM      5  N   UNL     1      33.868 -16.687 -21.262  0.00  0.00    -0.298 N 
ATOM      6  N   UNL     1      34.601 -14.775 -24.858  0.00  0.00    -0.248 NA
ATOM      7  N   UNL     1      34.847 -16.678 -23.401  0.00  0.00    -0.230 NA
ATOM      8  C   UNL     1      33.588 -14.742 -22.683  0.00  0.00    +0.048 C 
ATOM      9  C   UNL     1      32.334 -12.798 -21.968  0.00  0.00    +0.169 C 
ATOM     10  C   UNL     1      32.606 -12.194 -23.198  0.00  0.00    +0.156 C 
ATOM     11  C   UNL     1      33.869 -14.143 -23.923  0.00  0.00    +0.066 C 
ATOM     12  C   UNL     1      32.819 -14.078 -21.711  0.00  0.00    +0.044 C 
ATOM     13  C   UNL     1      33.361 -12.869 -24.165  0.00  0.00    +0.112 C 
ATOM     14  C   UNL     1      34.110 -16.017 -22.488  0.00  0.00    +0.131 C 
ATOM     15  C   UNL     1      31.911 -12.200 -19.710  0.00  0.00    +0.237 C 
ATOM     16  C   UNL     1      33.001  -9.995 -23.930  0.00  0.00    +0.237 C 
ATOM     17  C   UNL     1      31.618 -10.847 -19.075  0.00  0.00    +0.189 C 
ATOM     18  C   UNL     1      32.609  -8.625 -23.386  0.00  0.00    +0.189 C 
ATOM     19  C   UNL     1      32.199  -8.612 -19.709  0.00  0.00    +0.174 C 
ATOM     20  C   UNL     1      31.758  -8.467 -21.161  0.00  0.00    +0.174 C 
ATOM     21  C   UNL     1      35.050 -16.007 -24.546  0.00  0.00    +0.252 C 
ATOM     22  H   UNL     1      33.765 -16.083 -20.492  0.00  0.00    +0.154 HD
ENDROOT
BRANCH   5  23
ATOM     23  C   UNL     1      33.747 -18.047 -20.934  0.00  0.00    +0.050 C 
ATOM     24  C   UNL     1      34.889 -18.818 -20.718  0.00  0.00    +0.023 C 
ATOM     25  C   UNL     1      32.482 -18.626 -20.821  0.00  0.00    +0.015 C 
ATOM     26  C   UNL     1      34.767 -20.168 -20.391  0.00  0.00    +0.044 C 
ATOM     27  C   UNL     1      32.361 -19.976 -20.494  0.00  0.00    +0.002 C 
ATOM     28  C   UNL     1      33.503 -20.748 -20.279  0.00  0.00    +0.008 C 
BRANCH  26  29
ATOM     29  C   UNL     1      35.937 -20.958 -20.171  0.00  0.00    -0.051 C 
ATOM     30  C   UNL     1      36.920 -21.623 -19.985  0.00  0.00    -0.009 C 
ENDBRANCH  26  29
ENDBRANCH   5  23
TORSDOF 2
ENDMDL
MODEL 2
REMARK VINA RESULT:      -9.7      4.031     10.220
REMARK  Name = 22024915
REMARK  2 active torsions:
REMARK  status: ('A' for Active; 'I' for Inactive)
REMARK    1  A    between atoms: N_5  and  C_23
REMARK    2  A    between atoms: C_26  and  C_29
REMARK                            x       y       z     vdW  Elec       q    Type
REMARK                         _______ _______ _______ _____ _____    ______ ____
ROOT
ATOM      1  O   UNL     1      32.375 -12.564 -23.548  0.00  0.00    -0.470 OA
ATOM      2  O   UNL     1      31.733 -13.120 -21.056  0.00  0.00    -0.474 OA
ATOM      3  O   UNL     1      34.689 -14.306 -23.659  0.00  0.00    -0.347 OA
ATOM      4  O   UNL     1      33.802 -15.142 -21.056  0.00  0.00    -0.347 OA
ATOM      5  N   UNL     1      32.935  -7.446 -23.727  0.00  0.00    -0.298 N 
ATOM      6  N   UNL     1      31.941  -8.474 -19.843  0.00  0.00    -0.248 NA
ATOM      7  N   UNL     1      32.487  -6.817 -21.505  0.00  0.00    -0.230 NA
ATOM      8  C   UNL     1      32.394  -9.160 -22.097  0.00  0.00    +0.048 C 
ATOM      9  C   UNL     1      32.304 -11.507 -22.683  0.00  0.00    +0.169 C 
ATOM     10  C   UNL     1      31.969 -11.804 -21.361  0.00  0.00    +0.156 C 
ATOM     11  C   UNL     1      32.058  -9.447 -20.764  0.00  0.00    +0.066 C 
ATOM     12  C   UNL     1      32.510 -10.182 -23.057  0.00  0.00    +0.044 C 
ATOM     13  C   UNL     1      31.842 -10.779 -20.416  0.00  0.00    +0.112 C 
ATOM     14  C   UNL     1      32.594  -7.816 -22.401  0.00  0.00    +0.131 C 
ATOM     15  C   UNL     1      33.407 -12.495 -24.539  0.00  0.00    +0.237 C 
ATOM     16  C   UNL     1      32.412 -13.577 -19.881  0.00  0.00    +0.237 C 
ATOM     17  C   UNL     1      33.877 -13.925 -24.773  0.00  0.00    +0.189 C 
ATOM     18  C   UNL     1      32.757 -15.049 -20.085  0.00  0.00    +0.189 C 
ATOM     19  C   UNL     1      34.531 -15.671 -23.271  0.00  0.00    +0.174 C 
ATOM     20  C   UNL     1      33.396 -15.794 -22.262  0.00  0.00    +0.174 C 
ATOM     21  C   UNL     1      32.162  -7.212 -20.264  0.00  0.00    +0.252 C 
ATOM     22  H   UNL     1      33.443  -8.134 -24.214  0.00  0.00    +0.154 HD
ENDROOT
BRANCH   5  23
ATOM     23  C   UNL     1      32.686  -6.288 -24.481  0.00  0.00    +0.050 C 
ATOM     24  C   UNL     1      33.590  -5.889 -25.466  0.00  0.00    +0.023 C 
ATOM     25  C   UNL     1      31.534  -5.538 -24.245  0.00  0.00    +0.015 C 
ATOM     26  C   UNL     1      33.341  -4.739 -26.215  0.00  0.00    +0.044 C 
ATOM     27  C   UNL     1      31.286  -4.388 -24.995  0.00  0.00    +0.002 C 
ATOM     28  C   UNL     1      32.190  -3.988 -25.979  0.00  0.00    +0.008 C 
BRANCH  26  29
ATOM     29  C   UNL     1      34.267  -4.330 -27.223  0.00  0.00    -0.051 C 
ATOM     30  C   UNL     1      35.047  -3.986 -28.070  0.00  0.00    -0.009 C 
ENDBRANCH  26  29
ENDBRANCH   5  23
TORSDOF 2
ENDMDL
MODEL 3
REMARK VINA RESULT:      -9.3      4.144     10.500
REMARK  Name = 22024915
REMARK  2 active torsions:
REMARK  status: ('A' for Active; 'I' for Inactive)
REMARK    1  A    between atoms: N_5  and  C_23
REMARK    2  A    between atoms: C_26  and  C_29
REMARK                            x       y       z     vdW  Elec       q    Type
REMARK                         _______ _______ _______ _____ _____    ______ ____
ROOT
ATOM      1  O   UNL     1      32.247 -12.299 -23.521  0.00  0.00    -0.470 OA
ATOM      2  O   UNL     1      31.671 -13.051 -21.065  0.00  0.00    -0.474 OA
ATOM      3  O   UNL     1      34.560 -14.018 -23.828  0.00  0.00    -0.347 OA
ATOM      4  O   UNL     1      33.744 -15.058 -21.276  0.00  0.00    -0.347 OA
ATOM      5  N   UNL     1      32.791  -7.181 -23.315  0.00  0.00    -0.298 N 
ATOM      6  N   UNL     1      31.901  -8.512 -19.499  0.00  0.00    -0.248 NA
ATOM      7  N   UNL     1      32.400  -6.728 -21.040  0.00  0.00    -0.230 NA
ATOM      8  C   UNL     1      32.296  -9.018 -21.810  0.00  0.00    +0.048 C 
ATOM      9  C   UNL     1      32.197 -11.313 -22.575  0.00  0.00    +0.169 C 
ATOM     10  C   UNL     1      31.896 -11.714 -21.272  0.00  0.00    +0.156 C 
ATOM     11  C   UNL     1      31.997  -9.410 -20.495  0.00  0.00    +0.066 C 
ATOM     12  C   UNL     1      32.389  -9.962 -22.849  0.00  0.00    +0.044 C 
ATOM     13  C   UNL     1      31.792 -10.766 -20.247  0.00  0.00    +0.112 C 
ATOM     14  C   UNL     1      32.486  -7.654 -22.014  0.00  0.00    +0.131 C 
ATOM     15  C   UNL     1      33.253 -12.149 -24.530  0.00  0.00    +0.237 C 
ATOM     16  C   UNL     1      32.382 -13.595 -19.947  0.00  0.00    +0.237 C 
ATOM     17  C   UNL     1      33.720 -13.554 -24.888  0.00  0.00    +0.189 C 
ATOM     18  C   UNL     1      32.724 -15.045 -20.274  0.00  0.00    +0.189 C 
ATOM     19  C   UNL     1      34.416 -15.409 -23.544  0.00  0.00    +0.174 C 
ATOM     20  C   UNL     1      33.308 -15.615 -22.518  0.00  0.00    +0.174 C 
ATOM     21  C   UNL     1      32.109  -7.220 -19.825  0.00  0.00    +0.252 C 
ATOM     22  H   UNL     1      33.288  -7.827 -23.867  0.00  0.00    +0.154 HD
ENDROOT
BRANCH   5  23
ATOM     23  C   UNL     1      32.520  -5.968 -23.969  0.00  0.00    +0.050 C 
ATOM     24  C   UNL     1      31.875  -4.936 -23.288  0.00  0.00    +0.023 C 
ATOM     25  C   UNL     1      32.899  -5.796 -25.301  0.00  0.00    +0.015 C 
ATOM     26  C   UNL     1      31.608  -3.732 -23.939  0.00  0.00    +0.044 C 
ATOM     27  C   UNL     1      32.631  -4.592 -25.951  0.00  0.00    +0.002 C 
ATOM     28  C   UNL     1      31.985  -3.559 -25.270  0.00  0.00    +0.008 C 
BRANCH  26  29
ATOM     29  C   UNL     1      30.946  -2.675 -23.241  0.00  0.00    -0.051 C 
ATOM     30  C   UNL     1      30.390  -1.786 -22.655  0.00  0.00    -0.009 C 
ENDBRANCH  26  29
ENDBRANCH   5  23
TORSDOF 2
ENDMDL
MODEL 4
REMARK VINA RESULT:      -8.7      3.582      8.875
REMARK  Name = 22024915
REMARK  2 active torsions:
REMARK  status: ('A' for Active; 'I' for Inactive)
REMARK    1  A    between atoms: N_5  and  C_23
REMARK    2  A    between atoms: C_26  and  C_29
REMARK                            x       y       z     vdW  Elec       q    Type
REMARK                         _______ _______ _______ _____ _____    ______ ____
ROOT
ATOM      1  O   UNL     1      35.318 -16.016 -22.530  0.00  0.00    -0.470 OA
ATOM      2  O   UNL     1      35.193 -17.527 -24.682  0.00  0.00    -0.474 OA
ATOM      3  O   UNL     1      33.779 -17.787 -20.828  0.00  0.00    -0.347 OA
ATOM      4  O   UNL     1      33.912 -19.568 -23.080  0.00  0.00    -0.347 OA
ATOM      5  N   UNL     1      33.430 -11.435 -23.939  0.00  0.00    -0.298 N 
ATOM      6  N   UNL     1      33.273 -13.935 -27.233  0.00  0.00    -0.248 NA
ATOM      7  N   UNL     1      32.888 -11.793 -26.199  0.00  0.00    -0.230 NA
ATOM      8  C   UNL     1      33.838 -13.614 -24.924  0.00  0.00    +0.048 C 
ATOM      9  C   UNL     1      34.785 -15.443 -23.650  0.00  0.00    +0.169 C 
ATOM     10  C   UNL     1      34.714 -16.247 -24.790  0.00  0.00    +0.156 C 
ATOM     11  C   UNL     1      33.761 -14.415 -26.076  0.00  0.00    +0.066 C 
ATOM     12  C   UNL     1      34.354 -14.120 -23.717  0.00  0.00    +0.044 C 
ATOM     13  C   UNL     1      34.212 -15.730 -25.990  0.00  0.00    +0.112 C 
ATOM     14  C   UNL     1      33.383 -12.305 -25.057  0.00  0.00    +0.131 C 
ATOM     15  C   UNL     1      34.716 -15.640 -21.285  0.00  0.00    +0.237 C 
ATOM     16  C   UNL     1      34.309 -18.526 -25.205  0.00  0.00    +0.237 C 
ATOM     17  C   UNL     1      34.781 -16.867 -20.385  0.00  0.00    +0.189 C 
ATOM     18  C   UNL     1      34.487 -19.789 -24.369  0.00  0.00    +0.189 C 
ATOM     19  C   UNL     1      34.172 -19.156 -20.738  0.00  0.00    +0.174 C 
ATOM     20  C   UNL     1      34.876 -19.577 -22.023  0.00  0.00    +0.174 C 
ATOM     21  C   UNL     1      32.863 -12.650 -27.232  0.00  0.00    +0.252 C 
ATOM     22  H   UNL     1      33.338 -11.895 -23.073  0.00  0.00    +0.154 HD
ENDROOT
BRANCH   5  23
ATOM     23  C   UNL     1      33.585 -10.044 -23.826  0.00  0.00    +0.050 C 
ATOM     24  C   UNL     1      32.507  -9.252 -23.430  0.00  0.00    +0.023 C 
ATOM     25  C   UNL     1      34.817  -9.455 -24.110  0.00  0.00    +0.015 C 
ATOM     26  C   UNL     1      32.662  -7.870 -23.318  0.00  0.00    +0.044 C 
ATOM     27  C   UNL     1      34.971  -8.074 -23.997  0.00  0.00    +0.002 C 
ATOM     28  C   UNL     1      33.893  -7.281 -23.602  0.00  0.00    +0.008 C 
BRANCH  26  29
ATOM     29  C   UNL     1      31.557  -7.059 -22.913  0.00  0.00    -0.051 C 
ATOM     30  C   UNL     1      30.630  -6.376 -22.573  0.00  0.00    -0.009 C 
ENDBRANCH  26  29
ENDBRANCH   5  23
TORSDOF 2
ENDMDL
