MODEL 1
REMARK VINA RESULT:      -8.3      0.000      0.000
REMARK  Name = 39187
REMARK  4 active torsions:
REMARK  status: ('A' for Active; 'I' for Inactive)
REMARK    1  A    between atoms: N_2  and  C_15
REMARK    2  A    between atoms: C_3  and  C_17
REMARK    3  A    between atoms: C_17  and  C_18
REMARK    4  A    between atoms: C_18  and  N_19
REMARK                            x       y       z     vdW  Elec       q    Type
REMARK                         _______ _______ _______ _____ _____    ______ ____
ROOT
ATOM      1  S   UNL     1      33.335 -13.532 -25.919  0.00  0.00    -0.136 S 
ATOM      2  N   UNL     1      34.248 -15.256 -22.321  0.00  0.00    -0.330 N 
ATOM      3  C   UNL     1      33.370 -13.640 -24.063  0.00  0.00    +0.070 C 
ATOM      4  C   UNL     1      33.904 -14.978 -23.622  0.00  0.00    +0.042 A 
ATOM      5  C   UNL     1      34.109 -16.133 -24.361  0.00  0.00    -0.007 A 
ATOM      6  C   UNL     1      33.848 -16.258 -25.824  0.00  0.00    +0.039 C 
ATOM      7  C   UNL     1      34.616 -17.130 -23.473  0.00  0.00    +0.013 A 
ATOM      8  C   UNL     1      34.690 -16.553 -22.204  0.00  0.00    +0.059 A 
ATOM      9  C   UNL     1      32.828 -15.238 -26.329  0.00  0.00    +0.063 C 
ATOM     10  C   UNL     1      31.939 -13.436 -23.545  0.00  0.00    +0.017 C 
ATOM     11  C   UNL     1      35.019 -18.473 -23.627  0.00  0.00    +0.001 C 
ATOM     12  C   UNL     1      35.147 -17.251 -21.080  0.00  0.00    +0.017 C 
ATOM     13  C   UNL     1      35.477 -19.184 -22.512  0.00  0.00    +0.000 C 
ATOM     14  C   UNL     1      35.539 -18.580 -21.259  0.00  0.00    +0.001 C 
ENDROOT
BRANCH   2  15
ATOM     15  C   UNL     1      34.118 -14.374 -21.179  0.00  0.00    +0.106 C 
ATOM     16  C   UNL     1      32.856 -14.650 -20.380  0.00  0.00    +0.026 C 
ENDBRANCH   2  15
BRANCH   3  17
ATOM     17  C   UNL     1      34.271 -12.493 -23.582  0.00  0.00    -0.007 C 
BRANCH  17  18
ATOM     18  C   UNL     1      33.843 -11.174 -24.207  0.00  0.00    -0.076 C 
BRANCH  18  19
ATOM     19  N   UNL     1      35.008 -10.318 -24.394  0.00  0.00    +0.384 N 
ATOM     20  C   UNL     1      34.706  -8.942 -24.002  0.00  0.00    -0.101 C 
ATOM     21  C   UNL     1      35.461 -10.362 -25.787  0.00  0.00    -0.101 C 
ATOM     22  H   UNL     1      35.759 -10.669 -23.799  0.00  0.00    -0.080 HD
ENDBRANCH  18  19
ENDBRANCH  17  18
ENDBRANCH   3  17
TORSDOF 4
ENDMDL
MODEL 2
REMARK VINA RESULT:      -7.4      2.450      6.459
REMARK  Name = 39187
REMARK  4 active torsions:
REMARK  status: ('A' for Active; 'I' for Inactive)
REMARK    1  A    between atoms: N_2  and  C_15
REMARK    2  A    between atoms: C_3  and  C_17
REMARK    3  A    between atoms: C_17  and  C_18
REMARK    4  A    between atoms: C_18  and  N_19
REMARK                            x       y       z     vdW  Elec       q    Type
REMARK                         _______ _______ _______ _____ _____    ______ ____
ROOT
ATOM      1  S   UNL     1      34.588 -19.617 -23.500  0.00  0.00    -0.136 S 
ATOM      2  N   UNL     1      34.402 -15.659 -22.474  0.00  0.00    -0.330 N 
ATOM      3  C   UNL     1      34.907 -18.141 -22.415  0.00  0.00    +0.070 C 
ATOM      4  C   UNL     1      34.488 -16.873 -23.113  0.00  0.00    +0.042 A 
ATOM      5  C   UNL     1      34.166 -16.664 -24.445  0.00  0.00    -0.007 A 
ATOM      6  C   UNL     1      34.147 -17.730 -25.487  0.00  0.00    +0.039 C 
ATOM      7  C   UNL     1      33.853 -15.279 -24.602  0.00  0.00    +0.013 A 
ATOM      8  C   UNL     1      34.010 -14.677 -23.353  0.00  0.00    +0.059 A 
ATOM      9  C   UNL     1      35.036 -18.920 -25.128  0.00  0.00    +0.063 C 
ATOM     10  C   UNL     1      36.406 -18.103 -22.088  0.00  0.00    +0.017 C 
ATOM     11  C   UNL     1      33.450 -14.478 -25.691  0.00  0.00    +0.001 C 
ATOM     12  C   UNL     1      33.787 -13.312 -23.137  0.00  0.00    +0.017 C 
ATOM     13  C   UNL     1      33.223 -13.112 -25.490  0.00  0.00    +0.000 C 
ATOM     14  C   UNL     1      33.389 -12.540 -24.232  0.00  0.00    +0.001 C 
ENDROOT
BRANCH   2  15
ATOM     15  C   UNL     1      34.731 -15.378 -21.092  0.00  0.00    +0.106 C 
ATOM     16  C   UNL     1      33.502 -15.036 -20.266  0.00  0.00    +0.026 C 
ENDBRANCH   2  15
BRANCH   3  17
ATOM     17  C   UNL     1      34.094 -18.366 -21.131  0.00  0.00    -0.007 C 
BRANCH  17  18
ATOM     18  C   UNL     1      33.634 -19.813 -21.033  0.00  0.00    -0.076 C 
BRANCH  18  19
ATOM     19  N   UNL     1      34.190 -20.423 -19.831  0.00  0.00    +0.384 N 
ATOM     20  C   UNL     1      35.559 -20.880 -20.070  0.00  0.00    -0.101 C 
ATOM     21  C   UNL     1      33.352 -21.540 -19.387  0.00  0.00    -0.101 C 
ATOM     22  H   UNL     1      34.206 -19.718 -19.094  0.00  0.00    -0.080 HD
ENDBRANCH  18  19
ENDBRANCH  17  18
ENDBRANCH   3  17
TORSDOF 4
ENDMDL
MODEL 3
REMARK VINA RESULT:      -7.2      8.714     12.461
REMARK  Name = 39187
REMARK  4 active torsions:
REMARK  status: ('A' for Active; 'I' for Inactive)
REMARK    1  A    between atoms: N_2  and  C_15
REMARK    2  A    between atoms: C_3  and  C_17
REMARK    3  A    between atoms: C_17  and  C_18
REMARK    4  A    between atoms: C_18  and  N_19
REMARK                            x       y       z     vdW  Elec       q    Type
REMARK                         _______ _______ _______ _____ _____    ______ ____
ROOT
ATOM      1  S   UNL     1      32.707 -24.106 -14.194  0.00  0.00    -0.136 S 
ATOM      2  N   UNL     1      35.532 -22.774 -16.839  0.00  0.00    -0.330 N 
ATOM      3  C   UNL     1      34.423 -23.960 -14.894  0.00  0.00    +0.070 C 
ATOM      4  C   UNL     1      34.397 -23.220 -16.207  0.00  0.00    +0.042 A 
ATOM      5  C   UNL     1      33.318 -22.895 -17.013  0.00  0.00    -0.007 A 
ATOM      6  C   UNL     1      31.896 -23.212 -16.693  0.00  0.00    +0.039 C 
ATOM      7  C   UNL     1      33.825 -22.207 -18.158  0.00  0.00    +0.013 A 
ATOM      8  C   UNL     1      35.213 -22.148 -18.021  0.00  0.00    +0.059 A 
ATOM      9  C   UNL     1      31.759 -24.389 -15.729  0.00  0.00    +0.063 C 
ATOM     10  C   UNL     1      34.983 -25.376 -15.087  0.00  0.00    +0.017 C 
ATOM     11  C   UNL     1      33.236 -21.628 -19.301  0.00  0.00    +0.001 C 
ATOM     12  C   UNL     1      36.043 -21.540 -18.971  0.00  0.00    +0.017 C 
ATOM     13  C   UNL     1      34.053 -21.017 -20.259  0.00  0.00    +0.000 C 
ATOM     14  C   UNL     1      35.434 -20.975 -20.094  0.00  0.00    +0.001 C 
ENDROOT
BRANCH   2  15
ATOM     15  C   UNL     1      36.901 -22.966 -16.407  0.00  0.00    +0.106 C 
ATOM     16  C   UNL     1      37.600 -21.651 -16.107  0.00  0.00    +0.026 C 
ENDBRANCH   2  15
BRANCH   3  17
ATOM     17  C   UNL     1      35.253 -23.205 -13.845  0.00  0.00    -0.007 C 
BRANCH  17  18
ATOM     18  C   UNL     1      36.034 -24.178 -12.975  0.00  0.00    -0.076 C 
BRANCH  18  19
ATOM     19  N   UNL     1      37.424 -23.749 -12.885  0.00  0.00    +0.384 N 
ATOM     20  C   UNL     1      38.314 -24.904 -12.761  0.00  0.00    -0.101 C 
ATOM     21  C   UNL     1      37.611 -22.839 -11.752  0.00  0.00    -0.101 C 
ATOM     22  H   UNL     1      37.659 -23.249 -13.744  0.00  0.00    -0.080 HD
ENDBRANCH  18  19
ENDBRANCH  17  18
ENDBRANCH   3  17
TORSDOF 4
ENDMDL
MODEL 4
REMARK VINA RESULT:      -7.2      4.025      6.797
REMARK  Name = 39187
REMARK  4 active torsions:
REMARK  status: ('A' for Active; 'I' for Inactive)
REMARK    1  A    between atoms: N_2  and  C_15
REMARK    2  A    between atoms: C_3  and  C_17
REMARK    3  A    between atoms: C_17  and  C_18
REMARK    4  A    between atoms: C_18  and  N_19
REMARK                            x       y       z     vdW  Elec       q    Type
REMARK                         _______ _______ _______ _____ _____    ______ ____
ROOT
ATOM      1  S   UNL     1      31.964  -6.609 -21.418  0.00  0.00    -0.136 S 
ATOM      2  N   UNL     1      32.749 -10.222 -23.172  0.00  0.00    -0.330 N 
ATOM      3  C   UNL     1      32.686  -7.732 -22.712  0.00  0.00    +0.070 C 
ATOM      4  C   UNL     1      32.512  -9.175 -22.315  0.00  0.00    +0.042 A 
ATOM      5  C   UNL     1      32.148  -9.715 -21.092  0.00  0.00    -0.007 A 
ATOM      6  C   UNL     1      31.813  -8.914 -19.879  0.00  0.00    +0.039 C 
ATOM      7  C   UNL     1      32.143 -11.137 -21.231  0.00  0.00    +0.013 A 
ATOM      8  C   UNL     1      32.524 -11.424 -22.542  0.00  0.00    +0.059 A 
ATOM      9  C   UNL     1      32.435  -7.519 -19.906  0.00  0.00    +0.063 C 
ATOM     10  C   UNL     1      34.176  -7.393 -22.862  0.00  0.00    +0.017 C 
ATOM     11  C   UNL     1      31.851 -12.211 -20.364  0.00  0.00    +0.001 C 
ATOM     12  C   UNL     1      32.630 -12.731 -23.032  0.00  0.00    +0.017 C 
ATOM     13  C   UNL     1      31.952 -13.523 -20.839  0.00  0.00    +0.000 C 
ATOM     14  C   UNL     1      32.336 -13.776 -22.153  0.00  0.00    +0.001 C 
ENDROOT
BRANCH   2  15
ATOM     15  C   UNL     1      33.234 -10.139 -24.535  0.00  0.00    +0.106 C 
ATOM     16  C   UNL     1      34.735 -10.358 -24.625  0.00  0.00    +0.026 C 
ENDBRANCH   2  15
BRANCH   3  17
ATOM     17  C   UNL     1      31.942  -7.419 -24.018  0.00  0.00    -0.007 C 
BRANCH  17  18
ATOM     18  C   UNL     1      30.973  -6.263 -23.821  0.00  0.00    -0.076 C 
BRANCH  18  19
ATOM     19  N   UNL     1      31.267  -5.206 -24.781  0.00  0.00    +0.384 N 
ATOM     20  C   UNL     1      32.559  -5.440 -25.426  0.00  0.00    -0.101 C 
ATOM     21  C   UNL     1      31.256  -3.897 -24.125  0.00  0.00    -0.101 C 
ATOM     22  H   UNL     1      30.540  -5.216 -25.497  0.00  0.00    -0.080 HD
ENDBRANCH  18  19
ENDBRANCH  17  18
ENDBRANCH   3  17
TORSDOF 4
ENDMDL
MODEL 5
REMARK VINA RESULT:      -6.6      3.270      5.246
REMARK  Name = 39187
REMARK  4 active torsions:
REMARK  status: ('A' for Active; 'I' for Inactive)
REMARK    1  A    between atoms: N_2  and  C_15
REMARK    2  A    between atoms: C_3  and  C_17
REMARK    3  A    between atoms: C_17  and  C_18
REMARK    4  A    between atoms: C_18  and  N_19
REMARK                            x       y       z     vdW  Elec       q    Type
REMARK                         _______ _______ _______ _____ _____    ______ ____
ROOT
ATOM      1  S   UNL     1      34.383  -8.122 -24.210  0.00  0.00    -0.136 S 
ATOM      2  N   UNL     1      32.232 -11.081 -22.374  0.00  0.00    -0.330 N 
ATOM      3  C   UNL     1      32.923  -8.825 -23.299  0.00  0.00    +0.070 C 
ATOM      4  C   UNL     1      33.045 -10.323 -23.182  0.00  0.00    +0.042 A 
ATOM      5  C   UNL     1      33.902 -11.191 -23.838  0.00  0.00    -0.007 A 
ATOM      6  C   UNL     1      34.944 -10.771 -24.819  0.00  0.00    +0.039 C 
ATOM      7  C   UNL     1      33.607 -12.514 -23.388  0.00  0.00    +0.013 A 
ATOM      8  C   UNL     1      32.557 -12.413 -22.474  0.00  0.00    +0.059 A 
ATOM      9  C   UNL     1      34.632  -9.423 -25.467  0.00  0.00    +0.063 C 
ATOM     10  C   UNL     1      31.650  -8.450 -24.072  0.00  0.00    +0.017 C 
ATOM     11  C   UNL     1      34.132 -13.792 -23.671  0.00  0.00    +0.001 C 
ATOM     12  C   UNL     1      32.004 -13.526 -21.829  0.00  0.00    +0.017 C 
ATOM     13  C   UNL     1      33.590 -14.914 -23.035  0.00  0.00    +0.000 C 
ATOM     14  C   UNL     1      32.542 -14.780 -22.128  0.00  0.00    +0.001 C 
ENDROOT
BRANCH   2  15
ATOM     15  C   UNL     1      31.127 -10.609 -21.564  0.00  0.00    +0.106 C 
ATOM     16  C   UNL     1      31.398 -10.764 -20.077  0.00  0.00    +0.026 C 
ENDBRANCH   2  15
BRANCH   3  17
ATOM     17  C   UNL     1      32.915  -8.156 -21.916  0.00  0.00    -0.007 C 
BRANCH  17  18
ATOM     18  C   UNL     1      32.889  -6.641 -22.052  0.00  0.00    -0.076 C 
BRANCH  18  19
ATOM     19  N   UNL     1      32.065  -6.068 -20.994  0.00  0.00    +0.384 N 
ATOM     20  C   UNL     1      31.907  -7.017 -19.892  0.00  0.00    -0.101 C 
ATOM     21  C   UNL     1      30.755  -5.676 -21.518  0.00  0.00    -0.101 C 
ATOM     22  H   UNL     1      32.535  -5.234 -20.642  0.00  0.00    -0.080 HD
ENDBRANCH  18  19
ENDBRANCH  17  18
ENDBRANCH   3  17
TORSDOF 4
ENDMDL
MODEL 6
REMARK VINA RESULT:      -6.5      2.134      7.176
REMARK  Name = 39187
REMARK  4 active torsions:
REMARK  status: ('A' for Active; 'I' for Inactive)
REMARK    1  A    between atoms: N_2  and  C_15
REMARK    2  A    between atoms: C_3  and  C_17
REMARK    3  A    between atoms: C_17  and  C_18
REMARK    4  A    between atoms: C_18  and  N_19
REMARK                            x       y       z     vdW  Elec       q    Type
REMARK                         _______ _______ _______ _____ _____    ______ ____
ROOT
ATOM      1  S   UNL     1      31.985 -13.147 -21.143  0.00  0.00    -0.136 S 
ATOM      2  N   UNL     1      33.859 -10.811 -23.932  0.00  0.00    -0.330 N 
ATOM      3  C   UNL     1      32.849 -12.814 -22.755  0.00  0.00    +0.070 C 
ATOM      4  C   UNL     1      33.058 -11.334 -22.946  0.00  0.00    +0.042 A 
ATOM      5  C   UNL     1      32.502 -10.268 -22.255  0.00  0.00    -0.007 A 
ATOM      6  C   UNL     1      31.561 -10.404 -21.107  0.00  0.00    +0.039 C 
ATOM      7  C   UNL     1      33.009  -9.065 -22.835  0.00  0.00    +0.013 A 
ATOM      8  C   UNL     1      33.854  -9.437 -23.882  0.00  0.00    +0.059 A 
ATOM      9  C   UNL     1      30.820 -11.740 -21.108  0.00  0.00    +0.063 C 
ATOM     10  C   UNL     1      31.984 -13.384 -23.888  0.00  0.00    +0.017 C 
ATOM     11  C   UNL     1      32.830  -7.692 -22.569  0.00  0.00    +0.001 C 
ATOM     12  C   UNL     1      34.528  -8.504 -24.679  0.00  0.00    +0.017 C 
ATOM     13  C   UNL     1      33.497  -6.747 -23.357  0.00  0.00    +0.000 C 
ATOM     14  C   UNL     1      34.333  -7.150 -24.395  0.00  0.00    +0.001 C 
ENDROOT
BRANCH   2  15
ATOM     15  C   UNL     1      34.576 -11.548 -24.953  0.00  0.00    +0.106 C 
ATOM     16  C   UNL     1      33.733 -11.778 -26.195  0.00  0.00    +0.026 C 
ENDBRANCH   2  15
BRANCH   3  17
ATOM     17  C   UNL     1      34.188 -13.563 -22.688  0.00  0.00    -0.007 C 
BRANCH  17  18
ATOM     18  C   UNL     1      34.096 -14.897 -23.413  0.00  0.00    -0.076 C 
BRANCH  18  19
ATOM     19  N   UNL     1      34.997 -15.858 -22.789  0.00  0.00    +0.384 N 
ATOM     20  C   UNL     1      34.949 -17.141 -23.491  0.00  0.00    -0.101 C 
ATOM     21  C   UNL     1      34.658 -16.039 -21.376  0.00  0.00    -0.101 C 
ATOM     22  H   UNL     1      35.946 -15.489 -22.850  0.00  0.00    -0.080 HD
ENDBRANCH  18  19
ENDBRANCH  17  18
ENDBRANCH   3  17
TORSDOF 4
ENDMDL
MODEL 7
REMARK VINA RESULT:      -6.4      4.780     10.032
REMARK  Name = 39187
REMARK  4 active torsions:
REMARK  status: ('A' for Active; 'I' for Inactive)
REMARK    1  A    between atoms: N_2  and  C_15
REMARK    2  A    between atoms: C_3  and  C_17
REMARK    3  A    between atoms: C_17  and  C_18
REMARK    4  A    between atoms: C_18  and  N_19
REMARK                            x       y       z     vdW  Elec       q    Type
REMARK                         _______ _______ _______ _____ _____    ______ ____
ROOT
ATOM      1  S   UNL     1      34.044  -9.048 -23.402  0.00  0.00    -0.136 S 
ATOM      2  N   UNL     1      31.365  -5.955 -23.518  0.00  0.00    -0.330 N 
ATOM      3  C   UNL     1      32.664  -7.988 -22.745  0.00  0.00    +0.070 C 
ATOM      4  C   UNL     1      32.451  -6.789 -23.631  0.00  0.00    +0.042 A 
ATOM      5  C   UNL     1      33.257  -6.284 -24.640  0.00  0.00    -0.007 A 
ATOM      6  C   UNL     1      34.547  -6.892 -25.077  0.00  0.00    +0.039 C 
ATOM      7  C   UNL     1      32.616  -5.120 -25.164  0.00  0.00    +0.013 A 
ATOM      8  C   UNL     1      31.436  -4.939 -24.441  0.00  0.00    +0.059 A 
ATOM      9  C   UNL     1      35.189  -7.752 -23.990  0.00  0.00    +0.063 C 
ATOM     10  C   UNL     1      33.037  -7.545 -21.323  0.00  0.00    +0.017 C 
ATOM     11  C   UNL     1      32.927  -4.199 -26.186  0.00  0.00    +0.001 C 
ATOM     12  C   UNL     1      30.551  -3.883 -24.688  0.00  0.00    +0.017 C 
ATOM     13  C   UNL     1      32.052  -3.138 -26.445  0.00  0.00    +0.000 C 
ATOM     14  C   UNL     1      30.883  -2.985 -25.705  0.00  0.00    +0.001 C 
ENDROOT
BRANCH   2  15
ATOM     15  C   UNL     1      30.300  -6.042 -22.539  0.00  0.00    +0.106 C 
ATOM     16  C   UNL     1      30.478  -5.045 -21.406  0.00  0.00    +0.026 C 
ENDBRANCH   2  15
BRANCH   3  17
ATOM     17  C   UNL     1      31.416  -8.882 -22.706  0.00  0.00    -0.007 C 
BRANCH  17  18
ATOM     18  C   UNL     1      31.782 -10.331 -22.989  0.00  0.00    -0.076 C 
BRANCH  18  19
ATOM     19  N   UNL     1      31.115 -11.202 -22.029  0.00  0.00    +0.384 N 
ATOM     20  C   UNL     1      31.089 -10.585 -20.703  0.00  0.00    -0.101 C 
ATOM     21  C   UNL     1      31.778 -12.506 -21.969  0.00  0.00    -0.101 C 
ATOM     22  H   UNL     1      30.154 -11.342 -22.342  0.00  0.00    -0.080 HD
ENDBRANCH  18  19
ENDBRANCH  17  18
ENDBRANCH   3  17
TORSDOF 4
ENDMDL
MODEL 8
REMARK VINA RESULT:      -6.1     11.011     13.681
REMARK  Name = 39187
REMARK  4 active torsions:
REMARK  status: ('A' for Active; 'I' for Inactive)
REMARK    1  A    between atoms: N_2  and  C_15
REMARK    2  A    between atoms: C_3  and  C_17
REMARK    3  A    between atoms: C_17  and  C_18
REMARK    4  A    between atoms: C_18  and  N_19
REMARK                            x       y       z     vdW  Elec       q    Type
REMARK                         _______ _______ _______ _____ _____    ______ ____
ROOT
ATOM      1  S   UNL     1      37.836 -23.280 -16.019  0.00  0.00    -0.136 S 
ATOM      2  N   UNL     1      34.196 -24.109 -14.341  0.00  0.00    -0.330 N 
ATOM      3  C   UNL     1      36.687 -23.754 -14.636  0.00  0.00    +0.070 C 
ATOM      4  C   UNL     1      35.251 -23.621 -15.073  0.00  0.00    +0.042 A 
ATOM      5  C   UNL     1      34.725 -22.995 -16.192  0.00  0.00    -0.007 A 
ATOM      6  C   UNL     1      35.538 -22.323 -17.247  0.00  0.00    +0.039 C 
ATOM      7  C   UNL     1      33.304 -23.135 -16.138  0.00  0.00    +0.013 A 
ATOM      8  C   UNL     1      33.003 -23.835 -14.969  0.00  0.00    +0.059 A 
ATOM      9  C   UNL     1      36.909 -21.880 -16.738  0.00  0.00    +0.063 C 
ATOM     10  C   UNL     1      36.971 -22.833 -13.441  0.00  0.00    +0.017 C 
ATOM     11  C   UNL     1      32.242 -22.733 -16.974  0.00  0.00    +0.001 C 
ATOM     12  C   UNL     1      31.693 -24.152 -14.591  0.00  0.00    +0.017 C 
ATOM     13  C   UNL     1      30.926 -23.042 -16.610  0.00  0.00    +0.000 C 
ATOM     14  C   UNL     1      30.659 -23.741 -15.436  0.00  0.00    +0.001 C 
ENDROOT
BRANCH   2  15
ATOM     15  C   UNL     1      34.262 -24.765 -13.051  0.00  0.00    +0.106 C 
ATOM     16  C   UNL     1      34.382 -23.772 -11.907  0.00  0.00    +0.026 C 
ENDBRANCH   2  15
BRANCH   3  17
ATOM     17  C   UNL     1      37.027 -25.207 -14.272  0.00  0.00    -0.007 C 
BRANCH  17  18
ATOM     18  C   UNL     1      38.292 -25.659 -14.987  0.00  0.00    -0.076 C 
BRANCH  18  19
ATOM     19  N   UNL     1      39.250 -26.168 -14.015  0.00  0.00    +0.384 N 
ATOM     20  C   UNL     1      38.871 -25.771 -12.659  0.00  0.00    -0.101 C 
ATOM     21  C   UNL     1      40.600 -25.692 -14.325  0.00  0.00    -0.101 C 
ATOM     22  H   UNL     1      39.247 -27.187 -14.068  0.00  0.00    -0.080 HD
ENDBRANCH  18  19
ENDBRANCH  17  18
ENDBRANCH   3  17
TORSDOF 4
ENDMDL
MODEL 9
REMARK VINA RESULT:      -6.0      2.530      6.294
REMARK  Name = 39187
REMARK  4 active torsions:
REMARK  status: ('A' for Active; 'I' for Inactive)
REMARK    1  A    between atoms: N_2  and  C_15
REMARK    2  A    between atoms: C_3  and  C_17
REMARK    3  A    between atoms: C_17  and  C_18
REMARK    4  A    between atoms: C_18  and  N_19
REMARK                            x       y       z     vdW  Elec       q    Type
REMARK                         _______ _______ _______ _____ _____    ______ ____
ROOT
ATOM      1  S   UNL     1      34.627 -18.384 -24.802  0.00  0.00    -0.136 S 
ATOM      2  N   UNL     1      33.609 -15.814 -21.784  0.00  0.00    -0.330 N 
ATOM      3  C   UNL     1      34.617 -17.763 -23.049  0.00  0.00    +0.070 C 
ATOM      4  C   UNL     1      33.954 -16.412 -22.971  0.00  0.00    +0.042 A 
ATOM      5  C   UNL     1      33.615 -15.536 -23.991  0.00  0.00    -0.007 A 
ATOM      6  C   UNL     1      33.832 -15.803 -25.442  0.00  0.00    +0.039 C 
ATOM      7  C   UNL     1      33.023 -14.383 -23.391  0.00  0.00    +0.013 A 
ATOM      8  C   UNL     1      33.035 -14.585 -22.010  0.00  0.00    +0.059 A 
ATOM      9  C   UNL     1      34.943 -16.821 -25.693  0.00  0.00    +0.063 C 
ATOM     10  C   UNL     1      36.071 -17.675 -22.565  0.00  0.00    +0.017 C 
ATOM     11  C   UNL     1      32.479 -13.182 -23.892  0.00  0.00    +0.001 C 
ATOM     12  C   UNL     1      32.530 -13.646 -21.103  0.00  0.00    +0.017 C 
ATOM     13  C   UNL     1      31.970 -12.233 -22.997  0.00  0.00    +0.000 C 
ATOM     14  C   UNL     1      31.996 -12.464 -21.625  0.00  0.00    +0.001 C 
ENDROOT
BRANCH   2  15
ATOM     15  C   UNL     1      33.853 -16.323 -20.450  0.00  0.00    +0.106 C 
ATOM     16  C   UNL     1      34.996 -15.600 -19.758  0.00  0.00    +0.026 C 
ENDBRANCH   2  15
BRANCH   3  17
ATOM     17  C   UNL     1      33.851 -18.809 -22.226  0.00  0.00    -0.007 C 
BRANCH  17  18
ATOM     18  C   UNL     1      34.802 -19.859 -21.671  0.00  0.00    -0.076 C 
BRANCH  18  19
ATOM     19  N   UNL     1      34.501 -20.099 -20.265  0.00  0.00    +0.384 N 
ATOM     20  C   UNL     1      35.412 -21.097 -19.705  0.00  0.00    -0.101 C 
ATOM     21  C   UNL     1      33.112 -20.531 -20.102  0.00  0.00    -0.101 C 
ATOM     22  H   UNL     1      34.629 -19.222 -19.758  0.00  0.00    -0.080 HD
ENDBRANCH  18  19
ENDBRANCH  17  18
ENDBRANCH   3  17
TORSDOF 4
ENDMDL
