MODEL 1
REMARK VINA RESULT:     -11.8      0.000      0.000
REMARK  Name = 24883488
REMARK  8 active torsions:
REMARK  status: ('A' for Active; 'I' for Inactive)
REMARK    1  A    between atoms: N_2  and  C_11
REMARK    2  A    between atoms: C_3  and  C_19
REMARK    3  A    between atoms: C_19  and  C_20
REMARK    4  A    between atoms: C_20  and  C_23
REMARK    5  A    between atoms: N_22  and  C_25
REMARK    6  A    between atoms: C_27  and  O_31
REMARK    7  A    between atoms: O_31  and  C_32
REMARK    8  A    between atoms: C_32  and  C_34
REMARK                            x       y       z     vdW  Elec       q    Type
REMARK                         _______ _______ _______ _____ _____    ______ ____
ROOT
ATOM      1  O   UNL     1      33.767 -23.961 -18.136  0.00  0.00    -0.275 OA
ATOM      2  N   UNL     1      35.052 -22.148 -17.359  0.00  0.00    -0.284 N 
ATOM      3  C   UNL     1      34.121 -22.788 -18.188  0.00  0.00    +0.227 C 
ATOM      4  H   UNL     1      35.232 -21.202 -17.565  0.00  0.00    +0.155 HD
ENDROOT
BRANCH   2  11
ATOM      5  O   UNL     1      33.838 -24.076 -12.786  0.00  0.00    -0.282 OA
ATOM      6  O   UNL     1      39.160 -24.389 -13.030  0.00  0.00    -0.270 OA
ATOM      7  O   UNL     1      35.202 -25.085 -10.747  0.00  0.00    -0.266 OA
ATOM      8  N   UNL     1      37.194 -24.737 -11.887  0.00  0.00    -0.246 N 
ATOM      9  C   UNL     1      35.781 -23.660 -14.070  0.00  0.00    +0.049 C 
ATOM     10  C   UNL     1      37.172 -23.750 -14.117  0.00  0.00    +0.057 C 
ATOM     11  C   UNL     1      35.756 -22.680 -16.279  0.00  0.00    +0.050 C 
ATOM     12  C   UNL     1      35.069 -23.125 -15.149  0.00  0.00    +0.018 C 
ATOM     13  C   UNL     1      37.856 -23.301 -15.253  0.00  0.00    +0.006 C 
ATOM     14  C   UNL     1      37.147 -22.768 -16.331  0.00  0.00    +0.015 C 
ATOM     15  C   UNL     1      35.055 -24.128 -12.882  0.00  0.00    +0.249 C 
ATOM     16  C   UNL     1      37.936 -24.311 -12.984  0.00  0.00    +0.252 C 
ATOM     17  C   UNL     1      35.821 -24.699 -11.727  0.00  0.00    +0.291 C 
ATOM     18  H   UNL     1      37.708 -25.110 -11.135  0.00  0.00    +0.158 HD
ENDBRANCH   2  11
BRANCH   3  19
ATOM     19  C   UNL     1      33.570 -21.862 -19.260  0.00  0.00    +0.095 C 
BRANCH  19  20
ATOM     20  C   UNL     1      34.672 -20.993 -19.862  0.00  0.00    +0.095 C 
BRANCH  20  23
ATOM     21  O   UNL     1      32.914 -19.688 -20.820  0.00  0.00    -0.275 OA
ATOM     22  N   UNL     1      35.089 -19.472 -21.682  0.00  0.00    -0.284 N 
ATOM     23  C   UNL     1      34.105 -19.984 -20.846  0.00  0.00    +0.227 C 
ATOM     24  H   UNL     1      36.001 -19.815 -21.539  0.00  0.00    +0.155 HD
BRANCH  22  25
ATOM     25  C   UNL     1      34.938 -18.518 -22.714  0.00  0.00    +0.053 C 
ATOM     26  C   UNL     1      35.019 -17.156 -22.423  0.00  0.00    +0.052 C 
ATOM     27  C   UNL     1      34.869 -16.214 -23.441  0.00  0.00    +0.140 C 
ATOM     28  C   UNL     1      34.706 -18.938 -24.024  0.00  0.00    +0.015 C 
ATOM     29  C   UNL     1      34.637 -16.635 -24.751  0.00  0.00    +0.037 C 
ATOM     30  C   UNL     1      34.556 -17.997 -25.043  0.00  0.00    +0.004 C 
BRANCH  27  31
ATOM     31  O   UNL     1      34.948 -14.886 -23.158  0.00  0.00    -0.472 OA
BRANCH  31  32
ATOM     32  C   UNL     1      33.814 -14.084 -23.483  0.00  0.00    +0.243 C 
BRANCH  32  34
ATOM     33  F   UNL     1      33.219 -13.833 -21.238  0.00  0.00    -0.230 F 
ATOM     34  C   UNL     1      32.749 -14.295 -22.431  0.00  0.00    +0.240 C 
ENDBRANCH  32  34
ENDBRANCH  31  32
ENDBRANCH  27  31
ENDBRANCH  22  25
ENDBRANCH  20  23
ENDBRANCH  19  20
ENDBRANCH   3  19
TORSDOF 8
ENDMDL
MODEL 2
REMARK VINA RESULT:     -11.7      4.301      7.458
REMARK  Name = 24883488
REMARK  8 active torsions:
REMARK  status: ('A' for Active; 'I' for Inactive)
REMARK    1  A    between atoms: N_2  and  C_11
REMARK    2  A    between atoms: C_3  and  C_19
REMARK    3  A    between atoms: C_19  and  C_20
REMARK    4  A    between atoms: C_20  and  C_23
REMARK    5  A    between atoms: N_22  and  C_25
REMARK    6  A    between atoms: C_27  and  O_31
REMARK    7  A    between atoms: O_31  and  C_32
REMARK    8  A    between atoms: C_32  and  C_34
REMARK                            x       y       z     vdW  Elec       q    Type
REMARK                         _______ _______ _______ _____ _____    ______ ____
ROOT
ATOM      1  O   UNL     1      34.596 -18.553 -25.051  0.00  0.00    -0.275 OA
ATOM      2  N   UNL     1      35.193 -17.342 -23.122  0.00  0.00    -0.284 N 
ATOM      3  C   UNL     1      34.813 -17.500 -24.461  0.00  0.00    +0.227 C 
ATOM      4  H   UNL     1      35.349 -16.417 -22.826  0.00  0.00    +0.155 HD
ENDROOT
BRANCH   2  11
ATOM      5  O   UNL     1      32.172 -20.555 -20.542  0.00  0.00    -0.282 OA
ATOM      6  O   UNL     1      37.100 -21.608 -18.784  0.00  0.00    -0.270 OA
ATOM      7  O   UNL     1      32.552 -22.429 -18.704  0.00  0.00    -0.266 OA
ATOM      8  N   UNL     1      34.837 -22.021 -18.738  0.00  0.00    -0.246 N 
ATOM      9  C   UNL     1      34.472 -20.024 -20.688  0.00  0.00    +0.049 C 
ATOM     10  C   UNL     1      35.753 -20.313 -20.218  0.00  0.00    +0.057 C 
ATOM     11  C   UNL     1      35.378 -18.330 -22.155  0.00  0.00    +0.050 C 
ATOM     12  C   UNL     1      34.281 -19.033 -21.657  0.00  0.00    +0.018 C 
ATOM     13  C   UNL     1      36.851 -19.604 -20.721  0.00  0.00    +0.006 C 
ATOM     14  C   UNL     1      36.661 -18.615 -21.688  0.00  0.00    +0.015 C 
ATOM     15  C   UNL     1      33.315 -20.763 -20.166  0.00  0.00    +0.249 C 
ATOM     16  C   UNL     1      35.970 -21.356 -19.195  0.00  0.00    +0.252 C 
ATOM     17  C   UNL     1      33.525 -21.823 -19.128  0.00  0.00    +0.291 C 
ATOM     18  H   UNL     1      34.987 -22.715 -18.057  0.00  0.00    +0.158 HD
ENDBRANCH   2  11
BRANCH   3  19
ATOM     19  C   UNL     1      34.720 -16.172 -25.195  0.00  0.00    +0.095 C 
BRANCH  19  20
ATOM     20  C   UNL     1      33.498 -15.375 -24.744  0.00  0.00    +0.095 C 
BRANCH  20  23
ATOM     21  O   UNL     1      34.529 -14.150 -22.969  0.00  0.00    -0.275 OA
ATOM     22  N   UNL     1      33.512 -12.966 -24.726  0.00  0.00    -0.284 N 
ATOM     23  C   UNL     1      33.904 -14.100 -24.025  0.00  0.00    +0.227 C 
ATOM     24  H   UNL     1      33.036 -13.123 -25.573  0.00  0.00    +0.155 HD
BRANCH  22  25
ATOM     25  C   UNL     1      33.715 -11.614 -24.368  0.00  0.00    +0.053 C 
ATOM     26  C   UNL     1      32.856 -10.996 -23.459  0.00  0.00    +0.052 C 
ATOM     27  C   UNL     1      33.056  -9.661 -23.106  0.00  0.00    +0.140 C 
ATOM     28  C   UNL     1      34.775 -10.897 -24.924  0.00  0.00    +0.015 C 
ATOM     29  C   UNL     1      34.117  -8.945 -23.662  0.00  0.00    +0.037 C 
ATOM     30  C   UNL     1      34.976  -9.563 -24.571  0.00  0.00    +0.004 C 
BRANCH  27  31
ATOM     31  O   UNL     1      32.219  -9.058 -22.219  0.00  0.00    -0.472 OA
BRANCH  31  32
ATOM     32  C   UNL     1      32.534  -7.720 -21.836  0.00  0.00    +0.243 C 
BRANCH  32  34
ATOM     33  F   UNL     1      32.777  -8.913 -19.842  0.00  0.00    -0.230 F 
ATOM     34  C   UNL     1      32.612  -7.651 -20.327  0.00  0.00    +0.240 C 
ENDBRANCH  32  34
ENDBRANCH  31  32
ENDBRANCH  27  31
ENDBRANCH  22  25
ENDBRANCH  20  23
ENDBRANCH  19  20
ENDBRANCH   3  19
TORSDOF 8
ENDMDL
MODEL 3
REMARK VINA RESULT:     -11.7      3.775     11.803
REMARK  Name = 24883488
REMARK  8 active torsions:
REMARK  status: ('A' for Active; 'I' for Inactive)
REMARK    1  A    between atoms: N_2  and  C_11
REMARK    2  A    between atoms: C_3  and  C_19
REMARK    3  A    between atoms: C_19  and  C_20
REMARK    4  A    between atoms: C_20  and  C_23
REMARK    5  A    between atoms: N_22  and  C_25
REMARK    6  A    between atoms: C_27  and  O_31
REMARK    7  A    between atoms: O_31  and  C_32
REMARK    8  A    between atoms: C_32  and  C_34
REMARK                            x       y       z     vdW  Elec       q    Type
REMARK                         _______ _______ _______ _____ _____    ______ ____
ROOT
ATOM      1  O   UNL     1      37.461 -18.841 -21.617  0.00  0.00    -0.275 OA
ATOM      2  N   UNL     1      35.245 -18.471 -20.915  0.00  0.00    -0.284 N 
ATOM      3  C   UNL     1      36.475 -19.138 -20.950  0.00  0.00    +0.227 C 
ATOM      4  H   UNL     1      34.555 -18.870 -20.336  0.00  0.00    +0.155 HD
ENDROOT
BRANCH   2  11
ATOM      5  O   UNL     1      34.065 -17.278 -25.740  0.00  0.00    -0.282 OA
ATOM      6  O   UNL     1      33.608 -12.691 -23.052  0.00  0.00    -0.270 OA
ATOM      7  O   UNL     1      33.352 -15.061 -27.011  0.00  0.00    -0.266 OA
ATOM      8  N   UNL     1      33.480 -13.864 -25.026  0.00  0.00    -0.246 N 
ATOM      9  C   UNL     1      34.239 -16.196 -23.645  0.00  0.00    +0.049 C 
ATOM     10  C   UNL     1      34.115 -14.988 -22.958  0.00  0.00    +0.057 C 
ATOM     11  C   UNL     1      34.870 -17.312 -21.596  0.00  0.00    +0.050 C 
ATOM     12  C   UNL     1      34.617 -17.360 -22.967  0.00  0.00    +0.018 C 
ATOM     13  C   UNL     1      34.370 -14.946 -21.582  0.00  0.00    +0.006 C 
ATOM     14  C   UNL     1      34.746 -16.108 -20.904  0.00  0.00    +0.015 C 
ATOM     15  C   UNL     1      33.973 -16.250 -25.088  0.00  0.00    +0.249 C 
ATOM     16  C   UNL     1      33.717 -13.751 -23.661  0.00  0.00    +0.252 C 
ATOM     17  C   UNL     1      33.570 -14.999 -25.810  0.00  0.00    +0.291 C 
ATOM     18  H   UNL     1      33.216 -13.037 -25.490  0.00  0.00    +0.158 HD
ENDBRANCH   2  11
BRANCH   3  19
ATOM     19  C   UNL     1      36.488 -20.372 -20.063  0.00  0.00    +0.095 C 
BRANCH  19  20
ATOM     20  C   UNL     1      35.081 -20.933 -19.873  0.00  0.00    +0.095 C 
BRANCH  20  23
ATOM     21  O   UNL     1      34.583 -23.188 -19.257  0.00  0.00    -0.275 OA
ATOM     22  N   UNL     1      35.719 -21.815 -17.724  0.00  0.00    -0.284 N 
ATOM     23  C   UNL     1      35.081 -22.118 -18.921  0.00  0.00    +0.227 C 
ATOM     24  H   UNL     1      36.079 -20.902 -17.643  0.00  0.00    +0.155 HD
BRANCH  22  25
ATOM     25  C   UNL     1      35.912 -22.662 -16.609  0.00  0.00    +0.053 C 
ATOM     26  C   UNL     1      37.197 -22.886 -16.117  0.00  0.00    +0.052 C 
ATOM     27  C   UNL     1      37.388 -23.722 -15.016  0.00  0.00    +0.140 C 
ATOM     28  C   UNL     1      34.816 -23.274 -16.001  0.00  0.00    +0.015 C 
ATOM     29  C   UNL     1      36.291 -24.334 -14.408  0.00  0.00    +0.037 C 
ATOM     30  C   UNL     1      35.005 -24.110 -14.900  0.00  0.00    +0.004 C 
BRANCH  27  31
ATOM     31  O   UNL     1      38.642 -23.941 -14.535  0.00  0.00    -0.472 OA
BRANCH  31  32
ATOM     32  C   UNL     1      38.966 -25.277 -14.154  0.00  0.00    +0.243 C 
BRANCH  32  34
ATOM     33  F   UNL     1      40.964 -26.456 -13.875  0.00  0.00    -0.230 F 
ATOM     34  C   UNL     1      40.308 -25.641 -14.748  0.00  0.00    +0.240 C 
ENDBRANCH  32  34
ENDBRANCH  31  32
ENDBRANCH  27  31
ENDBRANCH  22  25
ENDBRANCH  20  23
ENDBRANCH  19  20
ENDBRANCH   3  19
TORSDOF 8
ENDMDL
MODEL 4
REMARK VINA RESULT:     -11.6      3.718     11.252
REMARK  Name = 24883488
REMARK  8 active torsions:
REMARK  status: ('A' for Active; 'I' for Inactive)
REMARK    1  A    between atoms: N_2  and  C_11
REMARK    2  A    between atoms: C_3  and  C_19
REMARK    3  A    between atoms: C_19  and  C_20
REMARK    4  A    between atoms: C_20  and  C_23
REMARK    5  A    between atoms: N_22  and  C_25
REMARK    6  A    between atoms: C_27  and  O_31
REMARK    7  A    between atoms: O_31  and  C_32
REMARK    8  A    between atoms: C_32  and  C_34
REMARK                            x       y       z     vdW  Elec       q    Type
REMARK                         _______ _______ _______ _____ _____    ______ ____
ROOT
ATOM      1  O   UNL     1      33.588 -19.971 -20.512  0.00  0.00    -0.275 OA
ATOM      2  N   UNL     1      35.547 -18.743 -20.956  0.00  0.00    -0.284 N 
ATOM      3  C   UNL     1      34.807 -19.834 -20.485  0.00  0.00    +0.227 C 
ATOM      4  H   UNL     1      36.521 -18.797 -20.826  0.00  0.00    +0.155 HD
ENDROOT
BRANCH   2  11
ATOM      5  O   UNL     1      34.289 -17.429 -25.730  0.00  0.00    -0.282 OA
ATOM      6  O   UNL     1      33.446 -13.025 -22.836  0.00  0.00    -0.270 OA
ATOM      7  O   UNL     1      33.400 -15.222 -26.902  0.00  0.00    -0.266 OA
ATOM      8  N   UNL     1      33.422 -14.112 -24.863  0.00  0.00    -0.246 N 
ATOM      9  C   UNL     1      34.366 -16.435 -23.585  0.00  0.00    +0.049 C 
ATOM     10  C   UNL     1      34.140 -15.275 -22.844  0.00  0.00    +0.057 C 
ATOM     11  C   UNL     1      35.080 -17.589 -21.585  0.00  0.00    +0.050 C 
ATOM     12  C   UNL     1      34.837 -17.594 -22.959  0.00  0.00    +0.018 C 
ATOM     13  C   UNL     1      34.387 -15.276 -21.466  0.00  0.00    +0.006 C 
ATOM     14  C   UNL     1      34.855 -16.433 -20.840  0.00  0.00    +0.015 C 
ATOM     15  C   UNL     1      34.111 -16.443 -25.032  0.00  0.00    +0.249 C 
ATOM     16  C   UNL     1      33.644 -14.043 -23.492  0.00  0.00    +0.252 C 
ATOM     17  C   UNL     1      33.608 -15.198 -25.698  0.00  0.00    +0.291 C 
ATOM     18  H   UNL     1      33.092 -13.289 -25.290  0.00  0.00    +0.158 HD
ENDBRANCH   2  11
BRANCH   3  19
ATOM     19  C   UNL     1      35.687 -20.902 -19.855  0.00  0.00    +0.095 C 
BRANCH  19  20
ATOM     20  C   UNL     1      34.924 -22.211 -19.669  0.00  0.00    +0.095 C 
BRANCH  20  23
ATOM     21  O   UNL     1      35.671 -22.478 -17.414  0.00  0.00    -0.275 OA
ATOM     22  N   UNL     1      33.402 -22.834 -17.909  0.00  0.00    -0.284 N 
ATOM     23  C   UNL     1      34.727 -22.531 -18.197  0.00  0.00    +0.227 C 
ATOM     24  H   UNL     1      32.775 -22.804 -18.669  0.00  0.00    +0.155 HD
BRANCH  22  25
ATOM     25  C   UNL     1      32.845 -23.179 -16.657  0.00  0.00    +0.053 C 
ATOM     26  C   UNL     1      31.464 -23.127 -16.469  0.00  0.00    +0.052 C 
ATOM     27  C   UNL     1      30.915 -23.468 -15.232  0.00  0.00    +0.140 C 
ATOM     28  C   UNL     1      33.677 -23.571 -15.608  0.00  0.00    +0.015 C 
ATOM     29  C   UNL     1      31.748 -23.860 -14.184  0.00  0.00    +0.037 C 
ATOM     30  C   UNL     1      33.129 -23.911 -14.372  0.00  0.00    +0.004 C 
BRANCH  27  31
ATOM     31  O   UNL     1      29.567 -23.417 -15.048  0.00  0.00    -0.472 OA
BRANCH  31  32
ATOM     32  C   UNL     1      28.747 -23.723 -16.174  0.00  0.00    +0.243 C 
BRANCH  32  34
ATOM     33  F   UNL     1      27.691 -21.860 -15.241  0.00  0.00    -0.230 F 
ATOM     34  C   UNL     1      27.771 -22.589 -16.389  0.00  0.00    +0.240 C 
ENDBRANCH  32  34
ENDBRANCH  31  32
ENDBRANCH  27  31
ENDBRANCH  22  25
ENDBRANCH  20  23
ENDBRANCH  19  20
ENDBRANCH   3  19
TORSDOF 8
ENDMDL
MODEL 5
REMARK VINA RESULT:     -11.4      2.774      3.918
REMARK  Name = 24883488
REMARK  8 active torsions:
REMARK  status: ('A' for Active; 'I' for Inactive)
REMARK    1  A    between atoms: N_2  and  C_11
REMARK    2  A    between atoms: C_3  and  C_19
REMARK    3  A    between atoms: C_19  and  C_20
REMARK    4  A    between atoms: C_20  and  C_23
REMARK    5  A    between atoms: N_22  and  C_25
REMARK    6  A    between atoms: C_27  and  O_31
REMARK    7  A    between atoms: O_31  and  C_32
REMARK    8  A    between atoms: C_32  and  C_34
REMARK                            x       y       z     vdW  Elec       q    Type
REMARK                         _______ _______ _______ _____ _____    ______ ____
ROOT
ATOM      1  O   UNL     1      36.506 -21.620 -17.823  0.00  0.00    -0.275 OA
ATOM      2  N   UNL     1      34.458 -22.392 -18.691  0.00  0.00    -0.284 N 
ATOM      3  C   UNL     1      35.742 -21.838 -18.758  0.00  0.00    +0.227 C 
ATOM      4  H   UNL     1      33.978 -22.470 -19.547  0.00  0.00    +0.155 HD
ENDROOT
BRANCH   2  11
ATOM      5  O   UNL     1      29.574 -22.570 -17.202  0.00  0.00    -0.282 OA
ATOM      6  O   UNL     1      32.307 -24.765 -13.178  0.00  0.00    -0.270 OA
ATOM      7  O   UNL     1      28.292 -23.446 -15.051  0.00  0.00    -0.266 OA
ATOM      8  N   UNL     1      30.306 -24.109 -14.103  0.00  0.00    -0.246 N 
ATOM      9  C   UNL     1      31.699 -23.190 -16.369  0.00  0.00    +0.049 C 
ATOM     10  C   UNL     1      32.397 -23.767 -15.309  0.00  0.00    +0.057 C 
ATOM     11  C   UNL     1      33.772 -22.848 -17.565  0.00  0.00    +0.050 C 
ATOM     12  C   UNL     1      32.383 -22.729 -17.499  0.00  0.00    +0.018 C 
ATOM     13  C   UNL     1      33.791 -23.883 -15.380  0.00  0.00    +0.006 C 
ATOM     14  C   UNL     1      34.474 -23.424 -16.508  0.00  0.00    +0.015 C 
ATOM     15  C   UNL     1      30.237 -23.064 -16.304  0.00  0.00    +0.249 C 
ATOM     16  C   UNL     1      31.688 -24.257 -14.109  0.00  0.00    +0.252 C 
ATOM     17  C   UNL     1      29.509 -23.558 -15.090  0.00  0.00    +0.291 C 
ATOM     18  H   UNL     1      29.838 -24.438 -13.302  0.00  0.00    +0.158 HD
ENDBRANCH   2  11
BRANCH   3  19
ATOM     19  C   UNL     1      36.136 -21.463 -20.178  0.00  0.00    +0.095 C 
BRANCH  19  20
ATOM     20  C   UNL     1      36.454 -19.975 -20.290  0.00  0.00    +0.095 C 
BRANCH  20  23
ATOM     21  O   UNL     1      34.213 -19.458 -20.941  0.00  0.00    -0.275 OA
ATOM     22  N   UNL     1      35.990 -18.351 -22.009  0.00  0.00    -0.284 N 
ATOM     23  C   UNL     1      35.408 -19.246 -21.118  0.00  0.00    +0.227 C 
ATOM     24  H   UNL     1      36.973 -18.301 -21.993  0.00  0.00    +0.155 HD
BRANCH  22  25
ATOM     25  C   UNL     1      35.337 -17.504 -22.933  0.00  0.00    +0.053 C 
ATOM     26  C   UNL     1      35.013 -16.196 -22.573  0.00  0.00    +0.052 C 
ATOM     27  C   UNL     1      34.368 -15.361 -23.486  0.00  0.00    +0.140 C 
ATOM     28  C   UNL     1      35.018 -17.977 -24.206  0.00  0.00    +0.015 C 
ATOM     29  C   UNL     1      34.049 -15.834 -24.759  0.00  0.00    +0.037 C 
ATOM     30  C   UNL     1      34.374 -17.142 -25.119  0.00  0.00    +0.004 C 
BRANCH  27  31
ATOM     31  O   UNL     1      34.051 -14.085 -23.135  0.00  0.00    -0.472 OA
BRANCH  31  32
ATOM     32  C   UNL     1      32.665 -13.772 -23.009  0.00  0.00    +0.243 C 
BRANCH  32  34
ATOM     33  F   UNL     1      32.684 -14.464 -20.778  0.00  0.00    -0.230 F 
ATOM     34  C   UNL     1      32.377 -13.400 -21.572  0.00  0.00    +0.240 C 
ENDBRANCH  32  34
ENDBRANCH  31  32
ENDBRANCH  27  31
ENDBRANCH  22  25
ENDBRANCH  20  23
ENDBRANCH  19  20
ENDBRANCH   3  19
TORSDOF 8
ENDMDL
MODEL 6
REMARK VINA RESULT:     -11.4      3.187     11.631
REMARK  Name = 24883488
REMARK  8 active torsions:
REMARK  status: ('A' for Active; 'I' for Inactive)
REMARK    1  A    between atoms: N_2  and  C_11
REMARK    2  A    between atoms: C_3  and  C_19
REMARK    3  A    between atoms: C_19  and  C_20
REMARK    4  A    between atoms: C_20  and  C_23
REMARK    5  A    between atoms: N_22  and  C_25
REMARK    6  A    between atoms: C_27  and  O_31
REMARK    7  A    between atoms: O_31  and  C_32
REMARK    8  A    between atoms: C_32  and  C_34
REMARK                            x       y       z     vdW  Elec       q    Type
REMARK                         _______ _______ _______ _____ _____    ______ ____
ROOT
ATOM      1  O   UNL     1      34.191 -20.095 -20.936  0.00  0.00    -0.275 OA
ATOM      2  N   UNL     1      35.843 -18.418 -20.984  0.00  0.00    -0.284 N 
ATOM      3  C   UNL     1      35.326 -19.689 -20.705  0.00  0.00    +0.227 C 
ATOM      4  H   UNL     1      36.773 -18.261 -20.703  0.00  0.00    +0.155 HD
ENDROOT
BRANCH   2  11
ATOM      5  O   UNL     1      34.618 -17.182 -25.788  0.00  0.00    -0.282 OA
ATOM      6  O   UNL     1      32.839 -13.108 -22.836  0.00  0.00    -0.270 OA
ATOM      7  O   UNL     1      33.406 -15.131 -26.953  0.00  0.00    -0.266 OA
ATOM      8  N   UNL     1      33.119 -14.108 -24.888  0.00  0.00    -0.246 N 
ATOM      9  C   UNL     1      34.402 -16.267 -23.618  0.00  0.00    +0.049 C 
ATOM     10  C   UNL     1      33.930 -15.194 -22.861  0.00  0.00    +0.057 C 
ATOM     11  C   UNL     1      35.208 -17.345 -21.610  0.00  0.00    +0.050 C 
ATOM     12  C   UNL     1      35.042 -17.344 -22.995  0.00  0.00    +0.018 C 
ATOM     13  C   UNL     1      34.100 -15.200 -21.472  0.00  0.00    +0.006 C 
ATOM     14  C   UNL     1      34.738 -16.275 -20.849  0.00  0.00    +0.015 C 
ATOM     15  C   UNL     1      34.228 -16.270 -25.076  0.00  0.00    +0.249 C 
ATOM     16  C   UNL     1      33.254 -14.050 -23.506  0.00  0.00    +0.252 C 
ATOM     17  C   UNL     1      33.543 -15.113 -25.739  0.00  0.00    +0.291 C 
ATOM     18  H   UNL     1      32.668 -13.343 -25.312  0.00  0.00    +0.158 HD
ENDBRANCH   2  11
BRANCH   3  19
ATOM     19  C   UNL     1      36.338 -20.583 -20.007  0.00  0.00    +0.095 C 
BRANCH  19  20
ATOM     20  C   UNL     1      35.653 -21.758 -19.313  0.00  0.00    +0.095 C 
BRANCH  20  23
ATOM     21  O   UNL     1      36.975 -21.158 -17.414  0.00  0.00    -0.275 OA
ATOM     22  N   UNL     1      35.285 -22.771 -17.159  0.00  0.00    -0.284 N 
ATOM     23  C   UNL     1      36.067 -21.857 -17.855  0.00  0.00    +0.227 C 
ATOM     24  H   UNL     1      34.583 -23.226 -17.679  0.00  0.00    +0.155 HD
BRANCH  22  25
ATOM     25  C   UNL     1      35.377 -23.126 -15.794  0.00  0.00    +0.053 C 
ATOM     26  C   UNL     1      34.241 -23.551 -15.105  0.00  0.00    +0.052 C 
ATOM     27  C   UNL     1      34.332 -23.900 -13.757  0.00  0.00    +0.140 C 
ATOM     28  C   UNL     1      36.604 -23.050 -15.135  0.00  0.00    +0.015 C 
ATOM     29  C   UNL     1      35.560 -23.824 -13.099  0.00  0.00    +0.037 C 
ATOM     30  C   UNL     1      36.696 -23.399 -13.788  0.00  0.00    +0.004 C 
BRANCH  27  31
ATOM     31  O   UNL     1      33.224 -24.314 -13.085  0.00  0.00    -0.472 OA
BRANCH  31  32
ATOM     32  C   UNL     1      32.141 -24.817 -13.866  0.00  0.00    +0.243 C 
BRANCH  32  34
ATOM     33  F   UNL     1      30.148 -23.849 -14.605  0.00  0.00    -0.230 F 
ATOM     34  C   UNL     1      30.878 -24.081 -13.479  0.00  0.00    +0.240 C 
ENDBRANCH  32  34
ENDBRANCH  31  32
ENDBRANCH  27  31
ENDBRANCH  22  25
ENDBRANCH  20  23
ENDBRANCH  19  20
ENDBRANCH   3  19
TORSDOF 8
ENDMDL
MODEL 7
REMARK VINA RESULT:     -11.4      3.309     11.647
REMARK  Name = 24883488
REMARK  8 active torsions:
REMARK  status: ('A' for Active; 'I' for Inactive)
REMARK    1  A    between atoms: N_2  and  C_11
REMARK    2  A    between atoms: C_3  and  C_19
REMARK    3  A    between atoms: C_19  and  C_20
REMARK    4  A    between atoms: C_20  and  C_23
REMARK    5  A    between atoms: N_22  and  C_25
REMARK    6  A    between atoms: C_27  and  O_31
REMARK    7  A    between atoms: O_31  and  C_32
REMARK    8  A    between atoms: C_32  and  C_34
REMARK                            x       y       z     vdW  Elec       q    Type
REMARK                         _______ _______ _______ _____ _____    ______ ____
ROOT
ATOM      1  O   UNL     1      34.023 -19.985 -21.028  0.00  0.00    -0.275 OA
ATOM      2  N   UNL     1      35.724 -18.358 -21.001  0.00  0.00    -0.284 N 
ATOM      3  C   UNL     1      35.161 -19.617 -20.757  0.00  0.00    +0.227 C 
ATOM      4  H   UNL     1      36.650 -18.234 -20.690  0.00  0.00    +0.155 HD
ENDROOT
BRANCH   2  11
ATOM      5  O   UNL     1      34.543 -17.079 -25.804  0.00  0.00    -0.282 OA
ATOM      6  O   UNL     1      32.979 -12.912 -22.860  0.00  0.00    -0.270 OA
ATOM      7  O   UNL     1      33.429 -14.974 -26.972  0.00  0.00    -0.266 OA
ATOM      8  N   UNL     1      33.201 -13.932 -24.910  0.00  0.00    -0.246 N 
ATOM      9  C   UNL     1      34.380 -16.147 -23.637  0.00  0.00    +0.049 C 
ATOM     10  C   UNL     1      33.965 -15.050 -22.882  0.00  0.00    +0.057 C 
ATOM     11  C   UNL     1      35.140 -17.257 -21.628  0.00  0.00    +0.050 C 
ATOM     12  C   UNL     1      34.969 -17.253 -23.013  0.00  0.00    +0.018 C 
ATOM     13  C   UNL     1      34.140 -15.059 -21.494  0.00  0.00    +0.006 C 
ATOM     14  C   UNL     1      34.726 -16.163 -20.870  0.00  0.00    +0.015 C 
ATOM     15  C   UNL     1      34.201 -16.146 -25.094  0.00  0.00    +0.249 C 
ATOM     16  C   UNL     1      33.343 -13.875 -23.528  0.00  0.00    +0.252 C 
ATOM     17  C   UNL     1      33.571 -14.959 -25.758  0.00  0.00    +0.291 C 
ATOM     18  H   UNL     1      32.786 -13.147 -25.335  0.00  0.00    +0.158 HD
ENDBRANCH   2  11
BRANCH   3  19
ATOM     19  C   UNL     1      36.125 -20.552 -20.044  0.00  0.00    +0.095 C 
BRANCH  19  20
ATOM     20  C   UNL     1      35.476 -21.904 -19.761  0.00  0.00    +0.095 C 
BRANCH  20  23
ATOM     21  O   UNL     1      36.325 -21.833 -17.528  0.00  0.00    -0.275 OA
ATOM     22  N   UNL     1      34.229 -22.824 -17.917  0.00  0.00    -0.284 N 
ATOM     23  C   UNL     1      35.412 -22.186 -18.269  0.00  0.00    +0.227 C 
ATOM     24  H   UNL     1      33.600 -23.008 -18.652  0.00  0.00    +0.155 HD
BRANCH  22  25
ATOM     25  C   UNL     1      33.821 -23.239 -16.629  0.00  0.00    +0.053 C 
ATOM     26  C   UNL     1      34.766 -23.699 -15.712  0.00  0.00    +0.052 C 
ATOM     27  C   UNL     1      34.364 -24.110 -14.441  0.00  0.00    +0.140 C 
ATOM     28  C   UNL     1      32.473 -23.189 -16.275  0.00  0.00    +0.015 C 
ATOM     29  C   UNL     1      33.015 -24.060 -14.087  0.00  0.00    +0.037 C 
ATOM     30  C   UNL     1      32.069 -23.599 -15.004  0.00  0.00    +0.004 C 
BRANCH  27  31
ATOM     31  O   UNL     1      35.285 -24.559 -13.546  0.00  0.00    -0.472 OA
BRANCH  31  32
ATOM     32  C   UNL     1      35.404 -23.839 -12.321  0.00  0.00    +0.243 C 
BRANCH  32  34
ATOM     33  F   UNL     1      37.005 -22.451 -11.337  0.00  0.00    -0.230 F 
ATOM     34  C   UNL     1      36.871 -23.618 -12.025  0.00  0.00    +0.240 C 
ENDBRANCH  32  34
ENDBRANCH  31  32
ENDBRANCH  27  31
ENDBRANCH  22  25
ENDBRANCH  20  23
ENDBRANCH  19  20
ENDBRANCH   3  19
TORSDOF 8
ENDMDL
MODEL 8
REMARK VINA RESULT:     -11.3      3.521     11.109
REMARK  Name = 24883488
REMARK  8 active torsions:
REMARK  status: ('A' for Active; 'I' for Inactive)
REMARK    1  A    between atoms: N_2  and  C_11
REMARK    2  A    between atoms: C_3  and  C_19
REMARK    3  A    between atoms: C_19  and  C_20
REMARK    4  A    between atoms: C_20  and  C_23
REMARK    5  A    between atoms: N_22  and  C_25
REMARK    6  A    between atoms: C_27  and  O_31
REMARK    7  A    between atoms: O_31  and  C_32
REMARK    8  A    between atoms: C_32  and  C_34
REMARK                            x       y       z     vdW  Elec       q    Type
REMARK                         _______ _______ _______ _____ _____    ______ ____
ROOT
ATOM      1  O   UNL     1      37.179 -19.842 -20.075  0.00  0.00    -0.275 OA
ATOM      2  N   UNL     1      34.985 -20.175 -20.861  0.00  0.00    -0.284 N 
ATOM      3  C   UNL     1      36.105 -20.435 -20.062  0.00  0.00    +0.227 C 
ATOM      4  H   UNL     1      34.215 -20.774 -20.730  0.00  0.00    +0.155 HD
ENDROOT
BRANCH   2  11
ATOM      5  O   UNL     1      33.965 -15.169 -20.798  0.00  0.00    -0.282 OA
ATOM      6  O   UNL     1      34.436 -16.400 -25.970  0.00  0.00    -0.270 OA
ATOM      7  O   UNL     1      33.660 -13.287 -22.642  0.00  0.00    -0.266 OA
ATOM      8  N   UNL     1      34.047 -14.846 -24.319  0.00  0.00    -0.246 N 
ATOM      9  C   UNL     1      34.377 -16.869 -22.390  0.00  0.00    +0.049 C 
ATOM     10  C   UNL     1      34.497 -17.173 -23.746  0.00  0.00    +0.057 C 
ATOM     11  C   UNL     1      34.821 -19.176 -21.821  0.00  0.00    +0.050 C 
ATOM     12  C   UNL     1      34.538 -17.868 -21.424  0.00  0.00    +0.018 C 
ATOM     13  C   UNL     1      34.780 -18.486 -24.138  0.00  0.00    +0.006 C 
ATOM     14  C   UNL     1      34.942 -19.484 -23.175  0.00  0.00    +0.015 C 
ATOM     15  C   UNL     1      34.079 -15.493 -21.970  0.00  0.00    +0.249 C 
ATOM     16  C   UNL     1      34.328 -16.128 -24.777  0.00  0.00    +0.252 C 
ATOM     17  C   UNL     1      33.906 -14.427 -23.009  0.00  0.00    +0.291 C 
ATOM     18  H   UNL     1      33.936 -14.153 -25.010  0.00  0.00    +0.158 HD
ENDBRANCH   2  11
BRANCH   3  19
ATOM     19  C   UNL     1      35.890 -21.620 -19.134  0.00  0.00    +0.095 C 
BRANCH  19  20
ATOM     20  C   UNL     1      34.696 -22.462 -19.578  0.00  0.00    +0.095 C 
BRANCH  20  23
ATOM     21  O   UNL     1      32.521 -21.919 -18.748  0.00  0.00    -0.275 OA
ATOM     22  N   UNL     1      33.981 -23.159 -17.386  0.00  0.00    -0.284 N 
ATOM     23  C   UNL     1      33.599 -22.464 -18.527  0.00  0.00    +0.227 C 
ATOM     24  H   UNL     1      34.884 -23.551 -17.399  0.00  0.00    +0.155 HD
BRANCH  22  25
ATOM     25  C   UNL     1      33.227 -23.370 -16.209  0.00  0.00    +0.053 C 
ATOM     26  C   UNL     1      33.871 -23.719 -15.022  0.00  0.00    +0.052 C 
ATOM     27  C   UNL     1      33.127 -23.928 -13.860  0.00  0.00    +0.140 C 
ATOM     28  C   UNL     1      31.840 -23.231 -16.235  0.00  0.00    +0.015 C 
ATOM     29  C   UNL     1      31.739 -23.788 -13.887  0.00  0.00    +0.037 C 
ATOM     30  C   UNL     1      31.095 -23.439 -15.074  0.00  0.00    +0.004 C 
BRANCH  27  31
ATOM     31  O   UNL     1      33.754 -24.269 -12.702  0.00  0.00    -0.472 OA
BRANCH  31  32
ATOM     32  C   UNL     1      35.141 -23.952 -12.597  0.00  0.00    +0.243 C 
BRANCH  32  34
ATOM     33  F   UNL     1      36.796 -23.838 -10.952  0.00  0.00    -0.230 F 
ATOM     34  C   UNL     1      35.678 -24.530 -11.307  0.00  0.00    +0.240 C 
ENDBRANCH  32  34
ENDBRANCH  31  32
ENDBRANCH  27  31
ENDBRANCH  22  25
ENDBRANCH  20  23
ENDBRANCH  19  20
ENDBRANCH   3  19
TORSDOF 8
ENDMDL
MODEL 9
REMARK VINA RESULT:     -11.3      4.121      7.279
REMARK  Name = 24883488
REMARK  8 active torsions:
REMARK  status: ('A' for Active; 'I' for Inactive)
REMARK    1  A    between atoms: N_2  and  C_11
REMARK    2  A    between atoms: C_3  and  C_19
REMARK    3  A    between atoms: C_19  and  C_20
REMARK    4  A    between atoms: C_20  and  C_23
REMARK    5  A    between atoms: N_22  and  C_25
REMARK    6  A    between atoms: C_27  and  O_31
REMARK    7  A    between atoms: O_31  and  C_32
REMARK    8  A    between atoms: C_32  and  C_34
REMARK                            x       y       z     vdW  Elec       q    Type
REMARK                         _______ _______ _______ _____ _____    ______ ____
ROOT
ATOM      1  O   UNL     1      34.852 -15.776 -21.663  0.00  0.00    -0.275 OA
ATOM      2  N   UNL     1      35.366 -17.743 -22.849  0.00  0.00    -0.284 N 
ATOM      3  C   UNL     1      35.062 -16.383 -22.708  0.00  0.00    +0.227 C 
ATOM      4  H   UNL     1      35.479 -18.064 -23.773  0.00  0.00    +0.155 HD
ENDROOT
BRANCH   2  11
ATOM      5  O   UNL     1      32.302 -20.962 -20.329  0.00  0.00    -0.282 OA
ATOM      6  O   UNL     1      37.164 -21.850 -18.316  0.00  0.00    -0.270 OA
ATOM      7  O   UNL     1      32.638 -22.779 -18.426  0.00  0.00    -0.266 OA
ATOM      8  N   UNL     1      34.913 -22.316 -18.365  0.00  0.00    -0.246 N 
ATOM      9  C   UNL     1      34.594 -20.380 -20.382  0.00  0.00    +0.049 C 
ATOM     10  C   UNL     1      35.858 -20.625 -19.845  0.00  0.00    +0.057 C 
ATOM     11  C   UNL     1      35.529 -18.701 -21.848  0.00  0.00    +0.050 C 
ATOM     12  C   UNL     1      34.426 -19.418 -21.384  0.00  0.00    +0.018 C 
ATOM     13  C   UNL     1      36.961 -19.902 -20.315  0.00  0.00    +0.006 C 
ATOM     14  C   UNL     1      36.794 -18.943 -21.316  0.00  0.00    +0.015 C 
ATOM     15  C   UNL     1      33.431 -21.133 -19.895  0.00  0.00    +0.249 C 
ATOM     16  C   UNL     1      36.050 -21.637 -18.785  0.00  0.00    +0.252 C 
ATOM     17  C   UNL     1      33.616 -22.161 -18.820  0.00  0.00    +0.291 C 
ATOM     18  H   UNL     1      35.046 -22.989 -17.659  0.00  0.00    +0.158 HD
ENDBRANCH   2  11
BRANCH   3  19
ATOM     19  C   UNL     1      34.969 -15.670 -24.047  0.00  0.00    +0.095 C 
BRANCH  19  20
ATOM     20  C   UNL     1      33.553 -15.162 -24.306  0.00  0.00    +0.095 C 
BRANCH  20  23
ATOM     21  O   UNL     1      33.877 -12.795 -24.404  0.00  0.00    -0.275 OA
ATOM     22  N   UNL     1      32.585 -13.694 -22.659  0.00  0.00    -0.284 N 
ATOM     23  C   UNL     1      33.375 -13.739 -23.801  0.00  0.00    +0.227 C 
ATOM     24  H   UNL     1      32.249 -14.560 -22.330  0.00  0.00    +0.155 HD
BRANCH  22  25
ATOM     25  C   UNL     1      32.205 -12.555 -21.914  0.00  0.00    +0.053 C 
ATOM     26  C   UNL     1      32.066 -11.321 -22.549  0.00  0.00    +0.052 C 
ATOM     27  C   UNL     1      31.692 -10.196 -21.814  0.00  0.00    +0.140 C 
ATOM     28  C   UNL     1      31.970 -12.664 -20.544  0.00  0.00    +0.015 C 
ATOM     29  C   UNL     1      31.456 -10.306 -20.443  0.00  0.00    +0.037 C 
ATOM     30  C   UNL     1      31.595 -11.540 -19.808  0.00  0.00    +0.004 C 
BRANCH  27  31
ATOM     31  O   UNL     1      31.556  -8.991 -22.433  0.00  0.00    -0.472 OA
BRANCH  31  32
ATOM     32  C   UNL     1      32.661  -8.533 -23.210  0.00  0.00    +0.243 C 
BRANCH  32  34
ATOM     33  F   UNL     1      34.758  -7.550 -22.906  0.00  0.00    -0.230 F 
ATOM     34  C   UNL     1      33.514  -7.622 -22.356  0.00  0.00    +0.240 C 
ENDBRANCH  32  34
ENDBRANCH  31  32
ENDBRANCH  27  31
ENDBRANCH  22  25
ENDBRANCH  20  23
ENDBRANCH  19  20
ENDBRANCH   3  19
TORSDOF 8
ENDMDL
