MODEL 1
REMARK VINA RESULT:      -4.8      0.000      0.000
REMARK  Name = 96
REMARK  3 active torsions:
REMARK  status: ('A' for Active; 'I' for Inactive)
REMARK    1  A    between atoms: C_1  and  C_3
REMARK    2  A    between atoms: C_1  and  C_6
REMARK    3  A    between atoms: C_6  and  O_7
REMARK                            x       y       z     vdW  Elec       q    Type
REMARK                         _______ _______ _______ _____ _____    ______ ____
ROOT
ATOM      1  C   UNL     1      38.699 -25.018 -14.681  0.00  0.00    +0.174 C 
ENDROOT
BRANCH   1   3
ATOM      2  O   UNL     1      38.042 -27.335 -14.739  0.00  0.00    -0.295 OA
ATOM      3  C   UNL     1      38.007 -26.254 -14.152  0.00  0.00    +0.162 C 
ATOM      4  C   UNL     1      37.278 -26.102 -12.843  0.00  0.00    +0.073 C 
ENDBRANCH   1   3
BRANCH   1   6
ATOM      5  O   UNL     1      41.058 -24.686 -14.296  0.00  0.00    -0.250 OA
ATOM      6  C   UNL     1      40.166 -25.185 -14.970  0.00  0.00    +0.321 C 
BRANCH   6   7
ATOM      7  O   UNL     1      40.397 -25.948 -16.067  0.00  0.00    -0.480 OA
ATOM      8  H   UNL     1      41.164 -25.804 -16.585  0.00  0.00    +0.295 HD
ENDBRANCH   6   7
ENDBRANCH   1   6
TORSDOF 3
ENDMDL
MODEL 2
REMARK VINA RESULT:      -4.6     11.802     12.786
REMARK  Name = 96
REMARK  3 active torsions:
REMARK  status: ('A' for Active; 'I' for Inactive)
REMARK    1  A    between atoms: C_1  and  C_3
REMARK    2  A    between atoms: C_1  and  C_6
REMARK    3  A    between atoms: C_6  and  O_7
REMARK                            x       y       z     vdW  Elec       q    Type
REMARK                         _______ _______ _______ _____ _____    ______ ____
ROOT
ATOM      1  C   UNL     1      27.520 -22.554 -17.415  0.00  0.00    +0.174 C 
ENDROOT
BRANCH   1   3
ATOM      2  O   UNL     1      28.349 -21.964 -15.231  0.00  0.00    -0.295 OA
ATOM      3  C   UNL     1      28.359 -22.756 -16.173  0.00  0.00    +0.162 C 
ATOM      4  C   UNL     1      29.207 -23.999 -16.136  0.00  0.00    +0.073 C 
ENDBRANCH   1   3
BRANCH   1   6
ATOM      5  O   UNL     1      26.308 -20.551 -18.002  0.00  0.00    -0.250 OA
ATOM      6  C   UNL     1      26.422 -21.534 -17.281  0.00  0.00    +0.321 C 
BRANCH   6   7
ATOM      7  O   UNL     1      25.569 -21.818 -16.265  0.00  0.00    -0.480 OA
ATOM      8  H   UNL     1      25.752 -22.531 -15.686  0.00  0.00    +0.295 HD
ENDBRANCH   6   7
ENDBRANCH   1   6
TORSDOF 3
ENDMDL
MODEL 3
REMARK VINA RESULT:      -4.5      9.621     10.746
REMARK  Name = 96
REMARK  3 active torsions:
REMARK  status: ('A' for Active; 'I' for Inactive)
REMARK    1  A    between atoms: C_1  and  C_3
REMARK    2  A    between atoms: C_1  and  C_6
REMARK    3  A    between atoms: C_6  and  O_7
REMARK                            x       y       z     vdW  Elec       q    Type
REMARK                         _______ _______ _______ _____ _____    ______ ____
ROOT
ATOM      1  C   UNL     1      29.162 -23.521 -15.849  0.00  0.00    +0.174 C 
ENDROOT
BRANCH   1   3
ATOM      2  O   UNL     1      30.957 -22.525 -17.110  0.00  0.00    -0.295 OA
ATOM      3  C   UNL     1      30.552 -22.953 -16.030  0.00  0.00    +0.162 C 
ATOM      4  C   UNL     1      31.423 -22.918 -14.802  0.00  0.00    +0.073 C 
ENDBRANCH   1   3
BRANCH   1   6
ATOM      5  O   UNL     1      27.615 -23.949 -17.651  0.00  0.00    -0.250 OA
ATOM      6  C   UNL     1      28.176 -23.143 -16.920  0.00  0.00    +0.321 C 
BRANCH   6   7
ATOM      7  O   UNL     1      27.978 -21.803 -16.995  0.00  0.00    -0.480 OA
ATOM      8  H   UNL     1      27.169 -21.432 -16.702  0.00  0.00    +0.295 HD
ENDBRANCH   6   7
ENDBRANCH   1   6
TORSDOF 3
ENDMDL
MODEL 4
REMARK VINA RESULT:      -4.5      3.862      5.322
REMARK  Name = 96
REMARK  3 active torsions:
REMARK  status: ('A' for Active; 'I' for Inactive)
REMARK    1  A    between atoms: C_1  and  C_3
REMARK    2  A    between atoms: C_1  and  C_6
REMARK    3  A    between atoms: C_6  and  O_7
REMARK                            x       y       z     vdW  Elec       q    Type
REMARK                         _______ _______ _______ _____ _____    ______ ____
ROOT
ATOM      1  C   UNL     1      36.655 -23.357 -11.877  0.00  0.00    +0.174 C 
ENDROOT
BRANCH   1   3
ATOM      2  O   UNL     1      39.050 -23.204 -11.662  0.00  0.00    -0.295 OA
ATOM      3  C   UNL     1      38.075 -23.854 -12.038  0.00  0.00    +0.162 C 
ATOM      4  C   UNL     1      38.240 -25.209 -12.672  0.00  0.00    +0.073 C 
ENDBRANCH   1   3
BRANCH   1   6
ATOM      5  O   UNL     1      34.843 -24.906 -11.500  0.00  0.00    -0.250 OA
ATOM      6  C   UNL     1      35.764 -24.240 -11.046  0.00  0.00    +0.321 C 
BRANCH   6   7
ATOM      7  O   UNL     1      36.088 -24.214  -9.729  0.00  0.00    -0.480 OA
ATOM      8  H   UNL     1      35.452 -23.947  -9.095  0.00  0.00    +0.295 HD
ENDBRANCH   6   7
ENDBRANCH   1   6
TORSDOF 3
ENDMDL
MODEL 5
REMARK VINA RESULT:      -4.5      2.400      3.172
REMARK  Name = 96
REMARK  3 active torsions:
REMARK  status: ('A' for Active; 'I' for Inactive)
REMARK    1  A    between atoms: C_1  and  C_3
REMARK    2  A    between atoms: C_1  and  C_6
REMARK    3  A    between atoms: C_6  and  O_7
REMARK                            x       y       z     vdW  Elec       q    Type
REMARK                         _______ _______ _______ _____ _____    ______ ____
ROOT
ATOM      1  C   UNL     1      36.741 -25.440 -14.113  0.00  0.00    +0.174 C 
ENDROOT
BRANCH   1   3
ATOM      2  O   UNL     1      36.990 -26.494 -11.961  0.00  0.00    -0.295 OA
ATOM      3  C   UNL     1      37.253 -25.541 -12.693  0.00  0.00    +0.162 C 
ATOM      4  C   UNL     1      38.127 -24.411 -12.217  0.00  0.00    +0.073 C 
ENDBRANCH   1   3
BRANCH   1   6
ATOM      5  O   UNL     1      36.394 -26.988 -15.931  0.00  0.00    -0.250 OA
ATOM      6  C   UNL     1      37.088 -26.605 -14.998  0.00  0.00    +0.321 C 
BRANCH   6   7
ATOM      7  O   UNL     1      38.259 -27.194 -14.647  0.00  0.00    -0.480 OA
ATOM      8  H   UNL     1      39.008 -27.114 -15.203  0.00  0.00    +0.295 HD
ENDBRANCH   6   7
ENDBRANCH   1   6
TORSDOF 3
ENDMDL
MODEL 6
REMARK VINA RESULT:      -4.4     10.585     11.813
REMARK  Name = 96
REMARK  3 active torsions:
REMARK  status: ('A' for Active; 'I' for Inactive)
REMARK    1  A    between atoms: C_1  and  C_3
REMARK    2  A    between atoms: C_1  and  C_6
REMARK    3  A    between atoms: C_6  and  O_7
REMARK                            x       y       z     vdW  Elec       q    Type
REMARK                         _______ _______ _______ _____ _____    ______ ____
ROOT
ATOM      1  C   UNL     1      41.427 -14.283 -15.843  0.00  0.00    +0.174 C 
ENDROOT
BRANCH   1   3
ATOM      2  O   UNL     1      40.878 -14.300 -18.189  0.00  0.00    -0.295 OA
ATOM      3  C   UNL     1      41.536 -13.806 -17.274  0.00  0.00    +0.162 C 
ATOM      4  C   UNL     1      42.489 -12.667 -17.527  0.00  0.00    +0.073 C 
ENDBRANCH   1   3
BRANCH   1   6
ATOM      5  O   UNL     1      42.348 -16.513 -15.786  0.00  0.00    -0.250 OA
ATOM      6  C   UNL     1      41.376 -15.777 -15.674  0.00  0.00    +0.321 C 
BRANCH   6   7
ATOM      7  O   UNL     1      40.128 -16.226 -15.387  0.00  0.00    -0.480 OA
ATOM      8  H   UNL     1      39.806 -17.006 -15.795  0.00  0.00    +0.295 HD
ENDBRANCH   6   7
ENDBRANCH   1   6
TORSDOF 3
ENDMDL
MODEL 7
REMARK VINA RESULT:      -4.4     10.729     11.358
REMARK  Name = 96
REMARK  3 active torsions:
REMARK  status: ('A' for Active; 'I' for Inactive)
REMARK    1  A    between atoms: C_1  and  C_3
REMARK    2  A    between atoms: C_1  and  C_6
REMARK    3  A    between atoms: C_6  and  O_7
REMARK                            x       y       z     vdW  Elec       q    Type
REMARK                         _______ _______ _______ _____ _____    ______ ____
ROOT
ATOM      1  C   UNL     1      41.719 -14.343 -16.094  0.00  0.00    +0.174 C 
ENDROOT
BRANCH   1   3
ATOM      2  O   UNL     1      42.934 -16.420 -16.208  0.00  0.00    -0.295 OA
ATOM      3  C   UNL     1      42.329 -15.531 -16.805  0.00  0.00    +0.162 C 
ATOM      4  C   UNL     1      42.141 -15.582 -18.298  0.00  0.00    +0.073 C 
ENDBRANCH   1   3
BRANCH   1   6
ATOM      5  O   UNL     1      40.664 -13.990 -13.952  0.00  0.00    -0.250 OA
ATOM      6  C   UNL     1      40.807 -14.687 -14.948  0.00  0.00    +0.321 C 
BRANCH   6   7
ATOM      7  O   UNL     1      40.160 -15.865 -15.135  0.00  0.00    -0.480 OA
ATOM      8  H   UNL     1      39.444 -16.098 -14.578  0.00  0.00    +0.295 HD
ENDBRANCH   6   7
ENDBRANCH   1   6
TORSDOF 3
ENDMDL
MODEL 8
REMARK VINA RESULT:      -4.4      2.155      3.305
REMARK  Name = 96
REMARK  3 active torsions:
REMARK  status: ('A' for Active; 'I' for Inactive)
REMARK    1  A    between atoms: C_1  and  C_3
REMARK    2  A    between atoms: C_1  and  C_6
REMARK    3  A    between atoms: C_6  and  O_7
REMARK                            x       y       z     vdW  Elec       q    Type
REMARK                         _______ _______ _______ _____ _____    ______ ____
ROOT
ATOM      1  C   UNL     1      37.938 -24.952 -13.668  0.00  0.00    +0.174 C 
ENDROOT
BRANCH   1   3
ATOM      2  O   UNL     1      38.387 -27.084 -14.698  0.00  0.00    -0.295 OA
ATOM      3  C   UNL     1      38.815 -25.989 -14.335  0.00  0.00    +0.162 C 
ATOM      4  C   UNL     1      40.254 -25.604 -14.554  0.00  0.00    +0.073 C 
ENDBRANCH   1   3
BRANCH   1   6
ATOM      5  O   UNL     1      37.818 -24.551 -11.291  0.00  0.00    -0.250 OA
ATOM      6  C   UNL     1      37.551 -25.266 -12.249  0.00  0.00    +0.321 C 
BRANCH   6   7
ATOM      7  O   UNL     1      36.874 -26.437 -12.140  0.00  0.00    -0.480 OA
ATOM      8  H   UNL     1      36.955 -27.087 -12.810  0.00  0.00    +0.295 HD
ENDBRANCH   6   7
ENDBRANCH   1   6
TORSDOF 3
ENDMDL
MODEL 9
REMARK VINA RESULT:      -4.4      8.569      9.329
REMARK  Name = 96
REMARK  3 active torsions:
REMARK  status: ('A' for Active; 'I' for Inactive)
REMARK    1  A    between atoms: C_1  and  C_3
REMARK    2  A    between atoms: C_1  and  C_6
REMARK    3  A    between atoms: C_6  and  O_7
REMARK                            x       y       z     vdW  Elec       q    Type
REMARK                         _______ _______ _______ _____ _____    ______ ____
ROOT
ATOM      1  C   UNL     1      34.438 -21.327 -19.591  0.00  0.00    +0.174 C 
ENDROOT
BRANCH   1   3
ATOM      2  O   UNL     1      32.458 -20.501 -20.685  0.00  0.00    -0.295 OA
ATOM      3  C   UNL     1      33.665 -20.381 -20.482  0.00  0.00    +0.162 C 
ATOM      4  C   UNL     1      34.451 -19.256 -21.102  0.00  0.00    +0.073 C 
ENDBRANCH   1   3
BRANCH   1   6
ATOM      5  O   UNL     1      34.042 -23.707 -19.525  0.00  0.00    -0.250 OA
ATOM      6  C   UNL     1      33.699 -22.578 -19.199  0.00  0.00    +0.321 C 
BRANCH   6   7
ATOM      7  O   UNL     1      32.601 -22.319 -18.445  0.00  0.00    -0.480 OA
ATOM      8  H   UNL     1      32.568 -21.546 -17.917  0.00  0.00    +0.295 HD
ENDBRANCH   6   7
ENDBRANCH   1   6
TORSDOF 3
ENDMDL
