MODEL 1
REMARK VINA RESULT:     -11.4      0.000      0.000
REMARK  Name = 46937155
REMARK  5 active torsions:
REMARK  status: ('A' for Active; 'I' for Inactive)
REMARK    1  A    between atoms: N_2  and  C_10
REMARK    2  A    between atoms: C_3  and  C_19
REMARK    3  A    between atoms: C_19  and  C_21
REMARK    4  A    between atoms: C_19  and  O_27
REMARK    5  A    between atoms: O_27  and  C_29
REMARK                            x       y       z     vdW  Elec       q    Type
REMARK                         _______ _______ _______ _____ _____    ______ ____
ROOT
ATOM      1  O   UNL     1      34.890 -15.785 -20.797  0.00  0.00    -0.270 OA
ATOM      2  N   UNL     1      33.247 -15.196 -22.374  0.00  0.00    -0.281 N 
ATOM      3  C   UNL     1      34.217 -16.026 -21.795  0.00  0.00    +0.271 C 
ATOM      4  H   UNL     1      32.810 -15.545 -23.184  0.00  0.00    +0.155 HD
ENDROOT
BRANCH   2  10
ATOM      5  O   UNL     1      33.953 -13.894 -24.572  0.00  0.00    -0.282 OA
ATOM      6  O   UNL     1      32.220  -9.243 -22.613  0.00  0.00    -0.270 OA
ATOM      7  O   UNL     1      34.163 -11.705 -26.007  0.00  0.00    -0.266 OA
ATOM      8  N   UNL     1      33.189 -10.464 -24.306  0.00  0.00    -0.246 N 
ATOM      9  C   UNL     1      32.941 -12.779 -22.724  0.00  0.00    +0.061 C 
ATOM     10  C   UNL     1      32.823 -13.934 -21.945  0.00  0.00    +0.054 C 
ATOM     11  C   UNL     1      32.495 -11.551 -22.235  0.00  0.00    +0.058 C 
ATOM     12  C   UNL     1      32.255 -13.857 -20.673  0.00  0.00    +0.015 C 
ATOM     13  C   UNL     1      33.539 -12.863 -24.064  0.00  0.00    +0.250 C 
ATOM     14  C   UNL     1      31.927 -11.479 -20.958  0.00  0.00    +0.005 C 
ATOM     15  C   UNL     1      32.615 -10.321 -23.048  0.00  0.00    +0.252 C 
ATOM     16  C   UNL     1      31.808 -12.633 -20.181  0.00  0.00    +0.001 C 
ATOM     17  C   UNL     1      33.664 -11.622 -24.894  0.00  0.00    +0.291 C 
ATOM     18  H   UNL     1      33.266  -9.642 -24.842  0.00  0.00    +0.158 HD
ENDBRANCH   2  10
BRANCH   3  19
ATOM     19  C   UNL     1      34.388 -17.329 -22.573  0.00  0.00    +0.267 C 
BRANCH  19  21
ATOM     20 CL   UNL     1      33.374 -21.412 -19.489  0.00  0.00    -0.082 Cl
ATOM     21  C   UNL     1      34.903 -18.440 -21.687  0.00  0.00    +0.027 C 
ATOM     22  C   UNL     1      34.006 -19.312 -21.069  0.00  0.00    +0.011 C 
ATOM     23  C   UNL     1      36.274 -18.595 -21.488  0.00  0.00    -0.000 C 
ATOM     24  C   UNL     1      34.481 -20.338 -20.253  0.00  0.00    +0.057 C 
ATOM     25  C   UNL     1      36.750 -19.621 -20.671  0.00  0.00    +0.001 C 
ATOM     26  C   UNL     1      35.853 -20.493 -20.054  0.00  0.00    +0.011 C 
ENDBRANCH  19  21
BRANCH  19  27
ATOM     27  O   UNL     1      35.308 -17.130 -23.637  0.00  0.00    -0.438 OA
BRANCH  27  29
ATOM     28  O   UNL     1      34.829 -16.668 -25.849  0.00  0.00    -0.250 OA
ATOM     29  C   UNL     1      34.844 -17.426 -24.889  0.00  0.00    +0.318 C 
ATOM     30  C   UNL     1      34.345 -18.840 -24.927  0.00  0.00    +0.121 C 
ENDBRANCH  27  29
ENDBRANCH  19  27
ENDBRANCH   3  19
TORSDOF 5
ENDMDL
MODEL 2
REMARK VINA RESULT:     -10.9      3.817      8.587
REMARK  Name = 46937155
REMARK  5 active torsions:
REMARK  status: ('A' for Active; 'I' for Inactive)
REMARK    1  A    between atoms: N_2  and  C_10
REMARK    2  A    between atoms: C_3  and  C_19
REMARK    3  A    between atoms: C_19  and  C_21
REMARK    4  A    between atoms: C_19  and  O_27
REMARK    5  A    between atoms: O_27  and  C_29
REMARK                            x       y       z     vdW  Elec       q    Type
REMARK                         _______ _______ _______ _____ _____    ______ ____
ROOT
ATOM      1  O   UNL     1      34.016 -11.323 -24.529  0.00  0.00    -0.270 OA
ATOM      2  N   UNL     1      32.704 -12.988 -23.509  0.00  0.00    -0.281 N 
ATOM      3  C   UNL     1      33.117 -11.675 -23.769  0.00  0.00    +0.271 C 
ATOM      4  H   UNL     1      31.971 -13.088 -22.859  0.00  0.00    +0.155 HD
ENDROOT
BRANCH   2  10
ATOM      5  O   UNL     1      33.684 -13.959 -21.245  0.00  0.00    -0.282 OA
ATOM      6  O   UNL     1      35.449 -18.372 -23.670  0.00  0.00    -0.270 OA
ATOM      7  O   UNL     1      34.935 -15.806 -19.861  0.00  0.00    -0.266 OA
ATOM      8  N   UNL     1      35.197 -17.099 -21.770  0.00  0.00    -0.246 N 
ATOM      9  C   UNL     1      33.865 -15.149 -23.303  0.00  0.00    +0.061 C 
ATOM     10  C   UNL     1      33.202 -14.175 -24.056  0.00  0.00    +0.054 C 
ATOM     11  C   UNL     1      34.335 -16.312 -23.912  0.00  0.00    +0.058 C 
ATOM     12  C   UNL     1      33.010 -14.369 -25.425  0.00  0.00    +0.015 C 
ATOM     13  C   UNL     1      34.064 -14.943 -21.862  0.00  0.00    +0.250 C 
ATOM     14  C   UNL     1      34.141 -16.501 -25.285  0.00  0.00    +0.005 C 
ATOM     15  C   UNL     1      35.038 -17.351 -23.128  0.00  0.00    +0.252 C 
ATOM     16  C   UNL     1      33.479 -15.529 -26.037  0.00  0.00    +0.001 C 
ATOM     17  C   UNL     1      34.775 -15.990 -21.059  0.00  0.00    +0.291 C 
ATOM     18  H   UNL     1      35.666 -17.793 -21.253  0.00  0.00    +0.158 HD
ENDBRANCH   2  10
BRANCH   3  19
ATOM     19  C   UNL     1      32.316 -10.656 -22.962  0.00  0.00    +0.267 C 
BRANCH  19  21
ATOM     20 CL   UNL     1      30.905  -5.874 -24.495  0.00  0.00    -0.082 Cl
ATOM     21  C   UNL     1      32.712  -9.239 -23.307  0.00  0.00    +0.027 C 
ATOM     22  C   UNL     1      31.739  -8.318 -23.696  0.00  0.00    +0.011 C 
ATOM     23  C   UNL     1      34.050  -8.852 -23.238  0.00  0.00    -0.000 C 
ATOM     24  C   UNL     1      32.105  -7.010 -24.014  0.00  0.00    +0.057 C 
ATOM     25  C   UNL     1      34.416  -7.544 -23.555  0.00  0.00    +0.001 C 
ATOM     26  C   UNL     1      33.443  -6.622 -23.943  0.00  0.00    +0.011 C 
ENDBRANCH  19  21
BRANCH  19  27
ATOM     27  O   UNL     1      32.539 -10.867 -21.575  0.00  0.00    -0.438 OA
BRANCH  27  29
ATOM     28  O   UNL     1      30.348 -11.381 -21.053  0.00  0.00    -0.250 OA
ATOM     29  C   UNL     1      31.423 -10.862 -20.784  0.00  0.00    +0.318 C 
ATOM     30  C   UNL     1      31.701 -10.116 -19.514  0.00  0.00    +0.121 C 
ENDBRANCH  27  29
ENDBRANCH  19  27
ENDBRANCH   3  19
TORSDOF 5
ENDMDL
MODEL 3
REMARK VINA RESULT:     -10.4      3.312      7.399
REMARK  Name = 46937155
REMARK  5 active torsions:
REMARK  status: ('A' for Active; 'I' for Inactive)
REMARK    1  A    between atoms: N_2  and  C_10
REMARK    2  A    between atoms: C_3  and  C_19
REMARK    3  A    between atoms: C_19  and  C_21
REMARK    4  A    between atoms: C_19  and  O_27
REMARK    5  A    between atoms: O_27  and  C_29
REMARK                            x       y       z     vdW  Elec       q    Type
REMARK                         _______ _______ _______ _____ _____    ______ ____
ROOT
ATOM      1  O   UNL     1      32.361 -13.239 -23.515  0.00  0.00    -0.270 OA
ATOM      2  N   UNL     1      34.589 -13.995 -23.484  0.00  0.00    -0.281 N 
ATOM      3  C   UNL     1      33.527 -13.179 -23.896  0.00  0.00    +0.271 C 
ATOM      4  H   UNL     1      35.460 -13.812 -23.904  0.00  0.00    +0.155 HD
ENDROOT
BRANCH   2  10
ATOM      5  O   UNL     1      34.630 -15.968 -25.254  0.00  0.00    -0.282 OA
ATOM      6  O   UNL     1      34.539 -19.677 -21.420  0.00  0.00    -0.270 OA
ATOM      7  O   UNL     1      34.642 -18.514 -25.892  0.00  0.00    -0.266 OA
ATOM      8  N   UNL     1      34.590 -19.104 -23.648  0.00  0.00    -0.246 N 
ATOM      9  C   UNL     1      34.573 -16.388 -22.908  0.00  0.00    +0.061 C 
ATOM     10  C   UNL     1      34.566 -15.036 -22.550  0.00  0.00    +0.054 C 
ATOM     11  C   UNL     1      34.551 -17.377 -21.925  0.00  0.00    +0.058 C 
ATOM     12  C   UNL     1      34.535 -14.676 -21.203  0.00  0.00    +0.015 C 
ATOM     13  C   UNL     1      34.607 -16.764 -24.328  0.00  0.00    +0.250 C 
ATOM     14  C   UNL     1      34.519 -17.011 -20.575  0.00  0.00    +0.005 C 
ATOM     15  C   UNL     1      34.559 -18.811 -22.289  0.00  0.00    +0.252 C 
ATOM     16  C   UNL     1      34.512 -15.662 -20.218  0.00  0.00    +0.001 C 
ATOM     17  C   UNL     1      34.615 -18.214 -24.706  0.00  0.00    +0.291 C 
ATOM     18  H   UNL     1      34.594 -20.060 -23.884  0.00  0.00    +0.158 HD
ENDBRANCH   2  10
BRANCH   3  19
ATOM     19  C   UNL     1      33.969 -12.154 -24.939  0.00  0.00    +0.267 C 
BRANCH  19  21
ATOM     20 CL   UNL     1      31.726  -8.573 -21.881  0.00  0.00    -0.082 Cl
ATOM     21  C   UNL     1      33.970 -10.753 -24.375  0.00  0.00    +0.027 C 
ATOM     22  C   UNL     1      32.965 -10.356 -23.491  0.00  0.00    +0.011 C 
ATOM     23  C   UNL     1      34.974  -9.855 -24.736  0.00  0.00    -0.000 C 
ATOM     24  C   UNL     1      32.966  -9.063 -22.970  0.00  0.00    +0.057 C 
ATOM     25  C   UNL     1      34.975  -8.562 -24.215  0.00  0.00    +0.001 C 
ATOM     26  C   UNL     1      33.971  -8.165 -23.331  0.00  0.00    +0.011 C 
ENDBRANCH  19  21
BRANCH  19  27
ATOM     27  O   UNL     1      33.086 -12.198 -26.051  0.00  0.00    -0.438 OA
BRANCH  27  29
ATOM     28  O   UNL     1      34.248 -13.176 -27.792  0.00  0.00    -0.250 OA
ATOM     29  C   UNL     1      33.338 -13.176 -26.974  0.00  0.00    +0.318 C 
ATOM     30  C   UNL     1      32.326 -14.275 -26.845  0.00  0.00    +0.121 C 
ENDBRANCH  27  29
ENDBRANCH  19  27
ENDBRANCH   3  19
TORSDOF 5
ENDMDL
MODEL 4
REMARK VINA RESULT:      -9.9      2.903      4.984
REMARK  Name = 46937155
REMARK  5 active torsions:
REMARK  status: ('A' for Active; 'I' for Inactive)
REMARK    1  A    between atoms: N_2  and  C_10
REMARK    2  A    between atoms: C_3  and  C_19
REMARK    3  A    between atoms: C_19  and  C_21
REMARK    4  A    between atoms: C_19  and  O_27
REMARK    5  A    between atoms: O_27  and  C_29
REMARK                            x       y       z     vdW  Elec       q    Type
REMARK                         _______ _______ _______ _____ _____    ______ ____
ROOT
ATOM      1  O   UNL     1      34.748 -11.768 -24.386  0.00  0.00    -0.270 OA
ATOM      2  N   UNL     1      32.644 -11.262 -23.464  0.00  0.00    -0.281 N 
ATOM      3  C   UNL     1      33.604 -12.084 -24.070  0.00  0.00    +0.271 C 
ATOM      4  H   UNL     1      31.769 -11.679 -23.291  0.00  0.00    +0.155 HD
ENDROOT
BRANCH   2  10
ATOM      5  O   UNL     1      31.750 -11.595 -20.991  0.00  0.00    -0.282 OA
ATOM      6  O   UNL     1      32.375  -6.419 -19.856  0.00  0.00    -0.270 OA
ATOM      7  O   UNL     1      31.125 -10.690 -18.608  0.00  0.00    -0.266 OA
ATOM      8  N   UNL     1      31.751  -8.543 -19.229  0.00  0.00    -0.246 N 
ATOM      9  C   UNL     1      32.435  -9.460 -21.801  0.00  0.00    +0.061 C 
ATOM     10  C   UNL     1      32.772  -9.925 -23.076  0.00  0.00    +0.054 C 
ATOM     11  C   UNL     1      32.590  -8.112 -21.478  0.00  0.00    +0.058 C 
ATOM     12  C   UNL     1      33.266  -9.034 -24.030  0.00  0.00    +0.015 C 
ATOM     13  C   UNL     1      31.916 -10.400 -20.798  0.00  0.00    +0.250 C 
ATOM     14  C   UNL     1      33.085  -7.223 -22.439  0.00  0.00    +0.005 C 
ATOM     15  C   UNL     1      32.237  -7.607 -20.134  0.00  0.00    +0.252 C 
ATOM     16  C   UNL     1      33.422  -7.687 -23.712  0.00  0.00    +0.001 C 
ATOM     17  C   UNL     1      31.556  -9.897 -19.433  0.00  0.00    +0.291 C 
ATOM     18  H   UNL     1      31.517  -8.201 -18.336  0.00  0.00    +0.158 HD
ENDBRANCH   2  10
BRANCH   3  19
ATOM     19  C   UNL     1      33.066 -13.488 -24.336  0.00  0.00    +0.267 C 
BRANCH  19  21
ATOM     20 CL   UNL     1      35.706 -17.414 -22.142  0.00  0.00    -0.082 Cl
ATOM     21  C   UNL     1      33.280 -14.398 -23.149  0.00  0.00    +0.027 C 
ATOM     22  C   UNL     1      34.278 -15.373 -23.188  0.00  0.00    +0.011 C 
ATOM     23  C   UNL     1      32.480 -14.266 -22.015  0.00  0.00    -0.000 C 
ATOM     24  C   UNL     1      34.476 -16.212 -22.093  0.00  0.00    +0.057 C 
ATOM     25  C   UNL     1      32.678 -15.106 -20.919  0.00  0.00    +0.001 C 
ATOM     26  C   UNL     1      33.676 -16.079 -20.957  0.00  0.00    +0.011 C 
ENDBRANCH  19  21
BRANCH  19  27
ATOM     27  O   UNL     1      33.727 -14.044 -25.463  0.00  0.00    -0.438 OA
BRANCH  27  29
ATOM     28  O   UNL     1      32.534 -15.627 -26.649  0.00  0.00    -0.250 OA
ATOM     29  C   UNL     1      32.916 -14.478 -26.476  0.00  0.00    +0.318 C 
ATOM     30  C   UNL     1      32.550 -13.328 -27.365  0.00  0.00    +0.121 C 
ENDBRANCH  27  29
ENDBRANCH  19  27
ENDBRANCH   3  19
TORSDOF 5
ENDMDL
MODEL 5
REMARK VINA RESULT:      -9.7      2.623      4.208
REMARK  Name = 46937155
REMARK  5 active torsions:
REMARK  status: ('A' for Active; 'I' for Inactive)
REMARK    1  A    between atoms: N_2  and  C_10
REMARK    2  A    between atoms: C_3  and  C_19
REMARK    3  A    between atoms: C_19  and  C_21
REMARK    4  A    between atoms: C_19  and  O_27
REMARK    5  A    between atoms: O_27  and  C_29
REMARK                            x       y       z     vdW  Elec       q    Type
REMARK                         _______ _______ _______ _____ _____    ______ ____
ROOT
ATOM      1  O   UNL     1      31.968 -14.212 -22.206  0.00  0.00    -0.270 OA
ATOM      2  N   UNL     1      32.608 -12.049 -22.875  0.00  0.00    -0.281 N 
ATOM      3  C   UNL     1      32.447 -13.433 -23.026  0.00  0.00    +0.271 C 
ATOM      4  H   UNL     1      33.024 -11.580 -23.633  0.00  0.00    +0.155 HD
ENDROOT
BRANCH   2  10
ATOM      5  O   UNL     1      33.421  -9.752 -23.918  0.00  0.00    -0.282 OA
ATOM      6  O   UNL     1      31.931  -7.026 -19.580  0.00  0.00    -0.270 OA
ATOM      7  O   UNL     1      33.779  -7.154 -23.814  0.00  0.00    -0.266 OA
ATOM      8  N   UNL     1      32.853  -7.083 -21.688  0.00  0.00    -0.246 N 
ATOM      9  C   UNL     1      32.448  -9.868 -21.745  0.00  0.00    +0.061 C 
ATOM     10  C   UNL     1      32.250 -11.252 -21.782  0.00  0.00    +0.054 C 
ATOM     11  C   UNL     1      32.066  -9.132 -20.624  0.00  0.00    +0.058 C 
ATOM     12  C   UNL     1      31.669 -11.899 -20.692  0.00  0.00    +0.015 C 
ATOM     13  C   UNL     1      33.059  -9.189 -22.896  0.00  0.00    +0.250 C 
ATOM     14  C   UNL     1      31.484  -9.786 -19.532  0.00  0.00    +0.005 C 
ATOM     15  C   UNL     1      32.269  -7.668 -20.570  0.00  0.00    +0.252 C 
ATOM     16  C   UNL     1      31.287 -11.168 -19.569  0.00  0.00    +0.001 C 
ATOM     17  C   UNL     1      33.269  -7.706 -22.850  0.00  0.00    +0.291 C 
ATOM     18  H   UNL     1      32.986  -6.109 -21.647  0.00  0.00    +0.158 HD
ENDBRANCH   2  10
BRANCH   3  19
ATOM     19  C   UNL     1      32.970 -13.923 -24.374  0.00  0.00    +0.267 C 
BRANCH  19  21
ATOM     20 CL   UNL     1      35.435 -17.387 -21.353  0.00  0.00    -0.082 Cl
ATOM     21  C   UNL     1      33.684 -15.248 -24.244  0.00  0.00    +0.027 C 
ATOM     22  C   UNL     1      34.173 -15.658 -23.003  0.00  0.00    +0.011 C 
ATOM     23  C   UNL     1      33.856 -16.062 -25.364  0.00  0.00    -0.000 C 
ATOM     24  C   UNL     1      34.832 -16.882 -22.883  0.00  0.00    +0.057 C 
ATOM     25  C   UNL     1      34.514 -17.285 -25.244  0.00  0.00    +0.001 C 
ATOM     26  C   UNL     1      35.002 -17.696 -24.003  0.00  0.00    +0.011 C 
ENDBRANCH  19  21
BRANCH  19  27
ATOM     27  O   UNL     1      33.875 -12.967 -24.908  0.00  0.00    -0.438 OA
BRANCH  27  29
ATOM     28  O   UNL     1      32.875 -13.146 -26.983  0.00  0.00    -0.250 OA
ATOM     29  C   UNL     1      33.683 -12.633 -26.221  0.00  0.00    +0.318 C 
ATOM     30  C   UNL     1      34.619 -11.528 -26.609  0.00  0.00    +0.121 C 
ENDBRANCH  27  29
ENDBRANCH  19  27
ENDBRANCH   3  19
TORSDOF 5
ENDMDL
MODEL 6
REMARK VINA RESULT:      -9.5     10.446     12.972
REMARK  Name = 46937155
REMARK  5 active torsions:
REMARK  status: ('A' for Active; 'I' for Inactive)
REMARK    1  A    between atoms: N_2  and  C_10
REMARK    2  A    between atoms: C_3  and  C_19
REMARK    3  A    between atoms: C_19  and  C_21
REMARK    4  A    between atoms: C_19  and  O_27
REMARK    5  A    between atoms: O_27  and  C_29
REMARK                            x       y       z     vdW  Elec       q    Type
REMARK                         _______ _______ _______ _____ _____    ______ ____
ROOT
ATOM      1  O   UNL     1      35.542 -25.732 -15.236  0.00  0.00    -0.270 OA
ATOM      2  N   UNL     1      35.069 -23.446 -14.940  0.00  0.00    -0.281 N 
ATOM      3  C   UNL     1      35.756 -24.645 -14.707  0.00  0.00    +0.271 C 
ATOM      4  H   UNL     1      35.368 -22.669 -14.416  0.00  0.00    +0.155 HD
ENDROOT
BRANCH   2  10
ATOM      5  O   UNL     1      33.129 -23.791 -13.167  0.00  0.00    -0.282 OA
ATOM      6  O   UNL     1      29.353 -22.854 -16.819  0.00  0.00    -0.270 OA
ATOM      7  O   UNL     1      30.595 -23.875 -12.486  0.00  0.00    -0.266 OA
ATOM      8  N   UNL     1      29.965 -23.363 -14.660  0.00  0.00    -0.246 N 
ATOM      9  C   UNL     1      32.667 -23.263 -15.445  0.00  0.00    +0.061 C 
ATOM     10  C   UNL     1      34.011 -23.216 -15.827  0.00  0.00    +0.054 C 
ATOM     11  C   UNL     1      31.661 -23.021 -16.380  0.00  0.00    +0.058 C 
ATOM     12  C   UNL     1      34.347 -22.925 -17.149  0.00  0.00    +0.015 C 
ATOM     13  C   UNL     1      32.316 -23.569 -14.051  0.00  0.00    +0.250 C 
ATOM     14  C   UNL     1      32.003 -22.730 -17.706  0.00  0.00    +0.005 C 
ATOM     15  C   UNL     1      30.234 -23.068 -15.991  0.00  0.00    +0.252 C 
ATOM     16  C   UNL     1      33.345 -22.682 -18.086  0.00  0.00    +0.001 C 
ATOM     17  C   UNL     1      30.874 -23.619 -13.649  0.00  0.00    +0.291 C 
ATOM     18  H   UNL     1      29.015 -23.394 -14.407  0.00  0.00    +0.158 HD
ENDBRANCH   2  10
BRANCH   3  19
ATOM     19  C   UNL     1      36.851 -24.477 -13.655  0.00  0.00    +0.267 C 
BRANCH  19  21
ATOM     20 CL   UNL     1      41.286 -27.209 -13.390  0.00  0.00    -0.082 Cl
ATOM     21  C   UNL     1      38.218 -24.782 -14.224  0.00  0.00    +0.027 C 
ATOM     22  C   UNL     1      39.027 -25.743 -13.616  0.00  0.00    +0.011 C 
ATOM     23  C   UNL     1      38.670 -24.105 -15.355  0.00  0.00    -0.000 C 
ATOM     24  C   UNL     1      40.288 -26.025 -14.141  0.00  0.00    +0.057 C 
ATOM     25  C   UNL     1      39.931 -24.388 -15.880  0.00  0.00    +0.001 C 
ATOM     26  C   UNL     1      40.740 -25.348 -15.274  0.00  0.00    +0.011 C 
ENDBRANCH  19  21
BRANCH  19  27
ATOM     27  O   UNL     1      36.603 -25.355 -12.567  0.00  0.00    -0.438 OA
BRANCH  27  29
ATOM     28  O   UNL     1      35.297 -25.300 -10.662  0.00  0.00    -0.250 OA
ATOM     29  C   UNL     1      36.082 -24.777 -11.442  0.00  0.00    +0.318 C 
ATOM     30  C   UNL     1      36.615 -23.384 -11.289  0.00  0.00    +0.121 C 
ENDBRANCH  27  29
ENDBRANCH  19  27
ENDBRANCH   3  19
TORSDOF 5
ENDMDL
MODEL 7
REMARK VINA RESULT:      -9.4      9.694     13.480
REMARK  Name = 46937155
REMARK  5 active torsions:
REMARK  status: ('A' for Active; 'I' for Inactive)
REMARK    1  A    between atoms: N_2  and  C_10
REMARK    2  A    between atoms: C_3  and  C_19
REMARK    3  A    between atoms: C_19  and  C_21
REMARK    4  A    between atoms: C_19  and  O_27
REMARK    5  A    between atoms: O_27  and  C_29
REMARK                            x       y       z     vdW  Elec       q    Type
REMARK                         _______ _______ _______ _____ _____    ______ ____
ROOT
ATOM      1  O   UNL     1      32.701 -23.742 -13.206  0.00  0.00    -0.270 OA
ATOM      2  N   UNL     1      34.560 -23.415 -14.611  0.00  0.00    -0.281 N 
ATOM      3  C   UNL     1      33.196 -23.442 -14.289  0.00  0.00    +0.271 C 
ATOM      4  H   UNL     1      34.778 -23.160 -15.536  0.00  0.00    +0.155 HD
ENDROOT
BRANCH   2  10
ATOM      5  O   UNL     1      35.375 -25.557 -15.942  0.00  0.00    -0.282 OA
ATOM      6  O   UNL     1      39.435 -26.353 -12.573  0.00  0.00    -0.270 OA
ATOM      7  O   UNL     1      37.006 -27.580 -16.309  0.00  0.00    -0.266 OA
ATOM      8  N   UNL     1      38.229 -26.969 -14.434  0.00  0.00    -0.246 N 
ATOM      9  C   UNL     1      36.508 -24.785 -13.993  0.00  0.00    +0.061 C 
ATOM     10  C   UNL     1      35.648 -23.703 -13.781  0.00  0.00    +0.054 C 
ATOM     11  C   UNL     1      37.578 -25.015 -13.127  0.00  0.00    +0.058 C 
ATOM     12  C   UNL     1      35.862 -22.849 -12.699  0.00  0.00    +0.015 C 
ATOM     13  C   UNL     1      36.282 -25.682 -15.134  0.00  0.00    +0.250 C 
ATOM     14  C   UNL     1      37.787 -24.155 -12.042  0.00  0.00    +0.005 C 
ATOM     15  C   UNL     1      38.495 -26.156 -13.338  0.00  0.00    +0.252 C 
ATOM     16  C   UNL     1      36.929 -23.075 -11.832  0.00  0.00    +0.001 C 
ATOM     17  C   UNL     1      37.206 -26.841 -15.355  0.00  0.00    +0.291 C 
ATOM     18  H   UNL     1      38.842 -27.727 -14.569  0.00  0.00    +0.158 HD
ENDBRANCH   2  10
BRANCH   3  19
ATOM     19  C   UNL     1      32.322 -23.061 -15.482  0.00  0.00    +0.267 C 
BRANCH  19  21
ATOM     20 CL   UNL     1      27.169 -22.300 -15.741  0.00  0.00    -0.082 Cl
ATOM     21  C   UNL     1      30.925 -23.619 -15.348  0.00  0.00    +0.027 C 
ATOM     22  C   UNL     1      29.820 -22.798 -15.579  0.00  0.00    +0.011 C 
ATOM     23  C   UNL     1      30.737 -24.954 -14.992  0.00  0.00    -0.000 C 
ATOM     24  C   UNL     1      28.530 -23.313 -15.456  0.00  0.00    +0.057 C 
ATOM     25  C   UNL     1      29.448 -25.469 -14.869  0.00  0.00    +0.001 C 
ATOM     26  C   UNL     1      28.343 -24.649 -15.101  0.00  0.00    +0.011 C 
ENDBRANCH  19  21
BRANCH  19  27
ATOM     27  O   UNL     1      32.903 -23.565 -16.676  0.00  0.00    -0.438 OA
BRANCH  27  29
ATOM     28  O   UNL     1      32.055 -22.099 -18.247  0.00  0.00    -0.250 OA
ATOM     29  C   UNL     1      32.991 -22.681 -17.716  0.00  0.00    +0.318 C 
ATOM     30  C   UNL     1      34.423 -22.518 -18.128  0.00  0.00    +0.121 C 
ENDBRANCH  27  29
ENDBRANCH  19  27
ENDBRANCH   3  19
TORSDOF 5
ENDMDL
MODEL 8
REMARK VINA RESULT:      -9.3      3.391      7.666
REMARK  Name = 46937155
REMARK  5 active torsions:
REMARK  status: ('A' for Active; 'I' for Inactive)
REMARK    1  A    between atoms: N_2  and  C_10
REMARK    2  A    between atoms: C_3  and  C_19
REMARK    3  A    between atoms: C_19  and  C_21
REMARK    4  A    between atoms: C_19  and  O_27
REMARK    5  A    between atoms: O_27  and  C_29
REMARK                            x       y       z     vdW  Elec       q    Type
REMARK                         _______ _______ _______ _____ _____    ______ ____
ROOT
ATOM      1  O   UNL     1      32.189 -14.142 -24.550  0.00  0.00    -0.270 OA
ATOM      2  N   UNL     1      34.489 -14.634 -24.502  0.00  0.00    -0.281 N 
ATOM      3  C   UNL     1      33.367 -13.798 -24.581  0.00  0.00    +0.271 C 
ATOM      4  H   UNL     1      35.364 -14.186 -24.556  0.00  0.00    +0.155 HD
ENDROOT
BRANCH   2  10
ATOM      5  O   UNL     1      34.763 -14.641 -21.866  0.00  0.00    -0.282 OA
ATOM      6  O   UNL     1      34.842 -19.973 -21.689  0.00  0.00    -0.270 OA
ATOM      7  O   UNL     1      35.019 -15.874 -19.562  0.00  0.00    -0.266 OA
ATOM      8  N   UNL     1      34.931 -17.935 -20.624  0.00  0.00    -0.246 N 
ATOM      9  C   UNL     1      34.657 -16.665 -23.121  0.00  0.00    +0.061 C 
ATOM     10  C   UNL     1      34.521 -16.025 -24.358  0.00  0.00    +0.054 C 
ATOM     11  C   UNL     1      34.680 -18.057 -23.048  0.00  0.00    +0.058 C 
ATOM     12  C   UNL     1      34.408 -16.784 -25.522  0.00  0.00    +0.015 C 
ATOM     13  C   UNL     1      34.775 -15.862 -21.896  0.00  0.00    +0.250 C 
ATOM     14  C   UNL     1      34.567 -18.814 -24.219  0.00  0.00    +0.005 C 
ATOM     15  C   UNL     1      34.823 -18.747 -21.747  0.00  0.00    +0.252 C 
ATOM     16  C   UNL     1      34.430 -18.175 -25.453  0.00  0.00    +0.001 C 
ATOM     17  C   UNL     1      34.921 -16.553 -20.575  0.00  0.00    +0.291 C 
ATOM     18  H   UNL     1      35.027 -18.400 -19.762  0.00  0.00    +0.158 HD
ENDBRANCH   2  10
BRANCH   3  19
ATOM     19  C   UNL     1      33.761 -12.331 -24.737  0.00  0.00    +0.267 C 
BRANCH  19  21
ATOM     20 CL   UNL     1      32.965  -7.584 -22.728  0.00  0.00    -0.082 Cl
ATOM     21  C   UNL     1      33.105 -11.464 -23.688  0.00  0.00    +0.027 C 
ATOM     22  C   UNL     1      33.313 -10.084 -23.692  0.00  0.00    +0.011 C 
ATOM     23  C   UNL     1      32.290 -12.043 -22.715  0.00  0.00    -0.000 C 
ATOM     24  C   UNL     1      32.707  -9.285 -22.724  0.00  0.00    +0.057 C 
ATOM     25  C   UNL     1      31.683 -11.243 -21.747  0.00  0.00    +0.001 C 
ATOM     26  C   UNL     1      31.891  -9.864 -21.751  0.00  0.00    +0.011 C 
ENDBRANCH  19  21
BRANCH  19  27
ATOM     27  O   UNL     1      33.369 -11.868 -26.022  0.00  0.00    -0.438 OA
BRANCH  27  29
ATOM     28  O   UNL     1      33.948 -13.251 -27.780  0.00  0.00    -0.250 OA
ATOM     29  C   UNL     1      34.151 -12.277 -27.067  0.00  0.00    +0.318 C 
ATOM     30  C   UNL     1      35.317 -11.349 -27.227  0.00  0.00    +0.121 C 
ENDBRANCH  27  29
ENDBRANCH  19  27
ENDBRANCH   3  19
TORSDOF 5
ENDMDL
MODEL 9
REMARK VINA RESULT:      -9.2      3.137      7.452
REMARK  Name = 46937155
REMARK  5 active torsions:
REMARK  status: ('A' for Active; 'I' for Inactive)
REMARK    1  A    between atoms: N_2  and  C_10
REMARK    2  A    between atoms: C_3  and  C_19
REMARK    3  A    between atoms: C_19  and  C_21
REMARK    4  A    between atoms: C_19  and  O_27
REMARK    5  A    between atoms: O_27  and  C_29
REMARK                            x       y       z     vdW  Elec       q    Type
REMARK                         _______ _______ _______ _____ _____    ______ ____
ROOT
ATOM      1  O   UNL     1      32.018 -13.134 -22.935  0.00  0.00    -0.270 OA
ATOM      2  N   UNL     1      34.340 -13.499 -22.847  0.00  0.00    -0.281 N 
ATOM      3  C   UNL     1      33.173 -12.796 -23.175  0.00  0.00    +0.271 C 
ATOM      4  H   UNL     1      35.187 -13.083 -23.129  0.00  0.00    +0.155 HD
ENDROOT
BRANCH   2  10
ATOM      5  O   UNL     1      34.458 -15.023 -25.013  0.00  0.00    -0.282 OA
ATOM      6  O   UNL     1      34.876 -19.474 -22.100  0.00  0.00    -0.270 OA
ATOM      7  O   UNL     1      34.652 -17.356 -26.201  0.00  0.00    -0.266 OA
ATOM      8  N   UNL     1      34.764 -18.425 -24.145  0.00  0.00    -0.246 N 
ATOM      9  C   UNL     1      34.557 -15.951 -22.819  0.00  0.00    +0.061 C 
ATOM     10  C   UNL     1      34.453 -14.717 -22.169  0.00  0.00    +0.054 C 
ATOM     11  C   UNL     1      34.668 -17.129 -22.081  0.00  0.00    +0.058 C 
ATOM     12  C   UNL     1      34.461 -14.665 -20.774  0.00  0.00    +0.015 C 
ATOM     13  C   UNL     1      34.549 -16.002 -24.287  0.00  0.00    +0.250 C 
ATOM     14  C   UNL     1      34.675 -17.071 -20.682  0.00  0.00    +0.005 C 
ATOM     15  C   UNL     1      34.778 -18.441 -22.755  0.00  0.00    +0.252 C 
ATOM     16  C   UNL     1      34.572 -15.840 -20.033  0.00  0.00    +0.001 C 
ATOM     17  C   UNL     1      34.660 -17.327 -24.979  0.00  0.00    +0.291 C 
ATOM     18  H   UNL     1      34.837 -19.301 -24.588  0.00  0.00    +0.158 HD
ENDBRANCH   2  10
BRANCH   3  19
ATOM     19  C   UNL     1      33.481 -11.500 -23.923  0.00  0.00    +0.267 C 
BRANCH  19  21
ATOM     20 CL   UNL     1      31.645  -9.290 -19.569  0.00  0.00    -0.082 Cl
ATOM     21  C   UNL     1      32.849 -10.306 -23.247  0.00  0.00    +0.027 C 
ATOM     22  C   UNL     1      32.571 -10.344 -21.879  0.00  0.00    +0.011 C 
ATOM     23  C   UNL     1      32.542  -9.165 -23.988  0.00  0.00    -0.000 C 
ATOM     24  C   UNL     1      31.988  -9.242 -21.255  0.00  0.00    +0.057 C 
ATOM     25  C   UNL     1      31.959  -8.063 -23.363  0.00  0.00    +0.001 C 
ATOM     26  C   UNL     1      31.682  -8.100 -21.996  0.00  0.00    +0.011 C 
ENDBRANCH  19  21
BRANCH  19  27
ATOM     27  O   UNL     1      32.985 -11.588 -25.251  0.00  0.00    -0.438 OA
BRANCH  27  29
ATOM     28  O   UNL     1      33.831 -12.674 -27.106  0.00  0.00    -0.250 OA
ATOM     29  C   UNL     1      33.918 -11.835 -26.220  0.00  0.00    +0.318 C 
ATOM     30  C   UNL     1      35.089 -10.915 -26.048  0.00  0.00    +0.121 C 
ENDBRANCH  27  29
ENDBRANCH  19  27
ENDBRANCH   3  19
TORSDOF 5
ENDMDL
