MODEL 1
REMARK VINA RESULT:      -5.2      0.000      0.000
REMARK  Name = 7048523
REMARK  5 active torsions:
REMARK  status: ('A' for Active; 'I' for Inactive)
REMARK    1  A    between atoms: C_2  and  C_3
REMARK    2  A    between atoms: C_2  and  C_8
REMARK    3  A    between atoms: C_3  and  C_4
REMARK    4  A    between atoms: C_4  and  C_7
REMARK    5  A    between atoms: C_8  and  N_9
REMARK                            x       y       z     vdW  Elec       q    Type
REMARK                         _______ _______ _______ _____ _____    ______ ____
ROOT
ATOM      1  O   UNL     1      36.789 -27.236 -16.047  0.00  0.00    -0.298 OA
ATOM      2  C   UNL     1      36.827 -26.410 -15.136  0.00  0.00    +0.129 C 
ENDROOT
BRANCH   2   3
ATOM      3  C   UNL     1      37.878 -26.457 -14.037  0.00  0.00    +0.074 C 
BRANCH   3   4
ATOM      4  C   UNL     1      39.027 -25.481 -14.255  0.00  0.00    +0.122 C 
BRANCH   4   7
ATOM      5  O   UNL     1      40.580 -25.993 -15.946  0.00  0.00    -0.246 OA
ATOM      6  O   UNL     1      41.087 -26.587 -13.801  0.00  0.00    -0.246 OA
ATOM      7  C   UNL     1      40.364 -26.084 -14.702  0.00  0.00    +0.365 C 
ENDBRANCH   4   7
ENDBRANCH   3   4
ENDBRANCH   2   3
BRANCH   2   8
ATOM      8  C   UNL     1      35.838 -25.272 -15.042  0.00  0.00    -0.020 C 
BRANCH   8   9
ATOM      9  N   UNL     1      35.339 -25.098 -13.656  0.00  0.00    +0.385 N 
ATOM     10  H   UNL     1      36.040 -24.607 -13.101  0.00  0.00    -0.089 HD
ATOM     11  H   UNL     1      35.156 -26.012 -13.244  0.00  0.00    -0.089 HD
ATOM     12  H   UNL     1      34.475 -24.554 -13.672  0.00  0.00    -0.089 HD
ENDBRANCH   8   9
ENDBRANCH   2   8
TORSDOF 5
ENDMDL
MODEL 2
REMARK VINA RESULT:      -5.2      1.920      2.259
REMARK  Name = 7048523
REMARK  5 active torsions:
REMARK  status: ('A' for Active; 'I' for Inactive)
REMARK    1  A    between atoms: C_2  and  C_3
REMARK    2  A    between atoms: C_2  and  C_8
REMARK    3  A    between atoms: C_3  and  C_4
REMARK    4  A    between atoms: C_4  and  C_7
REMARK    5  A    between atoms: C_8  and  N_9
REMARK                            x       y       z     vdW  Elec       q    Type
REMARK                         _______ _______ _______ _____ _____    ______ ____
ROOT
ATOM      1  O   UNL     1      37.178 -26.388 -12.043  0.00  0.00    -0.298 OA
ATOM      2  C   UNL     1      37.436 -26.100 -13.211  0.00  0.00    +0.129 C 
ENDROOT
BRANCH   2   3
ATOM      3  C   UNL     1      38.090 -24.781 -13.600  0.00  0.00    +0.074 C 
BRANCH   3   4
ATOM      4  C   UNL     1      38.786 -24.826 -14.953  0.00  0.00    +0.122 C 
BRANCH   4   7
ATOM      5  O   UNL     1      40.943 -24.768 -14.015  0.00  0.00    -0.246 OA
ATOM      6  O   UNL     1      40.608 -26.058 -15.869  0.00  0.00    -0.246 OA
ATOM      7  C   UNL     1      40.256 -25.265 -14.955  0.00  0.00    +0.365 C 
ENDBRANCH   4   7
ENDBRANCH   3   4
ENDBRANCH   2   3
BRANCH   2   8
ATOM      8  C   UNL     1      37.136 -27.039 -14.355  0.00  0.00    -0.020 C 
BRANCH   8   9
ATOM      9  N   UNL     1      35.842 -26.713 -15.003  0.00  0.00    +0.385 N 
ATOM     10  H   UNL     1      35.527 -25.795 -14.690  0.00  0.00    -0.089 HD
ATOM     11  H   UNL     1      35.149 -27.416 -14.749  0.00  0.00    -0.089 HD
ATOM     12  H   UNL     1      35.963 -26.704 -16.017  0.00  0.00    -0.089 HD
ENDBRANCH   8   9
ENDBRANCH   2   8
TORSDOF 5
ENDMDL
MODEL 3
REMARK VINA RESULT:      -5.1      2.521      3.060
REMARK  Name = 7048523
REMARK  5 active torsions:
REMARK  status: ('A' for Active; 'I' for Inactive)
REMARK    1  A    between atoms: C_2  and  C_3
REMARK    2  A    between atoms: C_2  and  C_8
REMARK    3  A    between atoms: C_3  and  C_4
REMARK    4  A    between atoms: C_4  and  C_7
REMARK    5  A    between atoms: C_8  and  N_9
REMARK                            x       y       z     vdW  Elec       q    Type
REMARK                         _______ _______ _______ _____ _____    ______ ____
ROOT
ATOM      1  O   UNL     1      38.773 -23.174 -11.697  0.00  0.00    -0.298 OA
ATOM      2  C   UNL     1      37.891 -23.978 -11.995  0.00  0.00    +0.129 C 
ENDROOT
BRANCH   2   3
ATOM      3  C   UNL     1      38.199 -25.328 -12.627  0.00  0.00    +0.074 C 
BRANCH   3   4
ATOM      4  C   UNL     1      38.668 -25.227 -14.073  0.00  0.00    +0.122 C 
BRANCH   4   7
ATOM      5  O   UNL     1      40.931 -24.602 -14.221  0.00  0.00    -0.246 OA
ATOM      6  O   UNL     1      40.382 -26.777 -14.650  0.00  0.00    -0.246 OA
ATOM      7  C   UNL     1      40.135 -25.579 -14.345  0.00  0.00    +0.365 C 
ENDBRANCH   4   7
ENDBRANCH   3   4
ENDBRANCH   2   3
BRANCH   2   8
ATOM      8  C   UNL     1      36.428 -23.696 -11.745  0.00  0.00    -0.020 C 
BRANCH   8   9
ATOM      9  N   UNL     1      35.738 -23.262 -12.984  0.00  0.00    +0.385 N 
ATOM     10  H   UNL     1      36.311 -22.572 -13.469  0.00  0.00    -0.089 HD
ATOM     11  H   UNL     1      34.837 -22.848 -12.743  0.00  0.00    -0.089 HD
ATOM     12  H   UNL     1      35.590 -24.069 -13.591  0.00  0.00    -0.089 HD
ENDBRANCH   8   9
ENDBRANCH   2   8
TORSDOF 5
ENDMDL
MODEL 4
REMARK VINA RESULT:      -5.1      8.443      9.872
REMARK  Name = 7048523
REMARK  5 active torsions:
REMARK  status: ('A' for Active; 'I' for Inactive)
REMARK    1  A    between atoms: C_2  and  C_3
REMARK    2  A    between atoms: C_2  and  C_8
REMARK    3  A    between atoms: C_3  and  C_4
REMARK    4  A    between atoms: C_4  and  C_7
REMARK    5  A    between atoms: C_8  and  N_9
REMARK                            x       y       z     vdW  Elec       q    Type
REMARK                         _______ _______ _______ _____ _____    ______ ____
ROOT
ATOM      1  O   UNL     1      30.861 -23.769 -12.927  0.00  0.00    -0.298 OA
ATOM      2  C   UNL     1      30.447 -23.887 -14.080  0.00  0.00    +0.129 C 
ENDROOT
BRANCH   2   3
ATOM      3  C   UNL     1      30.199 -22.688 -14.984  0.00  0.00    +0.074 C 
BRANCH   3   4
ATOM      4  C   UNL     1      29.899 -23.069 -16.427  0.00  0.00    +0.122 C 
BRANCH   4   7
ATOM      5  O   UNL     1      27.914 -24.054 -17.219  0.00  0.00    -0.246 OA
ATOM      6  O   UNL     1      27.930 -21.799 -16.858  0.00  0.00    -0.246 OA
ATOM      7  C   UNL     1      28.438 -22.953 -16.879  0.00  0.00    +0.365 C 
ENDBRANCH   4   7
ENDBRANCH   3   4
ENDBRANCH   2   3
BRANCH   2   8
ATOM      8  C   UNL     1      30.164 -25.236 -14.697  0.00  0.00    -0.020 C 
BRANCH   8   9
ATOM      9  N   UNL     1      28.785 -25.694 -14.397  0.00  0.00    +0.385 N 
ATOM     10  H   UNL     1      28.163 -25.421 -15.158  0.00  0.00    -0.089 HD
ATOM     11  H   UNL     1      28.468 -25.266 -13.528  0.00  0.00    -0.089 HD
ATOM     12  H   UNL     1      28.779 -26.710 -14.299  0.00  0.00    -0.089 HD
ENDBRANCH   8   9
ENDBRANCH   2   8
TORSDOF 5
ENDMDL
MODEL 5
REMARK VINA RESULT:      -5.0      3.787      4.600
REMARK  Name = 7048523
REMARK  5 active torsions:
REMARK  status: ('A' for Active; 'I' for Inactive)
REMARK    1  A    between atoms: C_2  and  C_3
REMARK    2  A    between atoms: C_2  and  C_8
REMARK    3  A    between atoms: C_3  and  C_4
REMARK    4  A    between atoms: C_4  and  C_7
REMARK    5  A    between atoms: C_8  and  N_9
REMARK                            x       y       z     vdW  Elec       q    Type
REMARK                         _______ _______ _______ _____ _____    ______ ____
ROOT
ATOM      1  O   UNL     1      38.579 -24.136 -14.529  0.00  0.00    -0.298 OA
ATOM      2  C   UNL     1      38.180 -24.765 -13.550  0.00  0.00    +0.129 C 
ENDROOT
BRANCH   2   3
ATOM      3  C   UNL     1      38.178 -24.174 -12.147  0.00  0.00    +0.074 C 
BRANCH   3   4
ATOM      4  C   UNL     1      36.879 -23.463 -11.791  0.00  0.00    +0.122 C 
BRANCH   4   7
ATOM      5  O   UNL     1      34.994 -24.865 -11.662  0.00  0.00    -0.246 OA
ATOM      6  O   UNL     1      36.005 -24.237  -9.714  0.00  0.00    -0.246 OA
ATOM      7  C   UNL     1      35.862 -24.263 -10.966  0.00  0.00    +0.365 C 
ENDBRANCH   4   7
ENDBRANCH   3   4
ENDBRANCH   2   3
BRANCH   2   8
ATOM      8  C   UNL     1      37.647 -26.174 -13.662  0.00  0.00    -0.020 C 
BRANCH   8   9
ATOM      9  N   UNL     1      36.244 -26.189 -14.143  0.00  0.00    +0.385 N 
ATOM     10  H   UNL     1      35.664 -25.627 -13.520  0.00  0.00    -0.089 HD
ATOM     11  H   UNL     1      35.899 -27.149 -14.156  0.00  0.00    -0.089 HD
ATOM     12  H   UNL     1      36.205 -25.802 -15.087  0.00  0.00    -0.089 HD
ENDBRANCH   8   9
ENDBRANCH   2   8
TORSDOF 5
ENDMDL
MODEL 6
REMARK VINA RESULT:      -4.9      3.085      3.608
REMARK  Name = 7048523
REMARK  5 active torsions:
REMARK  status: ('A' for Active; 'I' for Inactive)
REMARK    1  A    between atoms: C_2  and  C_3
REMARK    2  A    between atoms: C_2  and  C_8
REMARK    3  A    between atoms: C_3  and  C_4
REMARK    4  A    between atoms: C_4  and  C_7
REMARK    5  A    between atoms: C_8  and  N_9
REMARK                            x       y       z     vdW  Elec       q    Type
REMARK                         _______ _______ _______ _____ _____    ______ ____
ROOT
ATOM      1  O   UNL     1      35.708 -25.158 -15.644  0.00  0.00    -0.298 OA
ATOM      2  C   UNL     1      36.739 -25.034 -14.983  0.00  0.00    +0.129 C 
ENDROOT
BRANCH   2   3
ATOM      3  C   UNL     1      37.198 -23.691 -14.433  0.00  0.00    +0.074 C 
BRANCH   3   4
ATOM      4  C   UNL     1      36.706 -23.417 -13.018  0.00  0.00    +0.122 C 
BRANCH   4   7
ATOM      5  O   UNL     1      37.693 -24.766 -11.363  0.00  0.00    -0.246 OA
ATOM      6  O   UNL     1      38.463 -22.631 -11.614  0.00  0.00    -0.246 OA
ATOM      7  C   UNL     1      37.723 -23.614 -11.887  0.00  0.00    +0.365 C 
ENDBRANCH   4   7
ENDBRANCH   3   4
ENDBRANCH   2   3
BRANCH   2   8
ATOM      8  C   UNL     1      37.629 -26.210 -14.655  0.00  0.00    -0.020 C 
BRANCH   8   9
ATOM      9  N   UNL     1      37.099 -26.991 -13.511  0.00  0.00    +0.385 N 
ATOM     10  H   UNL     1      36.591 -26.370 -12.881  0.00  0.00    -0.089 HD
ATOM     11  H   UNL     1      37.873 -27.425 -13.009  0.00  0.00    -0.089 HD
ATOM     12  H   UNL     1      36.470 -27.716 -13.857  0.00  0.00    -0.089 HD
ENDBRANCH   8   9
ENDBRANCH   2   8
TORSDOF 5
ENDMDL
MODEL 7
REMARK VINA RESULT:      -4.9      8.301      9.680
REMARK  Name = 7048523
REMARK  5 active torsions:
REMARK  status: ('A' for Active; 'I' for Inactive)
REMARK    1  A    between atoms: C_2  and  C_3
REMARK    2  A    between atoms: C_2  and  C_8
REMARK    3  A    between atoms: C_3  and  C_4
REMARK    4  A    between atoms: C_4  and  C_7
REMARK    5  A    between atoms: C_8  and  N_9
REMARK                            x       y       z     vdW  Elec       q    Type
REMARK                         _______ _______ _______ _____ _____    ______ ____
ROOT
ATOM      1  O   UNL     1      36.068 -18.893 -20.517  0.00  0.00    -0.298 OA
ATOM      2  C   UNL     1      35.064 -19.214 -21.153  0.00  0.00    +0.129 C 
ENDROOT
BRANCH   2   3
ATOM      3  C   UNL     1      34.019 -20.171 -20.598  0.00  0.00    +0.074 C 
BRANCH   3   4
ATOM      4  C   UNL     1      34.601 -21.236 -19.678  0.00  0.00    +0.122 C 
BRANCH   4   7
ATOM      5  O   UNL     1      34.113 -23.532 -19.519  0.00  0.00    -0.246 OA
ATOM      6  O   UNL     1      32.570 -22.045 -18.731  0.00  0.00    -0.246 OA
ATOM      7  C   UNL     1      33.662 -22.377 -19.267  0.00  0.00    +0.365 C 
ENDBRANCH   4   7
ENDBRANCH   3   4
ENDBRANCH   2   3
BRANCH   2   8
ATOM      8  C   UNL     1      34.781 -18.672 -22.535  0.00  0.00    -0.020 C 
BRANCH   8   9
ATOM      9  N   UNL     1      36.018 -18.183 -23.192  0.00  0.00    +0.385 N 
ATOM     10  H   UNL     1      36.026 -17.164 -23.185  0.00  0.00    -0.089 HD
ATOM     11  H   UNL     1      36.045 -18.518 -24.155  0.00  0.00    -0.089 HD
ATOM     12  H   UNL     1      36.832 -18.535 -22.687  0.00  0.00    -0.089 HD
ENDBRANCH   8   9
ENDBRANCH   2   8
TORSDOF 5
ENDMDL
MODEL 8
REMARK VINA RESULT:      -4.9      2.475      2.841
REMARK  Name = 7048523
REMARK  5 active torsions:
REMARK  status: ('A' for Active; 'I' for Inactive)
REMARK    1  A    between atoms: C_2  and  C_3
REMARK    2  A    between atoms: C_2  and  C_8
REMARK    3  A    between atoms: C_3  and  C_4
REMARK    4  A    between atoms: C_4  and  C_7
REMARK    5  A    between atoms: C_8  and  N_9
REMARK                            x       y       z     vdW  Elec       q    Type
REMARK                         _______ _______ _______ _____ _____    ______ ____
ROOT
ATOM      1  O   UNL     1      36.491 -26.920 -15.807  0.00  0.00    -0.298 OA
ATOM      2  C   UNL     1      36.581 -26.103 -14.891  0.00  0.00    +0.129 C 
ENDROOT
BRANCH   2   3
ATOM      3  C   UNL     1      37.553 -26.282 -13.733  0.00  0.00    +0.074 C 
BRANCH   3   4
ATOM      4  C   UNL     1      38.330 -25.017 -13.394  0.00  0.00    +0.122 C 
BRANCH   4   7
ATOM      5  O   UNL     1      37.009 -24.854 -11.455  0.00  0.00    -0.246 OA
ATOM      6  O   UNL     1      38.745 -23.393 -11.701  0.00  0.00    -0.246 OA
ATOM      7  C   UNL     1      38.002 -24.348 -12.053  0.00  0.00    +0.365 C 
ENDBRANCH   4   7
ENDBRANCH   3   4
ENDBRANCH   2   3
BRANCH   2   8
ATOM      8  C   UNL     1      35.742 -24.848 -14.847  0.00  0.00    -0.020 C 
BRANCH   8   9
ATOM      9  N   UNL     1      34.772 -24.881 -13.725  0.00  0.00    +0.385 N 
ATOM     10  H   UNL     1      35.072 -25.570 -13.036  0.00  0.00    -0.089 HD
ATOM     11  H   UNL     1      33.850 -25.133 -14.080  0.00  0.00    -0.089 HD
ATOM     12  H   UNL     1      34.728 -23.959 -13.288  0.00  0.00    -0.089 HD
ENDBRANCH   8   9
ENDBRANCH   2   8
TORSDOF 5
ENDMDL
MODEL 9
REMARK VINA RESULT:      -4.9      2.735      3.617
REMARK  Name = 7048523
REMARK  5 active torsions:
REMARK  status: ('A' for Active; 'I' for Inactive)
REMARK    1  A    between atoms: C_2  and  C_3
REMARK    2  A    between atoms: C_2  and  C_8
REMARK    3  A    between atoms: C_3  and  C_4
REMARK    4  A    between atoms: C_4  and  C_7
REMARK    5  A    between atoms: C_8  and  N_9
REMARK                            x       y       z     vdW  Elec       q    Type
REMARK                         _______ _______ _______ _____ _____    ______ ____
ROOT
ATOM      1  O   UNL     1      38.343 -22.748 -11.616  0.00  0.00    -0.298 OA
ATOM      2  C   UNL     1      37.597 -23.667 -11.953  0.00  0.00    +0.129 C 
ENDROOT
BRANCH   2   3
ATOM      3  C   UNL     1      38.117 -25.056 -12.292  0.00  0.00    +0.074 C 
BRANCH   3   4
ATOM      4  C   UNL     1      38.676 -25.166 -13.704  0.00  0.00    +0.122 C 
BRANCH   4   7
ATOM      5  O   UNL     1      38.206 -27.193 -14.801  0.00  0.00    -0.246 OA
ATOM      6  O   UNL     1      36.930 -25.370 -15.311  0.00  0.00    -0.246 OA
ATOM      7  C   UNL     1      37.852 -25.982 -14.708  0.00  0.00    +0.365 C 
ENDBRANCH   4   7
ENDBRANCH   3   4
ENDBRANCH   2   3
BRANCH   2   8
ATOM      8  C   UNL     1      36.099 -23.493 -12.047  0.00  0.00    -0.020 C 
BRANCH   8   9
ATOM      9  N   UNL     1      35.670 -23.205 -13.437  0.00  0.00    +0.385 N 
ATOM     10  H   UNL     1      34.652 -23.177 -13.480  0.00  0.00    -0.089 HD
ATOM     11  H   UNL     1      36.018 -23.936 -14.057  0.00  0.00    -0.089 HD
ATOM     12  H   UNL     1      36.049 -22.303 -13.730  0.00  0.00    -0.089 HD
ENDBRANCH   8   9
ENDBRANCH   2   8
TORSDOF 5
ENDMDL
