MODEL 1
REMARK VINA RESULT:      -9.3      0.000      0.000
REMARK  Name = 667639
REMARK  6 active torsions:
REMARK  status: ('A' for Active; 'I' for Inactive)
REMARK    1  A    between atoms: C_1  and  C_3
REMARK    2  A    between atoms: C_2  and  C_13
REMARK    3  A    between atoms: C_6  and  O_9
REMARK    4  A    between atoms: C_7  and  O_11
REMARK    5  A    between atoms: C_16  and  O_19
REMARK    6  A    between atoms: C_18  and  O_21
REMARK                            x       y       z     vdW  Elec       q    Type
REMARK                         _______ _______ _______ _____ _____    ______ ____
ROOT
ATOM      1  C   UNL     1      34.677 -18.221 -21.222  0.00  0.00    +0.000 C 
ATOM      2  C   UNL     1      34.586 -19.564 -21.375  0.00  0.00    +0.000 C 
ENDROOT
BRANCH   1   3
ATOM      3  C   UNL     1      34.641 -17.237 -22.318  0.00  0.00    +0.006 C 
ATOM      4  C   UNL     1      34.717 -17.679 -23.629  0.00  0.00    +0.037 C 
ATOM      5  C   UNL     1      34.533 -15.890 -22.017  0.00  0.00    +0.037 C 
ATOM      6  C   UNL     1      34.499 -14.959 -23.055  0.00  0.00    +0.137 C 
ATOM      7  C   UNL     1      34.683 -16.748 -24.667  0.00  0.00    +0.137 C 
ATOM      8  C   UNL     1      34.575 -15.387 -24.380  0.00  0.00    +0.073 C 
BRANCH   6   9
ATOM      9  O   UNL     1      34.392 -13.630 -22.775  0.00  0.00    -0.505 OA
ATOM     10  H   UNL     1      35.156 -13.136 -22.551  0.00  0.00    +0.292 HD
ENDBRANCH   6   9
BRANCH   7  11
ATOM     11  O   UNL     1      34.757 -17.167 -25.960  0.00  0.00    -0.505 OA
ATOM     12  H   UNL     1      35.226 -16.659 -26.591  0.00  0.00    +0.292 HD
ENDBRANCH   7  11
ENDBRANCH   1   3
BRANCH   2  13
ATOM     13  C   UNL     1      34.641 -20.537 -20.295  0.00  0.00    +0.003 C 
ATOM     14  C   UNL     1      33.462 -21.078 -19.783  0.00  0.00    +0.040 C 
ATOM     15  C   UNL     1      35.873 -20.927 -19.769  0.00  0.00    +0.003 C 
ATOM     16  C   UNL     1      33.515 -22.010 -18.747  0.00  0.00    +0.167 C 
ATOM     17  C   UNL     1      35.925 -21.857 -18.733  0.00  0.00    +0.040 C 
ATOM     18  C   UNL     1      34.746 -22.400 -18.221  0.00  0.00    +0.167 C 
BRANCH  16  19
ATOM     19  O   UNL     1      32.356 -22.533 -18.257  0.00  0.00    -0.503 OA
ATOM     20  H   UNL     1      31.838 -22.040 -17.651  0.00  0.00    +0.292 HD
ENDBRANCH  16  19
BRANCH  18  21
ATOM     21  O   UNL     1      34.810 -23.310 -17.210  0.00  0.00    -0.503 OA
ATOM     22  H   UNL     1      35.321 -24.089 -17.312  0.00  0.00    +0.292 HD
ENDBRANCH  18  21
ENDBRANCH   2  13
TORSDOF 6
ENDMDL
MODEL 2
REMARK VINA RESULT:      -9.2      0.019      1.957
REMARK  Name = 667639
REMARK  6 active torsions:
REMARK  status: ('A' for Active; 'I' for Inactive)
REMARK    1  A    between atoms: C_1  and  C_3
REMARK    2  A    between atoms: C_2  and  C_13
REMARK    3  A    between atoms: C_6  and  O_9
REMARK    4  A    between atoms: C_7  and  O_11
REMARK    5  A    between atoms: C_16  and  O_19
REMARK    6  A    between atoms: C_18  and  O_21
REMARK                            x       y       z     vdW  Elec       q    Type
REMARK                         _______ _______ _______ _____ _____    ______ ____
ROOT
ATOM      1  C   UNL     1      34.649 -18.223 -21.221  0.00  0.00    +0.000 C 
ATOM      2  C   UNL     1      34.626 -19.568 -21.377  0.00  0.00    +0.000 C 
ENDROOT
BRANCH   1   3
ATOM      3  C   UNL     1      34.626 -17.241 -22.319  0.00  0.00    +0.006 C 
ATOM      4  C   UNL     1      34.527 -15.891 -22.020  0.00  0.00    +0.037 C 
ATOM      5  C   UNL     1      34.704 -17.685 -23.628  0.00  0.00    +0.037 C 
ATOM      6  C   UNL     1      34.682 -16.755 -24.667  0.00  0.00    +0.137 C 
ATOM      7  C   UNL     1      34.505 -14.962 -23.059  0.00  0.00    +0.137 C 
ATOM      8  C   UNL     1      34.582 -15.393 -24.383  0.00  0.00    +0.073 C 
BRANCH   6   9
ATOM      9  O   UNL     1      34.758 -17.176 -25.960  0.00  0.00    -0.505 OA
ATOM     10  H   UNL     1      34.947 -18.074 -26.150  0.00  0.00    +0.292 HD
ENDBRANCH   6   9
BRANCH   7  11
ATOM     11  O   UNL     1      34.408 -13.633 -22.781  0.00  0.00    -0.505 OA
ATOM     12  H   UNL     1      33.594 -13.187 -22.902  0.00  0.00    +0.292 HD
ENDBRANCH   7  11
ENDBRANCH   1   3
BRANCH   2  13
ATOM     13  C   UNL     1      34.668 -20.539 -20.294  0.00  0.00    +0.003 C 
ATOM     14  C   UNL     1      33.483 -21.075 -19.791  0.00  0.00    +0.040 C 
ATOM     15  C   UNL     1      35.894 -20.932 -19.758  0.00  0.00    +0.003 C 
ATOM     16  C   UNL     1      33.524 -22.005 -18.752  0.00  0.00    +0.167 C 
ATOM     17  C   UNL     1      35.935 -21.861 -18.719  0.00  0.00    +0.040 C 
ATOM     18  C   UNL     1      34.750 -22.399 -18.216  0.00  0.00    +0.167 C 
BRANCH  16  19
ATOM     19  O   UNL     1      32.359 -22.523 -18.271  0.00  0.00    -0.503 OA
ATOM     20  H   UNL     1      32.239 -22.627 -17.347  0.00  0.00    +0.292 HD
ENDBRANCH  16  19
BRANCH  18  21
ATOM     21  O   UNL     1      34.802 -23.306 -17.202  0.00  0.00    -0.503 OA
ATOM     22  H   UNL     1      35.620 -23.696 -16.964  0.00  0.00    +0.292 HD
ENDBRANCH  18  21
ENDBRANCH   2  13
TORSDOF 6
ENDMDL
MODEL 3
REMARK VINA RESULT:      -9.1      1.274      7.672
REMARK  Name = 667639
REMARK  6 active torsions:
REMARK  status: ('A' for Active; 'I' for Inactive)
REMARK    1  A    between atoms: C_1  and  C_3
REMARK    2  A    between atoms: C_2  and  C_13
REMARK    3  A    between atoms: C_6  and  O_9
REMARK    4  A    between atoms: C_7  and  O_11
REMARK    5  A    between atoms: C_16  and  O_19
REMARK    6  A    between atoms: C_18  and  O_21
REMARK                            x       y       z     vdW  Elec       q    Type
REMARK                         _______ _______ _______ _____ _____    ______ ____
ROOT
ATOM      1  C   UNL     1      35.352 -20.587 -20.716  0.00  0.00    +0.000 C 
ATOM      2  C   UNL     1      34.677 -19.440 -20.967  0.00  0.00    +0.000 C 
ENDROOT
BRANCH   1   3
ATOM      3  C   UNL     1      35.320 -21.329 -19.443  0.00  0.00    +0.006 C 
ATOM      4  C   UNL     1      36.445 -21.338 -18.635  0.00  0.00    +0.037 C 
ATOM      5  C   UNL     1      34.166 -22.003 -19.080  0.00  0.00    +0.037 C 
ATOM      6  C   UNL     1      34.136 -22.705 -17.875  0.00  0.00    +0.137 C 
ATOM      7  C   UNL     1      36.415 -22.041 -17.430  0.00  0.00    +0.137 C 
ATOM      8  C   UNL     1      35.260 -22.725 -17.050  0.00  0.00    +0.073 C 
BRANCH   6   9
ATOM      9  O   UNL     1      33.008 -23.372 -17.504  0.00  0.00    -0.505 OA
ATOM     10  H   UNL     1      32.265 -22.897 -17.187  0.00  0.00    +0.292 HD
ENDBRANCH   6   9
BRANCH   7  11
ATOM     11  O   UNL     1      37.513 -22.059 -16.625  0.00  0.00    -0.505 OA
ATOM     12  H   UNL     1      38.038 -21.290 -16.532  0.00  0.00    +0.292 HD
ENDBRANCH   7  11
ENDBRANCH   1   3
BRANCH   2  13
ATOM     13  C   UNL     1      34.724 -18.697 -22.217  0.00  0.00    +0.003 C 
ATOM     14  C   UNL     1      34.863 -17.309 -22.199  0.00  0.00    +0.040 C 
ATOM     15  C   UNL     1      34.628 -19.372 -23.434  0.00  0.00    +0.003 C 
ATOM     16  C   UNL     1      34.907 -16.597 -23.397  0.00  0.00    +0.167 C 
ATOM     17  C   UNL     1      34.671 -18.660 -24.632  0.00  0.00    +0.040 C 
ATOM     18  C   UNL     1      34.811 -17.272 -24.614  0.00  0.00    +0.167 C 
BRANCH  16  19
ATOM     19  O   UNL     1      35.045 -15.242 -23.367  0.00  0.00    -0.503 OA
ATOM     20  H   UNL     1      34.781 -14.761 -22.606  0.00  0.00    +0.292 HD
ENDBRANCH  16  19
BRANCH  18  21
ATOM     21  O   UNL     1      34.853 -16.587 -25.790  0.00  0.00    -0.503 OA
ATOM     22  H   UNL     1      34.253 -16.799 -26.478  0.00  0.00    +0.292 HD
ENDBRANCH  18  21
ENDBRANCH   2  13
TORSDOF 6
ENDMDL
MODEL 4
REMARK VINA RESULT:      -9.1      1.275      7.609
REMARK  Name = 667639
REMARK  6 active torsions:
REMARK  status: ('A' for Active; 'I' for Inactive)
REMARK    1  A    between atoms: C_1  and  C_3
REMARK    2  A    between atoms: C_2  and  C_13
REMARK    3  A    between atoms: C_6  and  O_9
REMARK    4  A    between atoms: C_7  and  O_11
REMARK    5  A    between atoms: C_16  and  O_19
REMARK    6  A    between atoms: C_18  and  O_21
REMARK                            x       y       z     vdW  Elec       q    Type
REMARK                         _______ _______ _______ _____ _____    ______ ____
ROOT
ATOM      1  C   UNL     1      35.347 -20.595 -20.714  0.00  0.00    +0.000 C 
ATOM      2  C   UNL     1      34.687 -19.438 -20.959  0.00  0.00    +0.000 C 
ENDROOT
BRANCH   1   3
ATOM      3  C   UNL     1      35.317 -21.335 -19.440  0.00  0.00    +0.006 C 
ATOM      4  C   UNL     1      34.165 -22.014 -19.076  0.00  0.00    +0.037 C 
ATOM      5  C   UNL     1      36.442 -21.339 -18.631  0.00  0.00    +0.037 C 
ATOM      6  C   UNL     1      36.414 -22.040 -17.426  0.00  0.00    +0.137 C 
ATOM      7  C   UNL     1      34.138 -22.714 -17.870  0.00  0.00    +0.137 C 
ATOM      8  C   UNL     1      35.262 -22.727 -17.045  0.00  0.00    +0.073 C 
BRANCH   6   9
ATOM      9  O   UNL     1      37.512 -22.053 -16.620  0.00  0.00    -0.505 OA
ATOM     10  H   UNL     1      38.155 -21.375 -16.693  0.00  0.00    +0.292 HD
ENDBRANCH   6   9
BRANCH   7  11
ATOM     11  O   UNL     1      33.012 -23.385 -17.499  0.00  0.00    -0.505 OA
ATOM     12  H   UNL     1      32.677 -24.072 -18.039  0.00  0.00    +0.292 HD
ENDBRANCH   7  11
ENDBRANCH   1   3
BRANCH   2  13
ATOM     13  C   UNL     1      34.732 -18.697 -22.210  0.00  0.00    +0.003 C 
ATOM     14  C   UNL     1      34.865 -17.308 -22.194  0.00  0.00    +0.040 C 
ATOM     15  C   UNL     1      34.640 -19.374 -23.426  0.00  0.00    +0.003 C 
ATOM     16  C   UNL     1      34.907 -16.598 -23.394  0.00  0.00    +0.167 C 
ATOM     17  C   UNL     1      34.681 -18.664 -24.625  0.00  0.00    +0.040 C 
ATOM     18  C   UNL     1      34.815 -17.275 -24.609  0.00  0.00    +0.167 C 
BRANCH  16  19
ATOM     19  O   UNL     1      35.039 -15.242 -23.365  0.00  0.00    -0.503 OA
ATOM     20  H   UNL     1      34.283 -14.700 -23.253  0.00  0.00    +0.292 HD
ENDBRANCH  16  19
BRANCH  18  21
ATOM     21  O   UNL     1      34.855 -16.592 -25.787  0.00  0.00    -0.503 OA
ATOM     22  H   UNL     1      34.405 -15.776 -25.871  0.00  0.00    +0.292 HD
ENDBRANCH  18  21
ENDBRANCH   2  13
TORSDOF 6
ENDMDL
MODEL 5
REMARK VINA RESULT:      -8.9      1.386      7.598
REMARK  Name = 667639
REMARK  6 active torsions:
REMARK  status: ('A' for Active; 'I' for Inactive)
REMARK    1  A    between atoms: C_1  and  C_3
REMARK    2  A    between atoms: C_2  and  C_13
REMARK    3  A    between atoms: C_6  and  O_9
REMARK    4  A    between atoms: C_7  and  O_11
REMARK    5  A    between atoms: C_16  and  O_19
REMARK    6  A    between atoms: C_18  and  O_21
REMARK                            x       y       z     vdW  Elec       q    Type
REMARK                         _______ _______ _______ _____ _____    ______ ____
ROOT
ATOM      1  C   UNL     1      33.884 -18.582 -21.508  0.00  0.00    +0.000 C 
ATOM      2  C   UNL     1      34.778 -17.682 -21.981  0.00  0.00    +0.000 C 
ENDROOT
BRANCH   1   3
ATOM      3  C   UNL     1      34.220 -19.773 -20.708  0.00  0.00    +0.006 C 
ATOM      4  C   UNL     1      35.545 -20.159 -20.591  0.00  0.00    +0.037 C 
ATOM      5  C   UNL     1      33.204 -20.482 -20.088  0.00  0.00    +0.037 C 
ATOM      6  C   UNL     1      33.523 -21.609 -19.330  0.00  0.00    +0.137 C 
ATOM      7  C   UNL     1      35.863 -21.286 -19.833  0.00  0.00    +0.137 C 
ATOM      8  C   UNL     1      34.852 -22.012 -19.203  0.00  0.00    +0.073 C 
BRANCH   6   9
ATOM      9  O   UNL     1      32.536 -22.317 -18.714  0.00  0.00    -0.505 OA
ATOM     10  H   UNL     1      32.228 -23.117 -19.093  0.00  0.00    +0.292 HD
ENDBRANCH   6   9
BRANCH   7  11
ATOM     11  O   UNL     1      37.161 -21.679 -19.709  0.00  0.00    -0.505 OA
ATOM     12  H   UNL     1      37.826 -21.267 -20.224  0.00  0.00    +0.292 HD
ENDBRANCH   7  11
ENDBRANCH   1   3
BRANCH   2  13
ATOM     13  C   UNL     1      34.448 -16.516 -22.788  0.00  0.00    +0.003 C 
ATOM     14  C   UNL     1      34.248 -16.653 -24.161  0.00  0.00    +0.040 C 
ATOM     15  C   UNL     1      34.334 -15.263 -22.188  0.00  0.00    +0.003 C 
ATOM     16  C   UNL     1      33.933 -15.536 -24.935  0.00  0.00    +0.167 C 
ATOM     17  C   UNL     1      34.020 -14.146 -22.961  0.00  0.00    +0.040 C 
ATOM     18  C   UNL     1      33.819 -14.282 -24.335  0.00  0.00    +0.167 C 
BRANCH  16  19
ATOM     19  O   UNL     1      33.738 -15.682 -26.275  0.00  0.00    -0.503 OA
ATOM     20  H   UNL     1      33.673 -16.539 -26.648  0.00  0.00    +0.292 HD
ENDBRANCH  16  19
BRANCH  18  21
ATOM     21  O   UNL     1      33.510 -13.184 -25.079  0.00  0.00    -0.503 OA
ATOM     22  H   UNL     1      33.678 -13.181 -26.001  0.00  0.00    +0.292 HD
ENDBRANCH  18  21
ENDBRANCH   2  13
TORSDOF 6
ENDMDL
MODEL 6
REMARK VINA RESULT:      -8.9      1.070      1.342
REMARK  Name = 667639
REMARK  6 active torsions:
REMARK  status: ('A' for Active; 'I' for Inactive)
REMARK    1  A    between atoms: C_1  and  C_3
REMARK    2  A    between atoms: C_2  and  C_13
REMARK    3  A    between atoms: C_6  and  O_9
REMARK    4  A    between atoms: C_7  and  O_11
REMARK    5  A    between atoms: C_16  and  O_19
REMARK    6  A    between atoms: C_18  and  O_21
REMARK                            x       y       z     vdW  Elec       q    Type
REMARK                         _______ _______ _______ _____ _____    ______ ____
ROOT
ATOM      1  C   UNL     1      34.488 -17.239 -21.890  0.00  0.00    +0.000 C 
ATOM      2  C   UNL     1      34.469 -18.573 -22.123  0.00  0.00    +0.000 C 
ENDROOT
BRANCH   1   3
ATOM      3  C   UNL     1      34.255 -16.196 -22.904  0.00  0.00    +0.006 C 
ATOM      4  C   UNL     1      33.993 -16.569 -24.213  0.00  0.00    +0.037 C 
ATOM      5  C   UNL     1      34.302 -14.863 -22.529  0.00  0.00    +0.037 C 
ATOM      6  C   UNL     1      34.081 -13.876 -23.490  0.00  0.00    +0.137 C 
ATOM      7  C   UNL     1      33.772 -15.581 -25.172  0.00  0.00    +0.137 C 
ATOM      8  C   UNL     1      33.816 -14.235 -24.811  0.00  0.00    +0.073 C 
BRANCH   6   9
ATOM      9  O   UNL     1      34.123 -12.561 -23.137  0.00  0.00    -0.505 OA
ATOM     10  H   UNL     1      33.868 -11.903 -23.754  0.00  0.00    +0.292 HD
ENDBRANCH   6   9
BRANCH   7  11
ATOM     11  O   UNL     1      33.513 -15.932 -26.462  0.00  0.00    -0.505 OA
ATOM     12  H   UNL     1      34.219 -16.115 -27.049  0.00  0.00    +0.292 HD
ENDBRANCH   7  11
ENDBRANCH   1   3
BRANCH   2  13
ATOM     13  C   UNL     1      34.719 -19.603 -21.126  0.00  0.00    +0.003 C 
ATOM     14  C   UNL     1      33.650 -20.282 -20.542  0.00  0.00    +0.040 C 
ATOM     15  C   UNL     1      36.028 -19.909 -20.753  0.00  0.00    +0.003 C 
ATOM     16  C   UNL     1      33.890 -21.269 -19.586  0.00  0.00    +0.167 C 
ATOM     17  C   UNL     1      36.267 -20.894 -19.796  0.00  0.00    +0.040 C 
ATOM     18  C   UNL     1      35.198 -21.575 -19.212  0.00  0.00    +0.167 C 
BRANCH  16  19
ATOM     19  O   UNL     1      32.837 -21.927 -19.024  0.00  0.00    -0.503 OA
ATOM     20  H   UNL     1      32.006 -21.502 -18.947  0.00  0.00    +0.292 HD
ENDBRANCH  16  19
BRANCH  18  21
ATOM     21  O   UNL     1      35.445 -22.537 -18.280  0.00  0.00    -0.503 OA
ATOM     22  H   UNL     1      36.327 -22.746 -18.045  0.00  0.00    +0.292 HD
ENDBRANCH  18  21
ENDBRANCH   2  13
TORSDOF 6
ENDMDL
MODEL 7
REMARK VINA RESULT:      -8.8      8.565     10.269
REMARK  Name = 667639
REMARK  6 active torsions:
REMARK  status: ('A' for Active; 'I' for Inactive)
REMARK    1  A    between atoms: C_1  and  C_3
REMARK    2  A    between atoms: C_2  and  C_13
REMARK    3  A    between atoms: C_6  and  O_9
REMARK    4  A    between atoms: C_7  and  O_11
REMARK    5  A    between atoms: C_16  and  O_19
REMARK    6  A    between atoms: C_18  and  O_21
REMARK                            x       y       z     vdW  Elec       q    Type
REMARK                         _______ _______ _______ _____ _____    ______ ____
ROOT
ATOM      1  C   UNL     1      32.485 -23.364 -13.921  0.00  0.00    +0.000 C 
ATOM      2  C   UNL     1      33.535 -24.220 -13.923  0.00  0.00    +0.000 C 
ENDROOT
BRANCH   1   3
ATOM      3  C   UNL     1      31.181 -23.619 -14.556  0.00  0.00    +0.006 C 
ATOM      4  C   UNL     1      30.775 -22.825 -15.617  0.00  0.00    +0.037 C 
ATOM      5  C   UNL     1      30.385 -24.648 -14.080  0.00  0.00    +0.037 C 
ATOM      6  C   UNL     1      29.150 -24.890 -14.681  0.00  0.00    +0.137 C 
ATOM      7  C   UNL     1      29.540 -23.067 -16.217  0.00  0.00    +0.137 C 
ATOM      8  C   UNL     1      28.727 -24.099 -15.749  0.00  0.00    +0.073 C 
BRANCH   6   9
ATOM      9  O   UNL     1      28.356 -25.898 -14.224  0.00  0.00    -0.505 OA
ATOM     10  H   UNL     1      27.914 -26.458 -14.833  0.00  0.00    +0.292 HD
ENDBRANCH   6   9
BRANCH   7  11
ATOM     11  O   UNL     1      29.128 -22.295 -17.260  0.00  0.00    -0.505 OA
ATOM     12  H   UNL     1      29.458 -22.457 -18.122  0.00  0.00    +0.292 HD
ENDBRANCH   7  11
ENDBRANCH   1   3
BRANCH   2  13
ATOM     13  C   UNL     1      34.830 -23.960 -13.313  0.00  0.00    +0.003 C 
ATOM     14  C   UNL     1      34.999 -24.125 -11.938  0.00  0.00    +0.040 C 
ATOM     15  C   UNL     1      35.902 -23.544 -14.102  0.00  0.00    +0.003 C 
ATOM     16  C   UNL     1      36.241 -23.875 -11.353  0.00  0.00    +0.167 C 
ATOM     17  C   UNL     1      37.142 -23.294 -13.518  0.00  0.00    +0.040 C 
ATOM     18  C   UNL     1      37.313 -23.459 -12.143  0.00  0.00    +0.167 C 
BRANCH  16  19
ATOM     19  O   UNL     1      36.395 -24.042 -10.010  0.00  0.00    -0.503 OA
ATOM     20  H   UNL     1      35.918 -24.714  -9.563  0.00  0.00    +0.292 HD
ENDBRANCH  16  19
BRANCH  18  21
ATOM     21  O   UNL     1      38.530 -23.213 -11.584  0.00  0.00    -0.503 OA
ATOM     22  H   UNL     1      38.688 -22.401 -11.145  0.00  0.00    +0.292 HD
ENDBRANCH  18  21
ENDBRANCH   2  13
TORSDOF 6
ENDMDL
MODEL 8
REMARK VINA RESULT:      -8.8      8.574     10.239
REMARK  Name = 667639
REMARK  6 active torsions:
REMARK  status: ('A' for Active; 'I' for Inactive)
REMARK    1  A    between atoms: C_1  and  C_3
REMARK    2  A    between atoms: C_2  and  C_13
REMARK    3  A    between atoms: C_6  and  O_9
REMARK    4  A    between atoms: C_7  and  O_11
REMARK    5  A    between atoms: C_16  and  O_19
REMARK    6  A    between atoms: C_18  and  O_21
REMARK                            x       y       z     vdW  Elec       q    Type
REMARK                         _______ _______ _______ _____ _____    ______ ____
ROOT
ATOM      1  C   UNL     1      32.504 -23.420 -13.819  0.00  0.00    +0.000 C 
ATOM      2  C   UNL     1      33.621 -24.160 -14.016  0.00  0.00    +0.000 C 
ENDROOT
BRANCH   1   3
ATOM      3  C   UNL     1      31.209 -23.645 -14.483  0.00  0.00    +0.006 C 
ATOM      4  C   UNL     1      30.389 -24.671 -14.041  0.00  0.00    +0.037 C 
ATOM      5  C   UNL     1      30.835 -22.826 -15.536  0.00  0.00    +0.037 C 
ATOM      6  C   UNL     1      29.609 -23.040 -16.165  0.00  0.00    +0.137 C 
ATOM      7  C   UNL     1      29.163 -24.884 -14.670  0.00  0.00    +0.137 C 
ATOM      8  C   UNL     1      28.772 -24.069 -15.733  0.00  0.00    +0.073 C 
BRANCH   6   9
ATOM      9  O   UNL     1      29.227 -22.243 -17.202  0.00  0.00    -0.505 OA
ATOM     10  H   UNL     1      29.872 -21.890 -17.783  0.00  0.00    +0.292 HD
ENDBRANCH   6   9
BRANCH   7  11
ATOM     11  O   UNL     1      28.347 -25.889 -14.248  0.00  0.00    -0.505 OA
ATOM     12  H   UNL     1      28.406 -26.737 -14.639  0.00  0.00    +0.292 HD
ENDBRANCH   7  11
ENDBRANCH   1   3
BRANCH   2  13
ATOM     13  C   UNL     1      34.906 -23.926 -13.375  0.00  0.00    +0.003 C 
ATOM     14  C   UNL     1      35.033 -24.070 -11.993  0.00  0.00    +0.040 C 
ATOM     15  C   UNL     1      36.011 -23.557 -14.142  0.00  0.00    +0.003 C 
ATOM     16  C   UNL     1      36.265 -23.845 -11.379  0.00  0.00    +0.167 C 
ATOM     17  C   UNL     1      37.242 -23.331 -13.528  0.00  0.00    +0.040 C 
ATOM     18  C   UNL     1      37.370 -23.475 -12.146  0.00  0.00    +0.167 C 
BRANCH  16  19
ATOM     19  O   UNL     1      36.377 -23.990 -10.029  0.00  0.00    -0.503 OA
ATOM     20  H   UNL     1      37.222 -24.082  -9.636  0.00  0.00    +0.292 HD
ENDBRANCH  16  19
BRANCH  18  21
ATOM     21  O   UNL     1      38.578 -23.254 -11.557  0.00  0.00    -0.503 OA
ATOM     22  H   UNL     1      38.757 -22.430 -11.150  0.00  0.00    +0.292 HD
ENDBRANCH  18  21
ENDBRANCH   2  13
TORSDOF 6
ENDMDL
MODEL 9
REMARK VINA RESULT:      -8.6      1.908      7.550
REMARK  Name = 667639
REMARK  6 active torsions:
REMARK  status: ('A' for Active; 'I' for Inactive)
REMARK    1  A    between atoms: C_1  and  C_3
REMARK    2  A    between atoms: C_2  and  C_13
REMARK    3  A    between atoms: C_6  and  O_9
REMARK    4  A    between atoms: C_7  and  O_11
REMARK    5  A    between atoms: C_16  and  O_19
REMARK    6  A    between atoms: C_18  and  O_21
REMARK                            x       y       z     vdW  Elec       q    Type
REMARK                         _______ _______ _______ _____ _____    ______ ____
ROOT
ATOM      1  C   UNL     1      34.159 -18.301 -21.584  0.00  0.00    +0.000 C 
ATOM      2  C   UNL     1      34.023 -17.069 -21.038  0.00  0.00    +0.000 C 
ENDROOT
BRANCH   1   3
ATOM      3  C   UNL     1      34.420 -19.540 -20.830  0.00  0.00    +0.006 C 
ATOM      4  C   UNL     1      33.359 -20.222 -20.258  0.00  0.00    +0.037 C 
ATOM      5  C   UNL     1      35.722 -19.998 -20.708  0.00  0.00    +0.037 C 
ATOM      6  C   UNL     1      35.969 -21.170 -19.994  0.00  0.00    +0.137 C 
ATOM      7  C   UNL     1      33.606 -21.395 -19.544  0.00  0.00    +0.137 C 
ATOM      8  C   UNL     1      34.911 -21.868 -19.411  0.00  0.00    +0.073 C 
BRANCH   6   9
ATOM      9  O   UNL     1      37.243 -21.633 -19.865  0.00  0.00    -0.505 OA
ATOM     10  H   UNL     1      37.431 -22.537 -20.028  0.00  0.00    +0.292 HD
ENDBRANCH   6   9
BRANCH   7  11
ATOM     11  O   UNL     1      32.573 -22.076 -18.976  0.00  0.00    -0.505 OA
ATOM     12  H   UNL     1      32.561 -23.012 -18.997  0.00  0.00    +0.292 HD
ENDBRANCH   7  11
ENDBRANCH   1   3
BRANCH   2  13
ATOM     13  C   UNL     1      33.785 -15.843 -21.784  0.00  0.00    +0.003 C 
ATOM     14  C   UNL     1      32.807 -14.945 -21.356  0.00  0.00    +0.040 C 
ATOM     15  C   UNL     1      34.532 -15.567 -22.929  0.00  0.00    +0.003 C 
ATOM     16  C   UNL     1      32.578 -13.770 -22.072  0.00  0.00    +0.167 C 
ATOM     17  C   UNL     1      34.302 -14.393 -23.645  0.00  0.00    +0.040 C 
ATOM     18  C   UNL     1      33.326 -13.493 -23.217  0.00  0.00    +0.167 C 
BRANCH  16  19
ATOM     19  O   UNL     1      31.622 -12.900 -21.643  0.00  0.00    -0.503 OA
ATOM     20  H   UNL     1      31.318 -12.219 -22.211  0.00  0.00    +0.292 HD
ENDBRANCH  16  19
BRANCH  18  21
ATOM     21  O   UNL     1      33.112 -12.349 -23.923  0.00  0.00    -0.503 OA
ATOM     22  H   UNL     1      33.545 -11.557 -23.674  0.00  0.00    +0.292 HD
ENDBRANCH  18  21
ENDBRANCH   2  13
TORSDOF 6
ENDMDL
