MODEL 1
REMARK VINA RESULT:      -7.6      0.000      0.000
REMARK  Name = 60852
REMARK  14 active torsions:
REMARK  status: ('A' for Active; 'I' for Inactive)
REMARK    1  A    between atoms: C_1  and  P_2
REMARK    2  A    between atoms: C_1  and  P_8
REMARK    3  A    between atoms: C_1  and  O_14
REMARK    4  A    between atoms: C_1  and  C_16
REMARK    5  A    between atoms: P_2  and  O_4
REMARK    6  A    between atoms: P_2  and  O_6
REMARK    7  A    between atoms: P_8  and  O_10
REMARK    8  A    between atoms: P_8  and  O_12
REMARK    9  A    between atoms: C_16  and  C_17
REMARK   10  A    between atoms: C_17  and  N_18
REMARK   11  A    between atoms: N_18  and  C_21
REMARK   12  A    between atoms: C_21  and  C_22
REMARK   13  A    between atoms: C_22  and  C_23
REMARK   14  A    between atoms: C_23  and  C_24
REMARK                            x       y       z     vdW  Elec       q    Type
REMARK                         _______ _______ _______ _____ _____    ______ ____
ROOT
ATOM      1  C   UNL     1      36.980 -24.455 -13.757  0.00  0.00    +0.273 C 
ENDROOT
BRANCH   1   2
ATOM      2  P   UNL     1      36.468 -24.927 -12.058  0.00  0.00    +0.372 P 
ATOM      3  O   UNL     1      37.056 -24.082 -10.969  0.00  0.00    -0.255 OA
BRANCH   2   4
ATOM      4  O   UNL     1      36.801 -26.507 -11.966  0.00  0.00    -0.322 OA
ATOM      5  H   UNL     1      35.977 -27.005 -11.853  0.00  0.00    +0.220 HD
ENDBRANCH   2   4
BRANCH   2   6
ATOM      6  O   UNL     1      34.852 -24.893 -12.137  0.00  0.00    -0.322 OA
ATOM      7  H   UNL     1      34.485 -25.542 -11.516  0.00  0.00    +0.220 HD
ENDBRANCH   2   6
ENDBRANCH   1   2
BRANCH   1   8
ATOM      8  P   UNL     1      38.351 -25.373 -14.557  0.00  0.00    +0.372 P 
ATOM      9  O   UNL     1      39.225 -26.123 -13.596  0.00  0.00    -0.255 OA
BRANCH   8  10
ATOM     10  O   UNL     1      39.113 -24.268 -15.458  0.00  0.00    -0.322 OA
ATOM     11  H   UNL     1      39.618 -24.714 -16.156  0.00  0.00    +0.220 HD
ENDBRANCH   8  10
BRANCH   8  12
ATOM     12  O   UNL     1      37.600 -26.305 -15.643  0.00  0.00    -0.322 OA
ATOM     13  H   UNL     1      36.992 -25.761 -16.169  0.00  0.00    +0.220 HD
ENDBRANCH   8  12
ENDBRANCH   1   8
BRANCH   1  14
ATOM     14  O   UNL     1      37.594 -23.174 -13.555  0.00  0.00    -0.367 OA
ATOM     15  H   UNL     1      36.938 -22.474 -13.702  0.00  0.00    +0.212 HD
ENDBRANCH   1  14
BRANCH   1  16
ATOM     16  C   UNL     1      35.766 -24.213 -14.680  0.00  0.00    +0.028 C 
BRANCH  16  17
ATOM     17  C   UNL     1      35.639 -22.790 -15.214  0.00  0.00    -0.074 C 
BRANCH  17  18
ATOM     18  N   UNL     1      36.356 -22.665 -16.479  0.00  0.00    +0.386 N 
ATOM     19  C   UNL     1      37.354 -21.599 -16.400  0.00  0.00    -0.101 C 
ATOM     20  H   UNL     1      36.837 -23.546 -16.665  0.00  0.00    -0.080 HD
BRANCH  18  21
ATOM     21  C   UNL     1      35.421 -22.407 -17.575  0.00  0.00    -0.077 C 
BRANCH  21  22
ATOM     22  C   UNL     1      36.113 -21.624 -18.689  0.00  0.00    -0.023 C 
BRANCH  22  23
ATOM     23  C   UNL     1      35.198 -21.468 -19.907  0.00  0.00    -0.002 C 
BRANCH  23  24
ATOM     24  C   UNL     1      33.729 -21.389 -19.493  0.00  0.00    -0.000 C 
ATOM     25  C   UNL     1      32.983 -20.328 -20.286  0.00  0.00    -0.000 C 
ENDBRANCH  23  24
ENDBRANCH  22  23
ENDBRANCH  21  22
ENDBRANCH  18  21
ENDBRANCH  17  18
ENDBRANCH  16  17
ENDBRANCH   1  16
TORSDOF 14
ENDMDL
MODEL 2
REMARK VINA RESULT:      -7.5      0.853      2.893
REMARK  Name = 60852
REMARK  14 active torsions:
REMARK  status: ('A' for Active; 'I' for Inactive)
REMARK    1  A    between atoms: C_1  and  P_2
REMARK    2  A    between atoms: C_1  and  P_8
REMARK    3  A    between atoms: C_1  and  O_14
REMARK    4  A    between atoms: C_1  and  C_16
REMARK    5  A    between atoms: P_2  and  O_4
REMARK    6  A    between atoms: P_2  and  O_6
REMARK    7  A    between atoms: P_8  and  O_10
REMARK    8  A    between atoms: P_8  and  O_12
REMARK    9  A    between atoms: C_16  and  C_17
REMARK   10  A    between atoms: C_17  and  N_18
REMARK   11  A    between atoms: N_18  and  C_21
REMARK   12  A    between atoms: C_21  and  C_22
REMARK   13  A    between atoms: C_22  and  C_23
REMARK   14  A    between atoms: C_23  and  C_24
REMARK                            x       y       z     vdW  Elec       q    Type
REMARK                         _______ _______ _______ _____ _____    ______ ____
ROOT
ATOM      1  C   UNL     1      36.832 -24.630 -13.763  0.00  0.00    +0.273 C 
ENDROOT
BRANCH   1   2
ATOM      2  P   UNL     1      38.261 -25.421 -14.603  0.00  0.00    +0.372 P 
ATOM      3  O   UNL     1      39.204 -26.144 -13.688  0.00  0.00    -0.255 OA
BRANCH   2   4
ATOM      4  O   UNL     1      38.919 -24.229 -15.476  0.00  0.00    -0.322 OA
ATOM      5  H   UNL     1      38.237 -23.576 -15.697  0.00  0.00    +0.220 HD
ENDBRANCH   2   4
BRANCH   2   6
ATOM      6  O   UNL     1      37.560 -26.357 -15.721  0.00  0.00    -0.322 OA
ATOM      7  H   UNL     1      36.853 -25.858 -16.161  0.00  0.00    +0.220 HD
ENDBRANCH   2   6
ENDBRANCH   1   2
BRANCH   1   8
ATOM      8  P   UNL     1      36.517 -25.015 -11.998  0.00  0.00    +0.372 P 
ATOM      9  O   UNL     1      37.227 -24.105 -11.040  0.00  0.00    -0.255 OA
BRANCH   8  10
ATOM     10  O   UNL     1      36.877 -26.583 -11.849  0.00  0.00    -0.322 OA
ATOM     11  H   UNL     1      36.150 -27.040 -11.399  0.00  0.00    +0.220 HD
ENDBRANCH   8  10
BRANCH   8  12
ATOM     12  O   UNL     1      34.905 -24.977 -11.884  0.00  0.00    -0.322 OA
ATOM     13  H   UNL     1      34.642 -24.272 -11.272  0.00  0.00    +0.220 HD
ENDBRANCH   8  12
ENDBRANCH   1   8
BRANCH   1  14
ATOM     14  O   UNL     1      35.709 -25.271 -14.384  0.00  0.00    -0.367 OA
ATOM     15  H   UNL     1      34.890 -24.978 -13.954  0.00  0.00    +0.212 HD
ENDBRANCH   1  14
BRANCH   1  16
ATOM     16  C   UNL     1      36.719 -23.129 -14.106  0.00  0.00    +0.028 C 
BRANCH  16  17
ATOM     17  C   UNL     1      35.552 -22.766 -15.020  0.00  0.00    -0.074 C 
BRANCH  17  18
ATOM     18  N   UNL     1      35.966 -22.857 -16.417  0.00  0.00    +0.386 N 
ATOM     19  C   UNL     1      36.913 -21.791 -16.742  0.00  0.00    -0.101 C 
ATOM     20  H   UNL     1      36.429 -23.756 -16.557  0.00  0.00    -0.080 HD
BRANCH  18  21
ATOM     21  C   UNL     1      34.802 -22.793 -17.302  0.00  0.00    -0.077 C 
BRANCH  21  22
ATOM     22  C   UNL     1      35.165 -22.087 -18.607  0.00  0.00    -0.023 C 
BRANCH  22  23
ATOM     23  C   UNL     1      33.915 -21.760 -19.426  0.00  0.00    -0.002 C 
BRANCH  23  24
ATOM     24  C   UNL     1      34.110 -20.492 -20.256  0.00  0.00    -0.000 C 
ATOM     25  C   UNL     1      32.778 -19.882 -20.664  0.00  0.00    -0.000 C 
ENDBRANCH  23  24
ENDBRANCH  22  23
ENDBRANCH  21  22
ENDBRANCH  18  21
ENDBRANCH  17  18
ENDBRANCH  16  17
ENDBRANCH   1  16
TORSDOF 14
ENDMDL
MODEL 3
REMARK VINA RESULT:      -7.2      1.170      1.613
REMARK  Name = 60852
REMARK  14 active torsions:
REMARK  status: ('A' for Active; 'I' for Inactive)
REMARK    1  A    between atoms: C_1  and  P_2
REMARK    2  A    between atoms: C_1  and  P_8
REMARK    3  A    between atoms: C_1  and  O_14
REMARK    4  A    between atoms: C_1  and  C_16
REMARK    5  A    between atoms: P_2  and  O_4
REMARK    6  A    between atoms: P_2  and  O_6
REMARK    7  A    between atoms: P_8  and  O_10
REMARK    8  A    between atoms: P_8  and  O_12
REMARK    9  A    between atoms: C_16  and  C_17
REMARK   10  A    between atoms: C_17  and  N_18
REMARK   11  A    between atoms: N_18  and  C_21
REMARK   12  A    between atoms: C_21  and  C_22
REMARK   13  A    between atoms: C_22  and  C_23
REMARK   14  A    between atoms: C_23  and  C_24
REMARK                            x       y       z     vdW  Elec       q    Type
REMARK                         _______ _______ _______ _____ _____    ______ ____
ROOT
ATOM      1  C   UNL     1      36.903 -24.516 -13.785  0.00  0.00    +0.273 C 
ENDROOT
BRANCH   1   2
ATOM      2  P   UNL     1      36.492 -24.975 -12.055  0.00  0.00    +0.372 P 
ATOM      3  O   UNL     1      37.143 -24.122 -11.008  0.00  0.00    -0.255 OA
BRANCH   2   4
ATOM      4  O   UNL     1      36.829 -26.555 -11.971  0.00  0.00    -0.322 OA
ATOM      5  H   UNL     1      37.789 -26.683 -12.015  0.00  0.00    +0.220 HD
ENDBRANCH   2   4
BRANCH   2   6
ATOM      6  O   UNL     1      34.875 -24.940 -12.039  0.00  0.00    -0.322 OA
ATOM      7  H   UNL     1      34.568 -24.072 -12.348  0.00  0.00    +0.220 HD
ENDBRANCH   2   6
ENDBRANCH   1   2
BRANCH   1   8
ATOM      8  P   UNL     1      38.334 -25.323 -14.600  0.00  0.00    +0.372 P 
ATOM      9  O   UNL     1      39.243 -26.051 -13.654  0.00  0.00    -0.255 OA
BRANCH   8  10
ATOM     10  O   UNL     1      39.036 -24.145 -15.455  0.00  0.00    -0.322 OA
ATOM     11  H   UNL     1      38.678 -24.143 -16.356  0.00  0.00    +0.220 HD
ENDBRANCH   8  10
BRANCH   8  12
ATOM     12  O   UNL     1      37.650 -26.261 -15.724  0.00  0.00    -0.322 OA
ATOM     13  H   UNL     1      37.351 -27.088 -15.315  0.00  0.00    +0.220 HD
ENDBRANCH   8  12
ENDBRANCH   1   8
BRANCH   1  14
ATOM     14  O   UNL     1      37.392 -23.174 -13.646  0.00  0.00    -0.367 OA
ATOM     15  H   UNL     1      38.196 -23.066 -14.178  0.00  0.00    +0.212 HD
ENDBRANCH   1  14
BRANCH   1  16
ATOM     16  C   UNL     1      35.644 -24.428 -14.674  0.00  0.00    +0.028 C 
BRANCH  16  17
ATOM     17  C   UNL     1      35.390 -23.057 -15.293  0.00  0.00    -0.074 C 
BRANCH  17  18
ATOM     18  N   UNL     1      34.029 -22.993 -15.821  0.00  0.00    +0.386 N 
ATOM     19  C   UNL     1      33.118 -23.773 -14.984  0.00  0.00    -0.101 C 
ATOM     20  H   UNL     1      33.726 -22.019 -15.810  0.00  0.00    -0.080 HD
BRANCH  18  21
ATOM     21  C   UNL     1      33.992 -23.476 -17.202  0.00  0.00    -0.077 C 
BRANCH  21  22
ATOM     22  C   UNL     1      33.108 -22.570 -18.057  0.00  0.00    -0.023 C 
BRANCH  22  23
ATOM     23  C   UNL     1      33.857 -22.074 -19.296  0.00  0.00    -0.002 C 
BRANCH  23  24
ATOM     24  C   UNL     1      33.118 -20.918 -19.968  0.00  0.00    -0.000 C 
ATOM     25  C   UNL     1      34.083 -19.947 -20.629  0.00  0.00    -0.000 C 
ENDBRANCH  23  24
ENDBRANCH  22  23
ENDBRANCH  21  22
ENDBRANCH  18  21
ENDBRANCH  17  18
ENDBRANCH  16  17
ENDBRANCH   1  16
TORSDOF 14
ENDMDL
MODEL 4
REMARK VINA RESULT:      -7.1      1.142      2.046
REMARK  Name = 60852
REMARK  14 active torsions:
REMARK  status: ('A' for Active; 'I' for Inactive)
REMARK    1  A    between atoms: C_1  and  P_2
REMARK    2  A    between atoms: C_1  and  P_8
REMARK    3  A    between atoms: C_1  and  O_14
REMARK    4  A    between atoms: C_1  and  C_16
REMARK    5  A    between atoms: P_2  and  O_4
REMARK    6  A    between atoms: P_2  and  O_6
REMARK    7  A    between atoms: P_8  and  O_10
REMARK    8  A    between atoms: P_8  and  O_12
REMARK    9  A    between atoms: C_16  and  C_17
REMARK   10  A    between atoms: C_17  and  N_18
REMARK   11  A    between atoms: N_18  and  C_21
REMARK   12  A    between atoms: C_21  and  C_22
REMARK   13  A    between atoms: C_22  and  C_23
REMARK   14  A    between atoms: C_23  and  C_24
REMARK                            x       y       z     vdW  Elec       q    Type
REMARK                         _______ _______ _______ _____ _____    ______ ____
ROOT
ATOM      1  C   UNL     1      37.318 -24.639 -14.281  0.00  0.00    +0.273 C 
ENDROOT
BRANCH   1   2
ATOM      2  P   UNL     1      37.038 -23.986 -12.587  0.00  0.00    +0.372 P 
ATOM      3  O   UNL     1      35.603 -23.719 -12.248  0.00  0.00    -0.255 OA
BRANCH   2   4
ATOM      4  O   UNL     1      38.024 -22.707 -12.486  0.00  0.00    -0.322 OA
ATOM      5  H   UNL     1      37.618 -21.950 -12.936  0.00  0.00    +0.220 HD
ENDBRANCH   2   4
BRANCH   2   6
ATOM      6  O   UNL     1      37.759 -25.085 -11.645  0.00  0.00    -0.322 OA
ATOM      7  H   UNL     1      37.177 -25.303 -10.900  0.00  0.00    +0.220 HD
ENDBRANCH   2   6
ENDBRANCH   1   2
BRANCH   1   8
ATOM      8  P   UNL     1      37.435 -26.452 -14.524  0.00  0.00    +0.372 P 
ATOM      9  O   UNL     1      38.832 -26.946 -14.764  0.00  0.00    -0.255 OA
BRANCH   8  10
ATOM     10  O   UNL     1      36.382 -26.777 -15.706  0.00  0.00    -0.322 OA
ATOM     11  H   UNL     1      36.126 -25.952 -16.146  0.00  0.00    +0.220 HD
ENDBRANCH   8  10
BRANCH   8  12
ATOM     12  O   UNL     1      36.731 -27.059 -13.202  0.00  0.00    -0.322 OA
ATOM     13  H   UNL     1      36.324 -26.339 -12.695  0.00  0.00    +0.220 HD
ENDBRANCH   8  12
ENDBRANCH   1   8
BRANCH   1  14
ATOM     14  O   UNL     1      38.670 -24.241 -14.552  0.00  0.00    -0.367 OA
ATOM     15  H   UNL     1      38.733 -23.912 -15.462  0.00  0.00    +0.212 HD
ENDBRANCH   1  14
BRANCH   1  16
ATOM     16  C   UNL     1      36.437 -23.924 -15.329  0.00  0.00    +0.028 C 
BRANCH  16  17
ATOM     17  C   UNL     1      37.118 -22.771 -16.060  0.00  0.00    -0.074 C 
BRANCH  17  18
ATOM     18  N   UNL     1      36.134 -22.020 -16.835  0.00  0.00    +0.386 N 
ATOM     19  C   UNL     1      34.902 -22.795 -16.985  0.00  0.00    -0.101 C 
ATOM     20  H   UNL     1      35.917 -21.160 -16.332  0.00  0.00    -0.080 HD
BRANCH  18  21
ATOM     21  C   UNL     1      36.676 -21.666 -18.147  0.00  0.00    -0.077 C 
BRANCH  21  22
ATOM     22  C   UNL     1      35.587 -21.757 -19.214  0.00  0.00    -0.023 C 
BRANCH  22  23
ATOM     23  C   UNL     1      35.729 -20.637 -20.247  0.00  0.00    -0.002 C 
BRANCH  23  24
ATOM     24  C   UNL     1      34.365 -20.092 -20.667  0.00  0.00    -0.000 C 
ATOM     25  C   UNL     1      33.235 -20.768 -19.906  0.00  0.00    -0.000 C 
ENDBRANCH  23  24
ENDBRANCH  22  23
ENDBRANCH  21  22
ENDBRANCH  18  21
ENDBRANCH  17  18
ENDBRANCH  16  17
ENDBRANCH   1  16
TORSDOF 14
ENDMDL
MODEL 5
REMARK VINA RESULT:      -7.1      1.597      2.167
REMARK  Name = 60852
REMARK  14 active torsions:
REMARK  status: ('A' for Active; 'I' for Inactive)
REMARK    1  A    between atoms: C_1  and  P_2
REMARK    2  A    between atoms: C_1  and  P_8
REMARK    3  A    between atoms: C_1  and  O_14
REMARK    4  A    between atoms: C_1  and  C_16
REMARK    5  A    between atoms: P_2  and  O_4
REMARK    6  A    between atoms: P_2  and  O_6
REMARK    7  A    between atoms: P_8  and  O_10
REMARK    8  A    between atoms: P_8  and  O_12
REMARK    9  A    between atoms: C_16  and  C_17
REMARK   10  A    between atoms: C_17  and  N_18
REMARK   11  A    between atoms: N_18  and  C_21
REMARK   12  A    between atoms: C_21  and  C_22
REMARK   13  A    between atoms: C_22  and  C_23
REMARK   14  A    between atoms: C_23  and  C_24
REMARK                            x       y       z     vdW  Elec       q    Type
REMARK                         _______ _______ _______ _____ _____    ______ ____
ROOT
ATOM      1  C   UNL     1      36.943 -24.476 -13.729  0.00  0.00    +0.273 C 
ENDROOT
BRANCH   1   2
ATOM      2  P   UNL     1      36.486 -24.938 -12.011  0.00  0.00    +0.372 P 
ATOM      3  O   UNL     1      37.105 -24.084 -10.947  0.00  0.00    -0.255 OA
BRANCH   2   4
ATOM      4  O   UNL     1      36.827 -26.517 -11.919  0.00  0.00    -0.322 OA
ATOM      5  H   UNL     1      36.542 -26.859 -11.057  0.00  0.00    +0.220 HD
ENDBRANCH   2   4
BRANCH   2   6
ATOM      6  O   UNL     1      34.869 -24.909 -12.039  0.00  0.00    -0.322 OA
ATOM      7  H   UNL     1      34.531 -24.851 -11.131  0.00  0.00    +0.220 HD
ENDBRANCH   2   6
ENDBRANCH   1   2
BRANCH   1   8
ATOM      8  P   UNL     1      38.319 -25.367 -14.550  0.00  0.00    +0.372 P 
ATOM      9  O   UNL     1      39.186 -26.150 -13.609  0.00  0.00    -0.255 OA
BRANCH   8  10
ATOM     10  O   UNL     1      39.088 -24.232 -15.406  0.00  0.00    -0.322 OA
ATOM     11  H   UNL     1      38.936 -24.383 -16.352  0.00  0.00    +0.220 HD
ENDBRANCH   8  10
BRANCH   8  12
ATOM     12  O   UNL     1      37.576 -26.260 -15.673  0.00  0.00    -0.322 OA
ATOM     13  H   UNL     1      37.590 -27.192 -15.404  0.00  0.00    +0.220 HD
ENDBRANCH   8  12
ENDBRANCH   1   8
BRANCH   1  14
ATOM     14  O   UNL     1      37.524 -23.175 -13.560  0.00  0.00    -0.367 OA
ATOM     15  H   UNL     1      37.414 -22.664 -14.376  0.00  0.00    +0.212 HD
ENDBRANCH   1  14
BRANCH   1  16
ATOM     16  C   UNL     1      35.701 -24.283 -14.625  0.00  0.00    +0.028 C 
BRANCH  16  17
ATOM     17  C   UNL     1      35.507 -22.866 -15.157  0.00  0.00    -0.074 C 
BRANCH  17  18
ATOM     18  N   UNL     1      35.974 -22.784 -16.538  0.00  0.00    +0.386 N 
ATOM     19  C   UNL     1      37.025 -21.775 -16.665  0.00  0.00    -0.101 C 
ATOM     20  H   UNL     1      36.360 -23.690 -16.801  0.00  0.00    -0.080 HD
BRANCH  18  21
ATOM     21  C   UNL     1      34.861 -22.475 -17.437  0.00  0.00    -0.077 C 
BRANCH  21  22
ATOM     22  C   UNL     1      33.743 -23.502 -17.269  0.00  0.00    -0.023 C 
BRANCH  22  23
ATOM     23  C   UNL     1      32.377 -22.820 -17.155  0.00  0.00    -0.002 C 
BRANCH  23  24
ATOM     24  C   UNL     1      31.500 -23.501 -16.106  0.00  0.00    -0.000 C 
ATOM     25  C   UNL     1      31.694 -22.883 -14.730  0.00  0.00    -0.000 C 
ENDBRANCH  23  24
ENDBRANCH  22  23
ENDBRANCH  21  22
ENDBRANCH  18  21
ENDBRANCH  17  18
ENDBRANCH  16  17
ENDBRANCH   1  16
TORSDOF 14
ENDMDL
MODEL 6
REMARK VINA RESULT:      -6.9      1.729      3.316
REMARK  Name = 60852
REMARK  14 active torsions:
REMARK  status: ('A' for Active; 'I' for Inactive)
REMARK    1  A    between atoms: C_1  and  P_2
REMARK    2  A    between atoms: C_1  and  P_8
REMARK    3  A    between atoms: C_1  and  O_14
REMARK    4  A    between atoms: C_1  and  C_16
REMARK    5  A    between atoms: P_2  and  O_4
REMARK    6  A    between atoms: P_2  and  O_6
REMARK    7  A    between atoms: P_8  and  O_10
REMARK    8  A    between atoms: P_8  and  O_12
REMARK    9  A    between atoms: C_16  and  C_17
REMARK   10  A    between atoms: C_17  and  N_18
REMARK   11  A    between atoms: N_18  and  C_21
REMARK   12  A    between atoms: C_21  and  C_22
REMARK   13  A    between atoms: C_22  and  C_23
REMARK   14  A    between atoms: C_23  and  C_24
REMARK                            x       y       z     vdW  Elec       q    Type
REMARK                         _______ _______ _______ _____ _____    ______ ____
ROOT
ATOM      1  C   UNL     1      36.461 -24.571 -13.601  0.00  0.00    +0.273 C 
ENDROOT
BRANCH   1   2
ATOM      2  P   UNL     1      37.027 -25.877 -14.762  0.00  0.00    +0.372 P 
ATOM      3  O   UNL     1      35.969 -26.390 -15.692  0.00  0.00    -0.255 OA
BRANCH   2   4
ATOM      4  O   UNL     1      37.708 -26.990 -13.806  0.00  0.00    -0.322 OA
ATOM      5  H   UNL     1      38.667 -26.994 -13.947  0.00  0.00    +0.220 HD
ENDBRANCH   2   4
BRANCH   2   6
ATOM      6  O   UNL     1      38.295 -25.193 -15.497  0.00  0.00    -0.322 OA
ATOM      7  H   UNL     1      38.609 -25.776 -16.207  0.00  0.00    +0.220 HD
ENDBRANCH   2   6
ENDBRANCH   1   2
BRANCH   1   8
ATOM      8  P   UNL     1      37.656 -23.877 -12.396  0.00  0.00    +0.372 P 
ATOM      9  O   UNL     1      37.622 -22.380 -12.298  0.00  0.00    -0.255 OA
BRANCH   8  10
ATOM     10  O   UNL     1      39.082 -24.504 -12.825  0.00  0.00    -0.322 OA
ATOM     11  H   UNL     1      39.042 -25.471 -12.762  0.00  0.00    +0.220 HD
ENDBRANCH   8  10
BRANCH   8  12
ATOM     12  O   UNL     1      37.295 -24.644 -11.020  0.00  0.00    -0.322 OA
ATOM     13  H   UNL     1      36.335 -24.625 -10.883  0.00  0.00    +0.220 HD
ENDBRANCH   8  12
ENDBRANCH   1   8
BRANCH   1  14
ATOM     14  O   UNL     1      35.579 -25.288 -12.726  0.00  0.00    -0.367 OA
ATOM     15  H   UNL     1      35.759 -25.035 -11.807  0.00  0.00    +0.212 HD
ENDBRANCH   1  14
BRANCH   1  16
ATOM     16  C   UNL     1      35.596 -23.505 -14.309  0.00  0.00    +0.028 C 
BRANCH  16  17
ATOM     17  C   UNL     1      34.092 -23.746 -14.233  0.00  0.00    -0.074 C 
BRANCH  17  18
ATOM     18  N   UNL     1      33.424 -23.087 -15.353  0.00  0.00    +0.386 N 
ATOM     19  C   UNL     1      32.107 -23.678 -15.585  0.00  0.00    -0.101 C 
ATOM     20  H   UNL     1      33.301 -22.101 -15.118  0.00  0.00    -0.080 HD
BRANCH  18  21
ATOM     21  C   UNL     1      34.243 -23.176 -16.562  0.00  0.00    -0.077 C 
BRANCH  21  22
ATOM     22  C   UNL     1      33.355 -23.192 -17.805  0.00  0.00    -0.023 C 
BRANCH  22  23
ATOM     23  C   UNL     1      33.853 -22.195 -18.854  0.00  0.00    -0.002 C 
BRANCH  23  24
ATOM     24  C   UNL     1      35.364 -21.991 -18.756  0.00  0.00    -0.000 C 
ATOM     25  C   UNL     1      35.881 -21.106 -19.879  0.00  0.00    -0.000 C 
ENDBRANCH  23  24
ENDBRANCH  22  23
ENDBRANCH  21  22
ENDBRANCH  18  21
ENDBRANCH  17  18
ENDBRANCH  16  17
ENDBRANCH   1  16
TORSDOF 14
ENDMDL
MODEL 7
REMARK VINA RESULT:      -6.9      2.900      3.554
REMARK  Name = 60852
REMARK  14 active torsions:
REMARK  status: ('A' for Active; 'I' for Inactive)
REMARK    1  A    between atoms: C_1  and  P_2
REMARK    2  A    between atoms: C_1  and  P_8
REMARK    3  A    between atoms: C_1  and  O_14
REMARK    4  A    between atoms: C_1  and  C_16
REMARK    5  A    between atoms: P_2  and  O_4
REMARK    6  A    between atoms: P_2  and  O_6
REMARK    7  A    between atoms: P_8  and  O_10
REMARK    8  A    between atoms: P_8  and  O_12
REMARK    9  A    between atoms: C_16  and  C_17
REMARK   10  A    between atoms: C_17  and  N_18
REMARK   11  A    between atoms: N_18  and  C_21
REMARK   12  A    between atoms: C_21  and  C_22
REMARK   13  A    between atoms: C_22  and  C_23
REMARK   14  A    between atoms: C_23  and  C_24
REMARK                            x       y       z     vdW  Elec       q    Type
REMARK                         _______ _______ _______ _____ _____    ______ ____
ROOT
ATOM      1  C   UNL     1      37.028 -24.628 -13.897  0.00  0.00    +0.273 C 
ENDROOT
BRANCH   1   2
ATOM      2  P   UNL     1      36.543 -24.900 -12.147  0.00  0.00    +0.372 P 
ATOM      3  O   UNL     1      35.164 -24.430 -11.798  0.00  0.00    -0.255 OA
BRANCH   2   4
ATOM      4  O   UNL     1      37.741 -24.229 -11.293  0.00  0.00    -0.322 OA
ATOM      5  H   UNL     1      37.543 -24.301 -10.346  0.00  0.00    +0.220 HD
ENDBRANCH   2   4
BRANCH   2   6
ATOM      6  O   UNL     1      36.785 -26.487 -11.941  0.00  0.00    -0.322 OA
ATOM      7  H   UNL     1      37.178 -26.860 -12.745  0.00  0.00    +0.220 HD
ENDBRANCH   2   6
ENDBRANCH   1   2
BRANCH   1   8
ATOM      8  P   UNL     1      38.578 -25.386 -14.517  0.00  0.00    +0.372 P 
ATOM      9  O   UNL     1      39.462 -25.934 -13.436  0.00  0.00    -0.255 OA
BRANCH   8  10
ATOM     10  O   UNL     1      39.252 -24.245 -15.441  0.00  0.00    -0.322 OA
ATOM     11  H   UNL     1      39.056 -24.427 -16.374  0.00  0.00    +0.220 HD
ENDBRANCH   8  10
BRANCH   8  12
ATOM     12  O   UNL     1      38.062 -26.489 -15.580  0.00  0.00    -0.322 OA
ATOM     13  H   UNL     1      37.520 -27.150 -15.121  0.00  0.00    +0.220 HD
ENDBRANCH   8  12
ENDBRANCH   1   8
BRANCH   1  14
ATOM     14  O   UNL     1      37.383 -23.237 -13.912  0.00  0.00    -0.367 OA
ATOM     15  H   UNL     1      36.596 -22.705 -14.107  0.00  0.00    +0.212 HD
ENDBRANCH   1  14
BRANCH   1  16
ATOM     16  C   UNL     1      35.830 -24.779 -14.859  0.00  0.00    +0.028 C 
BRANCH  16  17
ATOM     17  C   UNL     1      35.119 -23.475 -15.209  0.00  0.00    -0.074 C 
BRANCH  17  18
ATOM     18  N   UNL     1      33.772 -23.757 -15.699  0.00  0.00    +0.386 N 
ATOM     19  C   UNL     1      33.591 -23.211 -17.044  0.00  0.00    -0.101 C 
ATOM     20  H   UNL     1      33.651 -24.769 -15.740  0.00  0.00    -0.080 HD
BRANCH  18  21
ATOM     21  C   UNL     1      32.769 -23.207 -14.786  0.00  0.00    -0.077 C 
BRANCH  21  22
ATOM     22  C   UNL     1      31.425 -23.903 -14.993  0.00  0.00    -0.023 C 
BRANCH  22  23
ATOM     23  C   UNL     1      30.285 -22.887 -15.096  0.00  0.00    -0.002 C 
BRANCH  23  24
ATOM     24  C   UNL     1      29.077 -23.478 -15.822  0.00  0.00    -0.000 C 
ATOM     25  C   UNL     1      27.907 -22.507 -15.839  0.00  0.00    -0.000 C 
ENDBRANCH  23  24
ENDBRANCH  22  23
ENDBRANCH  21  22
ENDBRANCH  18  21
ENDBRANCH  17  18
ENDBRANCH  16  17
ENDBRANCH   1  16
TORSDOF 14
ENDMDL
MODEL 8
REMARK VINA RESULT:      -6.8      1.589      2.275
REMARK  Name = 60852
REMARK  14 active torsions:
REMARK  status: ('A' for Active; 'I' for Inactive)
REMARK    1  A    between atoms: C_1  and  P_2
REMARK    2  A    between atoms: C_1  and  P_8
REMARK    3  A    between atoms: C_1  and  O_14
REMARK    4  A    between atoms: C_1  and  C_16
REMARK    5  A    between atoms: P_2  and  O_4
REMARK    6  A    between atoms: P_2  and  O_6
REMARK    7  A    between atoms: P_8  and  O_10
REMARK    8  A    between atoms: P_8  and  O_12
REMARK    9  A    between atoms: C_16  and  C_17
REMARK   10  A    between atoms: C_17  and  N_18
REMARK   11  A    between atoms: N_18  and  C_21
REMARK   12  A    between atoms: C_21  and  C_22
REMARK   13  A    between atoms: C_22  and  C_23
REMARK   14  A    between atoms: C_23  and  C_24
REMARK                            x       y       z     vdW  Elec       q    Type
REMARK                         _______ _______ _______ _____ _____    ______ ____
ROOT
ATOM      1  C   UNL     1      36.761 -24.882 -14.302  0.00  0.00    +0.273 C 
ENDROOT
BRANCH   1   2
ATOM      2  P   UNL     1      36.907 -24.222 -12.594  0.00  0.00    +0.372 P 
ATOM      3  O   UNL     1      38.231 -23.598 -12.275  0.00  0.00    -0.255 OA
BRANCH   2   4
ATOM      4  O   UNL     1      36.480 -25.463 -11.650  0.00  0.00    -0.322 OA
ATOM      5  H   UNL     1      37.218 -26.088 -11.584  0.00  0.00    +0.220 HD
ENDBRANCH   2   4
BRANCH   2   6
ATOM      6  O   UNL     1      35.645 -23.217 -12.479  0.00  0.00    -0.322 OA
ATOM      7  H   UNL     1      35.051 -23.357 -13.234  0.00  0.00    +0.220 HD
ENDBRANCH   2   6
ENDBRANCH   1   2
BRANCH   1   8
ATOM      8  P   UNL     1      37.451 -26.540 -14.673  0.00  0.00    +0.372 P 
ATOM      9  O   UNL     1      38.950 -26.582 -14.714  0.00  0.00    -0.255 OA
BRANCH   8  10
ATOM     10  O   UNL     1      36.715 -26.994 -16.039  0.00  0.00    -0.322 OA
ATOM     11  H   UNL     1      35.759 -26.855 -15.952  0.00  0.00    +0.220 HD
ENDBRANCH   8  10
BRANCH   8  12
ATOM     12  O   UNL     1      36.787 -27.488 -13.545  0.00  0.00    -0.322 OA
ATOM     13  H   UNL     1      37.489 -27.949 -13.059  0.00  0.00    +0.220 HD
ENDBRANCH   8  12
ENDBRANCH   1   8
BRANCH   1  14
ATOM     14  O   UNL     1      37.661 -24.044 -15.041  0.00  0.00    -0.367 OA
ATOM     15  H   UNL     1      37.793 -23.210 -14.562  0.00  0.00    +0.212 HD
ENDBRANCH   1  14
BRANCH   1  16
ATOM     16  C   UNL     1      35.357 -24.641 -14.897  0.00  0.00    +0.028 C 
BRANCH  16  17
ATOM     17  C   UNL     1      35.259 -23.454 -15.850  0.00  0.00    -0.074 C 
BRANCH  17  18
ATOM     18  N   UNL     1      33.859 -23.096 -16.058  0.00  0.00    +0.386 N 
ATOM     19  C   UNL     1      33.022 -23.666 -15.003  0.00  0.00    -0.101 C 
ATOM     20  H   UNL     1      33.778 -22.079 -16.022  0.00  0.00    -0.080 HD
BRANCH  18  21
ATOM     21  C   UNL     1      33.403 -23.551 -17.372  0.00  0.00    -0.077 C 
BRANCH  21  22
ATOM     22  C   UNL     1      33.346 -22.379 -18.349  0.00  0.00    -0.023 C 
BRANCH  22  23
ATOM     23  C   UNL     1      34.434 -22.498 -19.419  0.00  0.00    -0.002 C 
BRANCH  23  24
ATOM     24  C   UNL     1      35.654 -21.647 -19.069  0.00  0.00    -0.000 C 
ATOM     25  C   UNL     1      36.018 -20.700 -20.202  0.00  0.00    -0.000 C 
ENDBRANCH  23  24
ENDBRANCH  22  23
ENDBRANCH  21  22
ENDBRANCH  18  21
ENDBRANCH  17  18
ENDBRANCH  16  17
ENDBRANCH   1  16
TORSDOF 14
ENDMDL
MODEL 9
REMARK VINA RESULT:      -6.8      2.896      4.190
REMARK  Name = 60852
REMARK  14 active torsions:
REMARK  status: ('A' for Active; 'I' for Inactive)
REMARK    1  A    between atoms: C_1  and  P_2
REMARK    2  A    between atoms: C_1  and  P_8
REMARK    3  A    between atoms: C_1  and  O_14
REMARK    4  A    between atoms: C_1  and  C_16
REMARK    5  A    between atoms: P_2  and  O_4
REMARK    6  A    between atoms: P_2  and  O_6
REMARK    7  A    between atoms: P_8  and  O_10
REMARK    8  A    between atoms: P_8  and  O_12
REMARK    9  A    between atoms: C_16  and  C_17
REMARK   10  A    between atoms: C_17  and  N_18
REMARK   11  A    between atoms: N_18  and  C_21
REMARK   12  A    between atoms: C_21  and  C_22
REMARK   13  A    between atoms: C_22  and  C_23
REMARK   14  A    between atoms: C_23  and  C_24
REMARK                            x       y       z     vdW  Elec       q    Type
REMARK                         _______ _______ _______ _____ _____    ______ ____
ROOT
ATOM      1  C   UNL     1      36.794 -24.449 -13.785  0.00  0.00    +0.273 C 
ENDROOT
BRANCH   1   2
ATOM      2  P   UNL     1      37.082 -26.131 -14.463  0.00  0.00    +0.372 P 
ATOM      3  O   UNL     1      38.431 -26.334 -15.084  0.00  0.00    -0.255 OA
BRANCH   2   4
ATOM      4  O   UNL     1      35.822 -26.386 -15.445  0.00  0.00    -0.322 OA
ATOM      5  H   UNL     1      35.552 -25.546 -15.847  0.00  0.00    +0.220 HD
ENDBRANCH   2   4
BRANCH   2   6
ATOM      6  O   UNL     1      36.771 -27.095 -13.202  0.00  0.00    -0.322 OA
ATOM      7  H   UNL     1      36.001 -27.651 -13.404  0.00  0.00    +0.220 HD
ENDBRANCH   2   6
ENDBRANCH   1   2
BRANCH   1   8
ATOM      8  P   UNL     1      37.873 -23.841 -12.433  0.00  0.00    +0.372 P 
ATOM      9  O   UNL     1      37.695 -22.385 -12.120  0.00  0.00    -0.255 OA
BRANCH   8  10
ATOM     10  O   UNL     1      39.367 -24.268 -12.877  0.00  0.00    -0.322 OA
ATOM     11  H   UNL     1      39.354 -25.173 -13.227  0.00  0.00    +0.220 HD
ENDBRANCH   8  10
BRANCH   8  12
ATOM     12  O   UNL     1      37.537 -24.834 -11.204  0.00  0.00    -0.322 OA
ATOM     13  H   UNL     1      36.729 -24.535 -10.759  0.00  0.00    +0.220 HD
ENDBRANCH   8  12
ENDBRANCH   1   8
BRANCH   1  14
ATOM     14  O   UNL     1      35.548 -24.600 -13.090  0.00  0.00    -0.367 OA
ATOM     15  H   UNL     1      34.947 -25.147 -13.619  0.00  0.00    +0.212 HD
ENDBRANCH   1  14
BRANCH   1  16
ATOM     16  C   UNL     1      36.545 -23.411 -14.901  0.00  0.00    +0.028 C 
BRANCH  16  17
ATOM     17  C   UNL     1      35.143 -22.809 -14.916  0.00  0.00    -0.074 C 
BRANCH  17  18
ATOM     18  N   UNL     1      34.232 -23.685 -15.650  0.00  0.00    +0.386 N 
ATOM     19  C   UNL     1      34.028 -23.187 -17.010  0.00  0.00    -0.101 C 
ATOM     20  H   UNL     1      34.652 -24.613 -15.703  0.00  0.00    -0.080 HD
BRANCH  18  21
ATOM     21  C   UNL     1      32.952 -23.795 -14.949  0.00  0.00    -0.077 C 
BRANCH  21  22
ATOM     22  C   UNL     1      31.804 -23.402 -15.877  0.00  0.00    -0.023 C 
BRANCH  22  23
ATOM     23  C   UNL     1      30.605 -22.877 -15.084  0.00  0.00    -0.002 C 
BRANCH  23  24
ATOM     24  C   UNL     1      29.368 -23.746 -15.305  0.00  0.00    -0.000 C 
ATOM     25  C   UNL     1      29.622 -25.191 -14.908  0.00  0.00    -0.000 C 
ENDBRANCH  23  24
ENDBRANCH  22  23
ENDBRANCH  21  22
ENDBRANCH  18  21
ENDBRANCH  17  18
ENDBRANCH  16  17
ENDBRANCH   1  16
TORSDOF 14
ENDMDL
