MODEL 1
REMARK VINA RESULT:      -5.9      0.000      0.000
REMARK  Name = 439509
REMARK  4 active torsions:
REMARK  status: ('A' for Active; 'I' for Inactive)
REMARK    1  A    between atoms: C_2  and  O_7
REMARK    2  A    between atoms: C_3  and  O_9
REMARK    3  A    between atoms: C_4  and  O_11
REMARK    4  A    between atoms: C_5  and  O_13
REMARK                            x       y       z     vdW  Elec       q    Type
REMARK                         _______ _______ _______ _____ _____    ______ ____
ROOT
ATOM      1  O   UNL     1      37.717 -22.859 -13.382  0.00  0.00    -0.326 OA
ATOM      2  C   UNL     1      36.576 -25.493 -13.197  0.00  0.00    +0.172 C 
ATOM      3  C   UNL     1      36.883 -24.645 -11.962  0.00  0.00    +0.196 C 
ATOM      4  C   UNL     1      37.413 -25.042 -14.393  0.00  0.00    +0.169 C 
ATOM      5  C   UNL     1      36.851 -23.150 -12.286  0.00  0.00    +0.262 C 
ATOM      6  C   UNL     1      37.321 -23.533 -14.572  0.00  0.00    +0.176 C 
ENDROOT
BRANCH   2   7
ATOM      7  O   UNL     1      36.882 -26.854 -12.888  0.00  0.00    -0.379 OA
ATOM      8  H   UNL     1      36.136 -27.419 -13.143  0.00  0.00    +0.211 HD
ENDBRANCH   2   7
BRANCH   3   9
ATOM      9  O   UNL     1      35.905 -24.935 -10.965  0.00  0.00    -0.378 OA
ATOM     10  H   UNL     1      36.156 -24.509 -10.130  0.00  0.00    +0.211 HD
ENDBRANCH   3   9
BRANCH   4  11
ATOM     11  O   UNL     1      36.945 -25.664 -15.585  0.00  0.00    -0.379 OA
ATOM     12  H   UNL     1      36.757 -24.985 -16.251  0.00  0.00    +0.211 HD
ENDBRANCH   4  11
BRANCH   5  13
ATOM     13  O   UNL     1      37.285 -22.442 -11.125  0.00  0.00    -0.358 OA
ATOM     14  H   UNL     1      36.552 -22.383 -10.492  0.00  0.00    +0.213 HD
ENDBRANCH   5  13
TORSDOF 4
ENDMDL
MODEL 2
REMARK VINA RESULT:      -5.7      1.325      4.117
REMARK  Name = 439509
REMARK  4 active torsions:
REMARK  status: ('A' for Active; 'I' for Inactive)
REMARK    1  A    between atoms: C_2  and  O_7
REMARK    2  A    between atoms: C_3  and  O_9
REMARK    3  A    between atoms: C_4  and  O_11
REMARK    4  A    between atoms: C_5  and  O_13
REMARK                            x       y       z     vdW  Elec       q    Type
REMARK                         _______ _______ _______ _____ _____    ______ ____
ROOT
ATOM      1  O   UNL     1      37.588 -26.954 -13.778  0.00  0.00    -0.326 OA
ATOM      2  C   UNL     1      37.148 -24.116 -13.620  0.00  0.00    +0.172 C 
ATOM      3  C   UNL     1      37.255 -24.855 -14.954  0.00  0.00    +0.196 C 
ATOM      4  C   UNL     1      37.822 -24.908 -12.500  0.00  0.00    +0.169 C 
ATOM      5  C   UNL     1      36.844 -26.322 -14.819  0.00  0.00    +0.262 C 
ATOM      6  C   UNL     1      37.352 -26.356 -12.509  0.00  0.00    +0.176 C 
ENDROOT
BRANCH   2   7
ATOM      7  O   UNL     1      37.791 -22.849 -13.761  0.00  0.00    -0.379 OA
ATOM      8  H   UNL     1      37.200 -22.237 -14.227  0.00  0.00    +0.211 HD
ENDBRANCH   2   7
BRANCH   3   9
ATOM      9  O   UNL     1      36.400 -24.208 -15.895  0.00  0.00    -0.378 OA
ATOM     10  H   UNL     1      36.819 -24.210 -16.770  0.00  0.00    +0.211 HD
ENDBRANCH   3   9
BRANCH   4  11
ATOM     11  O   UNL     1      37.503 -24.341 -11.234  0.00  0.00    -0.379 OA
ATOM     12  H   UNL     1      36.809 -24.869 -10.810  0.00  0.00    +0.211 HD
ENDBRANCH   4  11
BRANCH   5  13
ATOM     13  O   UNL     1      37.107 -26.967 -16.064  0.00  0.00    -0.358 OA
ATOM     14  H   UNL     1      36.285 -27.029 -16.575  0.00  0.00    +0.213 HD
ENDBRANCH   5  13
TORSDOF 4
ENDMDL
MODEL 3
REMARK VINA RESULT:      -5.7      1.795      2.590
REMARK  Name = 439509
REMARK  4 active torsions:
REMARK  status: ('A' for Active; 'I' for Inactive)
REMARK    1  A    between atoms: C_2  and  O_7
REMARK    2  A    between atoms: C_3  and  O_9
REMARK    3  A    between atoms: C_4  and  O_11
REMARK    4  A    between atoms: C_5  and  O_13
REMARK                            x       y       z     vdW  Elec       q    Type
REMARK                         _______ _______ _______ _____ _____    ______ ____
ROOT
ATOM      1  O   UNL     1      36.925 -26.156 -11.982  0.00  0.00    -0.326 OA
ATOM      2  C   UNL     1      36.276 -24.789 -14.427  0.00  0.00    +0.172 C 
ATOM      3  C   UNL     1      35.403 -24.688 -13.176  0.00  0.00    +0.196 C 
ATOM      4  C   UNL     1      37.136 -26.051 -14.394  0.00  0.00    +0.169 C 
ATOM      5  C   UNL     1      36.217 -24.920 -11.903  0.00  0.00    +0.262 C 
ATOM      6  C   UNL     1      37.855 -26.175 -13.058  0.00  0.00    +0.176 C 
ENDROOT
BRANCH   2   7
ATOM      7  O   UNL     1      35.417 -24.827 -15.567  0.00  0.00    -0.379 OA
ATOM      8  H   UNL     1      35.785 -24.269 -16.269  0.00  0.00    +0.211 HD
ENDBRANCH   2   7
BRANCH   3   9
ATOM      9  O   UNL     1      34.823 -23.385 -13.138  0.00  0.00    -0.378 OA
ATOM     10  H   UNL     1      35.241 -22.864 -12.434  0.00  0.00    +0.211 HD
ENDBRANCH   3   9
BRANCH   4  11
ATOM     11  O   UNL     1      38.115 -26.008 -15.427  0.00  0.00    -0.379 OA
ATOM     12  H   UNL     1      38.814 -26.653 -15.237  0.00  0.00    +0.211 HD
ENDBRANCH   4  11
BRANCH   5  13
ATOM     13  O   UNL     1      35.309 -24.951 -10.803  0.00  0.00    -0.358 OA
ATOM     14  H   UNL     1      34.401 -25.025 -11.136  0.00  0.00    +0.213 HD
ENDBRANCH   5  13
TORSDOF 4
ENDMDL
MODEL 4
REMARK VINA RESULT:      -5.7      1.934      3.524
REMARK  Name = 439509
REMARK  4 active torsions:
REMARK  status: ('A' for Active; 'I' for Inactive)
REMARK    1  A    between atoms: C_2  and  O_7
REMARK    2  A    between atoms: C_3  and  O_9
REMARK    3  A    between atoms: C_4  and  O_11
REMARK    4  A    between atoms: C_5  and  O_13
REMARK                            x       y       z     vdW  Elec       q    Type
REMARK                         _______ _______ _______ _____ _____    ______ ____
ROOT
ATOM      1  O   UNL     1      35.588 -25.308 -15.361  0.00  0.00    -0.326 OA
ATOM      2  C   UNL     1      36.397 -25.013 -12.616  0.00  0.00    +0.172 C 
ATOM      3  C   UNL     1      37.041 -26.034 -13.555  0.00  0.00    +0.196 C 
ATOM      4  C   UNL     1      35.008 -24.615 -13.111  0.00  0.00    +0.169 C 
ATOM      5  C   UNL     1      36.942 -25.593 -15.017  0.00  0.00    +0.262 C 
ATOM      6  C   UNL     1      35.050 -24.241 -14.586  0.00  0.00    +0.176 C 
ENDROOT
BRANCH   2   7
ATOM      7  O   UNL     1      36.290 -25.606 -11.322  0.00  0.00    -0.379 OA
ATOM      8  H   UNL     1      36.234 -26.570 -11.411  0.00  0.00    +0.211 HD
ENDBRANCH   2   7
BRANCH   3   9
ATOM      9  O   UNL     1      38.414 -26.172 -13.193  0.00  0.00    -0.378 OA
ATOM     10  H   UNL     1      38.887 -25.349 -13.394  0.00  0.00    +0.211 HD
ENDBRANCH   3   9
BRANCH   4  11
ATOM     11  O   UNL     1      34.526 -23.494 -12.379  0.00  0.00    -0.379 OA
ATOM     12  H   UNL     1      33.904 -22.992 -12.929  0.00  0.00    +0.211 HD
ENDBRANCH   4  11
BRANCH   5  13
ATOM     13  O   UNL     1      37.435 -26.659 -15.828  0.00  0.00    -0.358 OA
ATOM     14  H   UNL     1      38.402 -26.607 -15.877  0.00  0.00    +0.213 HD
ENDBRANCH   5  13
TORSDOF 4
ENDMDL
MODEL 5
REMARK VINA RESULT:      -5.6      1.488      3.188
REMARK  Name = 439509
REMARK  4 active torsions:
REMARK  status: ('A' for Active; 'I' for Inactive)
REMARK    1  A    between atoms: C_2  and  O_7
REMARK    2  A    between atoms: C_3  and  O_9
REMARK    3  A    between atoms: C_4  and  O_11
REMARK    4  A    between atoms: C_5  and  O_13
REMARK                            x       y       z     vdW  Elec       q    Type
REMARK                         _______ _______ _______ _____ _____    ______ ____
ROOT
ATOM      1  O   UNL     1      37.655 -23.383 -13.989  0.00  0.00    -0.326 OA
ATOM      2  C   UNL     1      37.432 -26.128 -13.158  0.00  0.00    +0.172 C 
ATOM      3  C   UNL     1      38.074 -25.724 -14.485  0.00  0.00    +0.196 C 
ATOM      4  C   UNL     1      36.492 -25.036 -12.650  0.00  0.00    +0.169 C 
ATOM      5  C   UNL     1      38.651 -24.308 -14.422  0.00  0.00    +0.262 C 
ATOM      6  C   UNL     1      37.180 -23.679 -12.680  0.00  0.00    +0.176 C 
ENDROOT
BRANCH   2   7
ATOM      7  O   UNL     1      36.693 -27.331 -13.370  0.00  0.00    -0.379 OA
ATOM      8  H   UNL     1      36.761 -27.593 -14.301  0.00  0.00    +0.211 HD
ENDBRANCH   2   7
BRANCH   3   9
ATOM      9  O   UNL     1      39.120 -26.649 -14.777  0.00  0.00    -0.378 OA
ATOM     10  H   UNL     1      39.071 -26.912 -15.709  0.00  0.00    +0.211 HD
ENDBRANCH   3   9
BRANCH   4  11
ATOM     11  O   UNL     1      36.097 -25.308 -11.309  0.00  0.00    -0.379 OA
ATOM     12  H   UNL     1      36.276 -24.532 -10.756  0.00  0.00    +0.211 HD
ENDBRANCH   4  11
BRANCH   5  13
ATOM     13  O   UNL     1      39.099 -23.961 -15.731  0.00  0.00    -0.358 OA
ATOM     14  H   UNL     1      39.771 -23.264 -15.668  0.00  0.00    +0.213 HD
ENDBRANCH   5  13
TORSDOF 4
ENDMDL
MODEL 6
REMARK VINA RESULT:      -5.5      1.561      3.492
REMARK  Name = 439509
REMARK  4 active torsions:
REMARK  status: ('A' for Active; 'I' for Inactive)
REMARK    1  A    between atoms: C_2  and  O_7
REMARK    2  A    between atoms: C_3  and  O_9
REMARK    3  A    between atoms: C_4  and  O_11
REMARK    4  A    between atoms: C_5  and  O_13
REMARK                            x       y       z     vdW  Elec       q    Type
REMARK                         _______ _______ _______ _____ _____    ______ ____
ROOT
ATOM      1  O   UNL     1      38.105 -23.950 -13.471  0.00  0.00    -0.326 OA
ATOM      2  C   UNL     1      35.492 -24.289 -12.315  0.00  0.00    +0.172 C 
ATOM      3  C   UNL     1      35.719 -24.238 -13.827  0.00  0.00    +0.196 C 
ATOM      4  C   UNL     1      36.642 -23.617 -11.567  0.00  0.00    +0.169 C 
ATOM      5  C   UNL     1      37.130 -24.695 -14.199  0.00  0.00    +0.262 C 
ATOM      6  C   UNL     1      37.983 -24.136 -12.065  0.00  0.00    +0.176 C 
ENDROOT
BRANCH   2   7
ATOM      7  O   UNL     1      34.272 -23.607 -12.026  0.00  0.00    -0.379 OA
ATOM      8  H   UNL     1      34.002 -23.085 -12.798  0.00  0.00    +0.211 HD
ENDBRANCH   2   7
BRANCH   3   9
ATOM      9  O   UNL     1      34.763 -25.091 -14.453  0.00  0.00    -0.378 OA
ATOM     10  H   UNL     1      35.165 -25.517 -15.226  0.00  0.00    +0.211 HD
ENDBRANCH   3   9
BRANCH   4  11
ATOM     11  O   UNL     1      36.547 -23.888 -10.172  0.00  0.00    -0.379 OA
ATOM     12  H   UNL     1      36.637 -24.841 -10.022  0.00  0.00    +0.211 HD
ENDBRANCH   4  11
BRANCH   5  13
ATOM     13  O   UNL     1      37.304 -24.482 -15.599  0.00  0.00    -0.358 OA
ATOM     14  H   UNL     1      37.590 -23.568 -15.753  0.00  0.00    +0.213 HD
ENDBRANCH   5  13
TORSDOF 4
ENDMDL
MODEL 7
REMARK VINA RESULT:      -5.4      9.573     10.871
REMARK  Name = 439509
REMARK  4 active torsions:
REMARK  status: ('A' for Active; 'I' for Inactive)
REMARK    1  A    between atoms: C_2  and  O_7
REMARK    2  A    between atoms: C_3  and  O_9
REMARK    3  A    between atoms: C_4  and  O_11
REMARK    4  A    between atoms: C_5  and  O_13
REMARK                            x       y       z     vdW  Elec       q    Type
REMARK                         _______ _______ _______ _____ _____    ______ ____
ROOT
ATOM      1  O   UNL     1      42.144 -13.619 -15.661  0.00  0.00    -0.326 OA
ATOM      2  C   UNL     1      41.627 -16.188 -16.847  0.00  0.00    +0.172 C 
ATOM      3  C   UNL     1      41.087 -15.797 -15.471  0.00  0.00    +0.196 C 
ATOM      4  C   UNL     1      42.842 -15.340 -17.218  0.00  0.00    +0.169 C 
ATOM      5  C   UNL     1      40.922 -14.282 -15.341  0.00  0.00    +0.262 C 
ATOM      6  C   UNL     1      42.551 -13.861 -17.003  0.00  0.00    +0.176 C 
ENDROOT
BRANCH   2   7
ATOM      7  O   UNL     1      42.002 -17.565 -16.803  0.00  0.00    -0.379 OA
ATOM      8  H   UNL     1      41.763 -17.992 -17.641  0.00  0.00    +0.211 HD
ENDBRANCH   2   7
BRANCH   3   9
ATOM      9  O   UNL     1      39.821 -16.430 -15.290  0.00  0.00    -0.378 OA
ATOM     10  H   UNL     1      39.363 -16.491 -16.144  0.00  0.00    +0.211 HD
ENDBRANCH   3   9
BRANCH   4  11
ATOM     11  O   UNL     1      43.180 -15.535 -18.588  0.00  0.00    -0.379 OA
ATOM     12  H   UNL     1      44.132 -15.398 -18.708  0.00  0.00    +0.211 HD
ENDBRANCH   4  11
BRANCH   5  13
ATOM     13  O   UNL     1      40.554 -13.997 -13.992  0.00  0.00    -0.358 OA
ATOM     14  H   UNL     1      40.621 -13.042 -13.835  0.00  0.00    +0.213 HD
ENDBRANCH   5  13
TORSDOF 4
ENDMDL
MODEL 8
REMARK VINA RESULT:      -5.4      1.656      3.135
REMARK  Name = 439509
REMARK  4 active torsions:
REMARK  status: ('A' for Active; 'I' for Inactive)
REMARK    1  A    between atoms: C_2  and  O_7
REMARK    2  A    between atoms: C_3  and  O_9
REMARK    3  A    between atoms: C_4  and  O_11
REMARK    4  A    between atoms: C_5  and  O_13
REMARK                            x       y       z     vdW  Elec       q    Type
REMARK                         _______ _______ _______ _____ _____    ______ ____
ROOT
ATOM      1  O   UNL     1      37.209 -25.270 -14.055  0.00  0.00    -0.326 OA
ATOM      2  C   UNL     1      36.650 -23.790 -11.653  0.00  0.00    +0.172 C 
ATOM      3  C   UNL     1      38.069 -24.191 -12.056  0.00  0.00    +0.196 C 
ATOM      4  C   UNL     1      35.615 -24.693 -12.322  0.00  0.00    +0.169 C 
ATOM      5  C   UNL     1      38.196 -24.361 -13.571  0.00  0.00    +0.262 C 
ATOM      6  C   UNL     1      35.886 -24.803 -13.816  0.00  0.00    +0.176 C 
ENDROOT
BRANCH   2   7
ATOM      7  O   UNL     1      36.541 -23.909 -10.234  0.00  0.00    -0.379 OA
ATOM      8  H   UNL     1      37.325 -24.362  -9.886  0.00  0.00    +0.211 HD
ENDBRANCH   2   7
BRANCH   3   9
ATOM      9  O   UNL     1      38.966 -23.171 -11.617  0.00  0.00    -0.378 OA
ATOM     10  H   UNL     1      39.853 -23.546 -11.503  0.00  0.00    +0.211 HD
ENDBRANCH   3   9
BRANCH   4  11
ATOM     11  O   UNL     1      34.307 -24.161 -12.142  0.00  0.00    -0.379 OA
ATOM     12  H   UNL     1      34.208 -23.850 -11.228  0.00  0.00    +0.211 HD
ENDBRANCH   4  11
BRANCH   5  13
ATOM     13  O   UNL     1      39.501 -24.870 -13.846  0.00  0.00    -0.358 OA
ATOM     14  H   UNL     1      39.795 -24.550 -14.713  0.00  0.00    +0.213 HD
ENDBRANCH   5  13
TORSDOF 4
ENDMDL
MODEL 9
REMARK VINA RESULT:      -5.3      9.542     11.236
REMARK  Name = 439509
REMARK  4 active torsions:
REMARK  status: ('A' for Active; 'I' for Inactive)
REMARK    1  A    between atoms: C_2  and  O_7
REMARK    2  A    between atoms: C_3  and  O_9
REMARK    3  A    between atoms: C_4  and  O_11
REMARK    4  A    between atoms: C_5  and  O_13
REMARK                            x       y       z     vdW  Elec       q    Type
REMARK                         _______ _______ _______ _____ _____    ______ ____
ROOT
ATOM      1  O   UNL     1      42.433 -13.940 -17.159  0.00  0.00    -0.326 OA
ATOM      2  C   UNL     1      41.055 -15.807 -15.458  0.00  0.00    +0.172 C 
ATOM      3  C   UNL     1      41.589 -16.195 -16.837  0.00  0.00    +0.196 C 
ATOM      4  C   UNL     1      40.852 -14.296 -15.356  0.00  0.00    +0.169 C 
ATOM      5  C   UNL     1      42.777 -15.322 -17.246  0.00  0.00    +0.262 C 
ATOM      6  C   UNL     1      42.093 -13.554 -15.832  0.00  0.00    +0.176 C 
ENDROOT
BRANCH   2   7
ATOM      7  O   UNL     1      39.805 -16.469 -15.263  0.00  0.00    -0.379 OA
ATOM      8  H   UNL     1      39.529 -16.373 -14.338  0.00  0.00    +0.211 HD
ENDBRANCH   2   7
BRANCH   3   9
ATOM      9  O   UNL     1      41.998 -17.561 -16.791  0.00  0.00    -0.378 OA
ATOM     10  H   UNL     1      42.935 -17.628 -17.031  0.00  0.00    +0.211 HD
ENDBRANCH   3   9
BRANCH   4  11
ATOM     11  O   UNL     1      40.597 -13.923 -14.006  0.00  0.00    -0.379 OA
ATOM     12  H   UNL     1      40.459 -12.964 -13.957  0.00  0.00    +0.211 HD
ENDBRANCH   4  11
BRANCH   5  13
ATOM     13  O   UNL     1      43.119 -15.653 -18.591  0.00  0.00    -0.358 OA
ATOM     14  H   UNL     1      42.468 -15.263 -19.195  0.00  0.00    +0.213 HD
ENDBRANCH   5  13
TORSDOF 4
ENDMDL
