MODEL 1
REMARK VINA RESULT:      -7.0      0.000      0.000
REMARK  Name = 180621
REMARK  4 active torsions:
REMARK  status: ('A' for Active; 'I' for Inactive)
REMARK    1  A    between atoms: O_1  and  C_2
REMARK    2  A    between atoms: O_1  and  C_10
REMARK    3  A    between atoms: C_10  and  C_11
REMARK    4  A    between atoms: C_11  and  N_13
REMARK                            x       y       z     vdW  Elec       q    Type
REMARK                         _______ _______ _______ _____ _____    ______ ____
ROOT
ATOM      1  O   UNL     1      34.716 -18.693 -21.674  0.00  0.00    -0.478 OA
ENDROOT
BRANCH   1   2
ATOM      2  C   UNL     1      34.941 -19.735 -20.815  0.00  0.00    +0.130 C 
ATOM      3  C   UNL     1      33.863 -20.445 -20.293  0.00  0.00    +0.012 C 
ATOM      4  C   UNL     1      36.244 -20.080 -20.470  0.00  0.00    +0.012 C 
ATOM      5  C   UNL     1      34.090 -21.506 -19.417  0.00  0.00    -0.001 C 
ATOM      6  C   UNL     1      36.472 -21.141 -19.595  0.00  0.00    -0.001 C 
ATOM      7  C   UNL     1      35.394 -21.855 -19.068  0.00  0.00    -0.000 C 
ATOM      8  C   UNL     1      32.458 -20.086 -20.653  0.00  0.00    +0.034 C 
ATOM      9  C   UNL     1      37.411 -19.329 -21.023  0.00  0.00    +0.034 C 
ENDBRANCH   1   2
BRANCH   1  10
ATOM     10  C   UNL     1      34.569 -19.017 -23.051  0.00  0.00    +0.184 C 
BRANCH  10  11
ATOM     11  C   UNL     1      35.320 -17.995 -23.904  0.00  0.00    -0.021 C 
ATOM     12  C   UNL     1      34.533 -17.614 -25.159  0.00  0.00    -0.020 C 
BRANCH  11  13
ATOM     13  N   UNL     1      35.592 -16.803 -23.102  0.00  0.00    +0.384 N 
ATOM     14  H   UNL     1      35.731 -17.073 -22.129  0.00  0.00    -0.089 HD
ATOM     15  H   UNL     1      34.801 -16.162 -23.167  0.00  0.00    -0.089 HD
ATOM     16  H   UNL     1      36.432 -16.342 -23.450  0.00  0.00    -0.089 HD
ENDBRANCH  11  13
ENDBRANCH  10  11
ENDBRANCH   1  10
TORSDOF 4
ENDMDL
MODEL 2
REMARK VINA RESULT:      -7.0      0.017      2.383
REMARK  Name = 180621
REMARK  4 active torsions:
REMARK  status: ('A' for Active; 'I' for Inactive)
REMARK    1  A    between atoms: O_1  and  C_2
REMARK    2  A    between atoms: O_1  and  C_10
REMARK    3  A    between atoms: C_10  and  C_11
REMARK    4  A    between atoms: C_11  and  N_13
REMARK                            x       y       z     vdW  Elec       q    Type
REMARK                         _______ _______ _______ _____ _____    ______ ____
ROOT
ATOM      1  O   UNL     1      34.726 -18.699 -21.663  0.00  0.00    -0.478 OA
ENDROOT
BRANCH   1   2
ATOM      2  C   UNL     1      34.942 -19.746 -20.806  0.00  0.00    +0.130 C 
ATOM      3  C   UNL     1      36.244 -20.095 -20.458  0.00  0.00    +0.012 C 
ATOM      4  C   UNL     1      33.861 -20.452 -20.289  0.00  0.00    +0.012 C 
ATOM      5  C   UNL     1      36.466 -21.161 -19.586  0.00  0.00    -0.001 C 
ATOM      6  C   UNL     1      34.082 -21.518 -19.416  0.00  0.00    -0.001 C 
ATOM      7  C   UNL     1      35.385 -21.872 -19.064  0.00  0.00    -0.000 C 
ATOM      8  C   UNL     1      37.415 -19.347 -21.006  0.00  0.00    +0.034 C 
ATOM      9  C   UNL     1      32.458 -20.089 -20.652  0.00  0.00    +0.034 C 
ENDBRANCH   1   2
BRANCH   1  10
ATOM     10  C   UNL     1      34.566 -19.019 -23.039  0.00  0.00    +0.184 C 
BRANCH  10  11
ATOM     11  C   UNL     1      35.326 -18.007 -23.896  0.00  0.00    -0.021 C 
ATOM     12  C   UNL     1      34.551 -17.637 -25.161  0.00  0.00    -0.020 C 
BRANCH  11  13
ATOM     13  N   UNL     1      35.592 -16.807 -23.103  0.00  0.00    +0.384 N 
ATOM     14  H   UNL     1      36.320 -16.255 -23.555  0.00  0.00    -0.089 HD
ATOM     15  H   UNL     1      35.901 -17.079 -22.170  0.00  0.00    -0.089 HD
ATOM     16  H   UNL     1      34.740 -16.252 -23.030  0.00  0.00    -0.089 HD
ENDBRANCH  11  13
ENDBRANCH  10  11
ENDBRANCH   1  10
TORSDOF 4
ENDMDL
MODEL 3
REMARK VINA RESULT:      -6.8      3.321      4.703
REMARK  Name = 180621
REMARK  4 active torsions:
REMARK  status: ('A' for Active; 'I' for Inactive)
REMARK    1  A    between atoms: O_1  and  C_2
REMARK    2  A    between atoms: O_1  and  C_10
REMARK    3  A    between atoms: C_10  and  C_11
REMARK    4  A    between atoms: C_11  and  N_13
REMARK                            x       y       z     vdW  Elec       q    Type
REMARK                         _______ _______ _______ _____ _____    ______ ____
ROOT
ATOM      1  O   UNL     1      34.700 -15.189 -23.381  0.00  0.00    -0.478 OA
ENDROOT
BRANCH   1   2
ATOM      2  C   UNL     1      34.727 -16.493 -22.964  0.00  0.00    +0.130 C 
ATOM      3  C   UNL     1      34.777 -17.518 -23.905  0.00  0.00    +0.012 C 
ATOM      4  C   UNL     1      34.706 -16.786 -21.604  0.00  0.00    +0.012 C 
ATOM      5  C   UNL     1      34.804 -18.847 -23.482  0.00  0.00    -0.001 C 
ATOM      6  C   UNL     1      34.734 -18.115 -21.180  0.00  0.00    -0.001 C 
ATOM      7  C   UNL     1      34.783 -19.146 -22.120  0.00  0.00    -0.000 C 
ATOM      8  C   UNL     1      34.799 -17.219 -25.368  0.00  0.00    +0.034 C 
ATOM      9  C   UNL     1      34.654 -15.698 -20.583  0.00  0.00    +0.034 C 
ENDBRANCH   1   2
BRANCH   1  10
ATOM     10  C   UNL     1      33.426 -14.644 -23.700  0.00  0.00    +0.184 C 
BRANCH  10  11
ATOM     11  C   UNL     1      33.302 -13.241 -23.105  0.00  0.00    -0.021 C 
ATOM     12  C   UNL     1      33.671 -12.159 -24.121  0.00  0.00    -0.020 C 
BRANCH  11  13
ATOM     13  N   UNL     1      31.934 -13.037 -22.630  0.00  0.00    +0.384 N 
ATOM     14  H   UNL     1      31.406 -13.902 -22.734  0.00  0.00    -0.089 HD
ATOM     15  H   UNL     1      31.491 -12.300 -23.178  0.00  0.00    -0.089 HD
ATOM     16  H   UNL     1      31.952 -12.765 -21.648  0.00  0.00    -0.089 HD
ENDBRANCH  11  13
ENDBRANCH  10  11
ENDBRANCH   1  10
TORSDOF 4
ENDMDL
MODEL 4
REMARK VINA RESULT:      -6.8      3.327      4.678
REMARK  Name = 180621
REMARK  4 active torsions:
REMARK  status: ('A' for Active; 'I' for Inactive)
REMARK    1  A    between atoms: O_1  and  C_2
REMARK    2  A    between atoms: O_1  and  C_10
REMARK    3  A    between atoms: C_10  and  C_11
REMARK    4  A    between atoms: C_11  and  N_13
REMARK                            x       y       z     vdW  Elec       q    Type
REMARK                         _______ _______ _______ _____ _____    ______ ____
ROOT
ATOM      1  O   UNL     1      34.759 -15.162 -23.386  0.00  0.00    -0.478 OA
ENDROOT
BRANCH   1   2
ATOM      2  C   UNL     1      34.782 -16.465 -22.963  0.00  0.00    +0.130 C 
ATOM      3  C   UNL     1      34.751 -16.749 -21.601  0.00  0.00    +0.012 C 
ATOM      4  C   UNL     1      34.834 -17.495 -23.897  0.00  0.00    +0.012 C 
ATOM      5  C   UNL     1      34.774 -18.075 -21.169  0.00  0.00    -0.001 C 
ATOM      6  C   UNL     1      34.858 -18.821 -23.466  0.00  0.00    -0.001 C 
ATOM      7  C   UNL     1      34.827 -19.111 -22.101  0.00  0.00    -0.000 C 
ATOM      8  C   UNL     1      34.695 -15.654 -20.587  0.00  0.00    +0.034 C 
ATOM      9  C   UNL     1      34.867 -17.206 -25.362  0.00  0.00    +0.034 C 
ENDBRANCH   1   2
BRANCH   1  10
ATOM     10  C   UNL     1      33.491 -14.625 -23.740  0.00  0.00    +0.184 C 
BRANCH  10  11
ATOM     11  C   UNL     1      33.335 -13.229 -23.136  0.00  0.00    -0.021 C 
ATOM     12  C   UNL     1      33.697 -12.133 -24.139  0.00  0.00    -0.020 C 
BRANCH  11  13
ATOM     13  N   UNL     1      31.958 -13.053 -22.676  0.00  0.00    +0.384 N 
ATOM     14  H   UNL     1      31.700 -13.830 -22.070  0.00  0.00    -0.089 HD
ATOM     15  H   UNL     1      31.332 -13.027 -23.481  0.00  0.00    -0.089 HD
ATOM     16  H   UNL     1      31.882 -12.178 -22.159  0.00  0.00    -0.089 HD
ENDBRANCH  11  13
ENDBRANCH  10  11
ENDBRANCH   1  10
TORSDOF 4
ENDMDL
MODEL 5
REMARK VINA RESULT:      -6.7      2.522      5.196
REMARK  Name = 180621
REMARK  4 active torsions:
REMARK  status: ('A' for Active; 'I' for Inactive)
REMARK    1  A    between atoms: O_1  and  C_2
REMARK    2  A    between atoms: O_1  and  C_10
REMARK    3  A    between atoms: C_10  and  C_11
REMARK    4  A    between atoms: C_11  and  N_13
REMARK                            x       y       z     vdW  Elec       q    Type
REMARK                         _______ _______ _______ _____ _____    ______ ____
ROOT
ATOM      1  O   UNL     1      34.804 -18.461 -21.357  0.00  0.00    -0.478 OA
ENDROOT
BRANCH   1   2
ATOM      2  C   UNL     1      34.740 -17.541 -22.370  0.00  0.00    +0.130 C 
ATOM      3  C   UNL     1      34.785 -17.968 -23.694  0.00  0.00    +0.012 C 
ATOM      4  C   UNL     1      34.631 -16.187 -22.070  0.00  0.00    +0.012 C 
ATOM      5  C   UNL     1      34.720 -17.033 -24.727  0.00  0.00    -0.001 C 
ATOM      6  C   UNL     1      34.566 -15.251 -23.102  0.00  0.00    -0.001 C 
ATOM      7  C   UNL     1      34.610 -15.675 -24.432  0.00  0.00    -0.000 C 
ATOM      8  C   UNL     1      34.903 -19.419 -24.031  0.00  0.00    +0.034 C 
ATOM      9  C   UNL     1      34.581 -15.713 -20.654  0.00  0.00    +0.034 C 
ENDBRANCH   1   2
BRANCH   1  10
ATOM     10  C   UNL     1      33.571 -19.018 -20.919  0.00  0.00    +0.184 C 
BRANCH  10  11
ATOM     11  C   UNL     1      33.769 -20.492 -20.563  0.00  0.00    -0.021 C 
ATOM     12  C   UNL     1      35.187 -20.771 -20.066  0.00  0.00    -0.020 C 
BRANCH  11  13
ATOM     13  N   UNL     1      32.795 -20.877 -19.543  0.00  0.00    +0.384 N 
ATOM     14  H   UNL     1      32.759 -21.893 -19.473  0.00  0.00    -0.089 HD
ATOM     15  H   UNL     1      31.874 -20.521 -19.800  0.00  0.00    -0.089 HD
ATOM     16  H   UNL     1      33.071 -20.483 -18.643  0.00  0.00    -0.089 HD
ENDBRANCH  11  13
ENDBRANCH  10  11
ENDBRANCH   1  10
TORSDOF 4
ENDMDL
MODEL 6
REMARK VINA RESULT:      -6.7      2.413      5.239
REMARK  Name = 180621
REMARK  4 active torsions:
REMARK  status: ('A' for Active; 'I' for Inactive)
REMARK    1  A    between atoms: O_1  and  C_2
REMARK    2  A    between atoms: O_1  and  C_10
REMARK    3  A    between atoms: C_10  and  C_11
REMARK    4  A    between atoms: C_11  and  N_13
REMARK                            x       y       z     vdW  Elec       q    Type
REMARK                         _______ _______ _______ _____ _____    ______ ____
ROOT
ATOM      1  O   UNL     1      34.890 -18.454 -21.566  0.00  0.00    -0.478 OA
ENDROOT
BRANCH   1   2
ATOM      2  C   UNL     1      34.735 -17.592 -22.619  0.00  0.00    +0.130 C 
ATOM      3  C   UNL     1      34.586 -16.228 -22.380  0.00  0.00    +0.012 C 
ATOM      4  C   UNL     1      34.730 -18.083 -23.921  0.00  0.00    +0.012 C 
ATOM      5  C   UNL     1      34.430 -15.350 -23.451  0.00  0.00    -0.001 C 
ATOM      6  C   UNL     1      34.573 -17.205 -24.993  0.00  0.00    -0.001 C 
ATOM      7  C   UNL     1      34.423 -15.837 -24.758  0.00  0.00    -0.000 C 
ATOM      8  C   UNL     1      34.589 -15.687 -20.988  0.00  0.00    +0.034 C 
ATOM      9  C   UNL     1      34.890 -19.543 -24.194  0.00  0.00    +0.034 C 
ENDBRANCH   1   2
BRANCH   1  10
ATOM     10  C   UNL     1      33.702 -18.904 -20.926  0.00  0.00    +0.184 C 
BRANCH  10  11
ATOM     11  C   UNL     1      33.806 -20.402 -20.642  0.00  0.00    -0.021 C 
ATOM     12  C   UNL     1      35.192 -20.788 -20.124  0.00  0.00    -0.020 C 
BRANCH  11  13
ATOM     13  N   UNL     1      32.784 -20.780 -19.666  0.00  0.00    +0.384 N 
ATOM     14  H   UNL     1      32.582 -21.775 -19.753  0.00  0.00    -0.089 HD
ATOM     15  H   UNL     1      31.933 -20.245 -19.841  0.00  0.00    -0.089 HD
ATOM     16  H   UNL     1      33.122 -20.582 -18.725  0.00  0.00    -0.089 HD
ENDBRANCH  11  13
ENDBRANCH  10  11
ENDBRANCH   1  10
TORSDOF 4
ENDMDL
MODEL 7
REMARK VINA RESULT:      -6.6      3.344      5.117
REMARK  Name = 180621
REMARK  4 active torsions:
REMARK  status: ('A' for Active; 'I' for Inactive)
REMARK    1  A    between atoms: O_1  and  C_2
REMARK    2  A    between atoms: O_1  and  C_10
REMARK    3  A    between atoms: C_10  and  C_11
REMARK    4  A    between atoms: C_11  and  N_13
REMARK                            x       y       z     vdW  Elec       q    Type
REMARK                         _______ _______ _______ _____ _____    ______ ____
ROOT
ATOM      1  O   UNL     1      34.333 -15.162 -22.980  0.00  0.00    -0.478 OA
ENDROOT
BRANCH   1   2
ATOM      2  C   UNL     1      34.486 -16.466 -23.371  0.00  0.00    +0.130 C 
ATOM      3  C   UNL     1      34.264 -16.819 -24.699  0.00  0.00    +0.012 C 
ATOM      4  C   UNL     1      34.865 -17.428 -22.441  0.00  0.00    +0.012 C 
ATOM      5  C   UNL     1      34.420 -18.146 -25.099  0.00  0.00    -0.001 C 
ATOM      6  C   UNL     1      35.021 -18.755 -22.839  0.00  0.00    -0.001 C 
ATOM      7  C   UNL     1      34.799 -19.115 -24.170  0.00  0.00    -0.000 C 
ATOM      8  C   UNL     1      33.856 -15.797 -25.710  0.00  0.00    +0.034 C 
ATOM      9  C   UNL     1      35.108 -17.064 -21.012  0.00  0.00    +0.034 C 
ENDBRANCH   1   2
BRANCH   1  10
ATOM     10  C   UNL     1      33.034 -14.768 -22.557  0.00  0.00    +0.184 C 
BRANCH  10  11
ATOM     11  C   UNL     1      32.710 -13.380 -23.110  0.00  0.00    -0.021 C 
ATOM     12  C   UNL     1      32.049 -12.489 -22.057  0.00  0.00    -0.020 C 
BRANCH  11  13
ATOM     13  N   UNL     1      33.939 -12.755 -23.596  0.00  0.00    +0.384 N 
ATOM     14  H   UNL     1      34.609 -12.682 -22.831  0.00  0.00    -0.089 HD
ATOM     15  H   UNL     1      33.728 -11.824 -23.953  0.00  0.00    -0.089 HD
ATOM     16  H   UNL     1      34.337 -13.324 -24.343  0.00  0.00    -0.089 HD
ENDBRANCH  11  13
ENDBRANCH  10  11
ENDBRANCH   1  10
TORSDOF 4
ENDMDL
MODEL 8
REMARK VINA RESULT:      -6.6      3.350      5.193
REMARK  Name = 180621
REMARK  4 active torsions:
REMARK  status: ('A' for Active; 'I' for Inactive)
REMARK    1  A    between atoms: O_1  and  C_2
REMARK    2  A    between atoms: O_1  and  C_10
REMARK    3  A    between atoms: C_10  and  C_11
REMARK    4  A    between atoms: C_11  and  N_13
REMARK                            x       y       z     vdW  Elec       q    Type
REMARK                         _______ _______ _______ _____ _____    ______ ____
ROOT
ATOM      1  O   UNL     1      34.352 -15.170 -22.975  0.00  0.00    -0.478 OA
ENDROOT
BRANCH   1   2
ATOM      2  C   UNL     1      34.498 -16.471 -23.378  0.00  0.00    +0.130 C 
ATOM      3  C   UNL     1      34.878 -17.442 -22.455  0.00  0.00    +0.012 C 
ATOM      4  C   UNL     1      34.265 -16.815 -24.706  0.00  0.00    +0.012 C 
ATOM      5  C   UNL     1      35.026 -18.767 -22.864  0.00  0.00    -0.001 C 
ATOM      6  C   UNL     1      34.413 -18.140 -25.116  0.00  0.00    -0.001 C 
ATOM      7  C   UNL     1      34.794 -19.117 -24.194  0.00  0.00    -0.000 C 
ATOM      8  C   UNL     1      35.132 -17.088 -21.027  0.00  0.00    +0.034 C 
ATOM      9  C   UNL     1      33.856 -15.785 -25.708  0.00  0.00    +0.034 C 
ENDBRANCH   1   2
BRANCH   1  10
ATOM     10  C   UNL     1      33.050 -14.767 -22.571  0.00  0.00    +0.184 C 
BRANCH  10  11
ATOM     11  C   UNL     1      32.741 -13.381 -23.138  0.00  0.00    -0.021 C 
ATOM     12  C   UNL     1      32.060 -12.483 -22.105  0.00  0.00    -0.020 C 
BRANCH  11  13
ATOM     13  N   UNL     1      33.983 -12.761 -23.600  0.00  0.00    +0.384 N 
ATOM     14  H   UNL     1      33.907 -11.748 -23.519  0.00  0.00    -0.089 HD
ATOM     15  H   UNL     1      34.145 -13.013 -24.575  0.00  0.00    -0.089 HD
ATOM     16  H   UNL     1      34.760 -13.091 -23.030  0.00  0.00    -0.089 HD
ENDBRANCH  11  13
ENDBRANCH  10  11
ENDBRANCH   1  10
TORSDOF 4
ENDMDL
MODEL 9
REMARK VINA RESULT:      -6.6      3.639      6.188
REMARK  Name = 180621
REMARK  4 active torsions:
REMARK  status: ('A' for Active; 'I' for Inactive)
REMARK    1  A    between atoms: O_1  and  C_2
REMARK    2  A    between atoms: O_1  and  C_10
REMARK    3  A    between atoms: C_10  and  C_11
REMARK    4  A    between atoms: C_11  and  N_13
REMARK                            x       y       z     vdW  Elec       q    Type
REMARK                         _______ _______ _______ _____ _____    ______ ____
ROOT
ATOM      1  O   UNL     1      35.914 -22.396 -18.452  0.00  0.00    -0.478 OA
ENDROOT
BRANCH   1   2
ATOM      2  C   UNL     1      35.030 -21.628 -19.163  0.00  0.00    +0.130 C 
ATOM      3  C   UNL     1      35.507 -20.670 -20.054  0.00  0.00    +0.012 C 
ATOM      4  C   UNL     1      33.661 -21.810 -18.992  0.00  0.00    +0.012 C 
ATOM      5  C   UNL     1      34.608 -19.888 -20.778  0.00  0.00    -0.001 C 
ATOM      6  C   UNL     1      32.761 -21.028 -19.715  0.00  0.00    -0.001 C 
ATOM      7  C   UNL     1      33.235 -20.066 -20.609  0.00  0.00    -0.000 C 
ATOM      8  C   UNL     1      36.974 -20.463 -20.247  0.00  0.00    +0.034 C 
ATOM      9  C   UNL     1      33.133 -22.834 -18.040  0.00  0.00    +0.034 C 
ENDBRANCH   1   2
BRANCH   1  10
ATOM     10  C   UNL     1      36.374 -21.866 -17.216  0.00  0.00    +0.184 C 
BRANCH  10  11
ATOM     11  C   UNL     1      36.280 -22.937 -16.129  0.00  0.00    -0.021 C 
ATOM     12  C   UNL     1      37.640 -23.219 -15.489  0.00  0.00    -0.020 C 
BRANCH  11  13
ATOM     13  N   UNL     1      35.325 -22.506 -15.108  0.00  0.00    +0.384 N 
ATOM     14  H   UNL     1      35.063 -23.303 -14.530  0.00  0.00    -0.089 HD
ATOM     15  H   UNL     1      34.494 -22.126 -15.560  0.00  0.00    -0.089 HD
ATOM     16  H   UNL     1      35.753 -21.788 -14.524  0.00  0.00    -0.089 HD
ENDBRANCH  11  13
ENDBRANCH  10  11
ENDBRANCH   1  10
TORSDOF 4
ENDMDL
