MODEL 1
REMARK VINA RESULT:      -7.0      0.000      0.000
REMARK  Name = 6420129
REMARK  2 active torsions:
REMARK  status: ('A' for Active; 'I' for Inactive)
REMARK    1  A    between atoms: C_1  and  N_11
REMARK    2  A    between atoms: C_2  and  O_15
REMARK                            x       y       z     vdW  Elec       q    Type
REMARK                         _______ _______ _______ _____ _____    ______ ____
ROOT
ATOM      1  C   UNL     1      33.797 -14.311 -22.007  0.00  0.00    -0.034 C 
ATOM      2  C   UNL     1      34.219 -14.741 -23.425  0.00  0.00    +0.113 C 
ATOM      3  C   UNL     1      34.704 -14.989 -20.980  0.00  0.00    -0.015 C 
ATOM      4  C   UNL     1      34.608 -16.515 -21.050  0.00  0.00    +0.024 C 
ATOM      5  C   UNL     1      34.404 -16.237 -23.579  0.00  0.00    -0.002 C 
ATOM      6  C   UNL     1      34.628 -17.059 -22.457  0.00  0.00    -0.024 C 
ATOM      7  C   UNL     1      34.436 -16.813 -24.861  0.00  0.00    -0.002 C 
ATOM      8  C   UNL     1      34.828 -18.437 -22.638  0.00  0.00    -0.005 C 
ATOM      9  C   UNL     1      34.644 -18.182 -25.026  0.00  0.00    -0.000 C 
ATOM     10  C   UNL     1      34.835 -18.995 -23.915  0.00  0.00    -0.000 C 
ENDROOT
BRANCH   1  11
ATOM     11  N   UNL     1      32.390 -14.628 -21.742  0.00  0.00    +0.384 N 
ATOM     12  H   UNL     1      32.327 -15.254 -20.939  0.00  0.00    -0.089 HD
ATOM     13  H   UNL     1      31.984 -15.082 -22.560  0.00  0.00    -0.089 HD
ATOM     14  H   UNL     1      31.879 -13.768 -21.542  0.00  0.00    -0.089 HD
ENDBRANCH   1  11
BRANCH   2  15
ATOM     15  O   UNL     1      33.287 -14.235 -24.379  0.00  0.00    -0.382 OA
ATOM     16  H   UNL     1      33.491 -14.599 -25.255  0.00  0.00    +0.211 HD
ENDBRANCH   2  15
TORSDOF 2
ENDMDL
MODEL 2
REMARK VINA RESULT:      -7.0      6.804      8.265
REMARK  Name = 6420129
REMARK  2 active torsions:
REMARK  status: ('A' for Active; 'I' for Inactive)
REMARK    1  A    between atoms: C_1  and  N_11
REMARK    2  A    between atoms: C_2  and  O_15
REMARK                            x       y       z     vdW  Elec       q    Type
REMARK                         _______ _______ _______ _____ _____    ______ ____
ROOT
ATOM      1  C   UNL     1      32.674  -7.093 -22.001  0.00  0.00    -0.034 C 
ATOM      2  C   UNL     1      32.299  -7.651 -20.614  0.00  0.00    +0.113 C 
ATOM      3  C   UNL     1      31.636  -7.546 -23.028  0.00  0.00    -0.015 C 
ATOM      4  C   UNL     1      31.573  -9.071 -23.143  0.00  0.00    +0.024 C 
ATOM      5  C   UNL     1      31.965  -9.130 -20.621  0.00  0.00    -0.002 C 
ATOM      6  C   UNL     1      31.584  -9.780 -21.811  0.00  0.00    -0.024 C 
ATOM      7  C   UNL     1      31.954  -9.853 -19.417  0.00  0.00    -0.002 C 
ATOM      8  C   UNL     1      31.250 -11.144 -21.777  0.00  0.00    -0.005 C 
ATOM      9  C   UNL     1      31.611 -11.204 -19.396  0.00  0.00    -0.000 C 
ATOM     10  C   UNL     1      31.264 -11.852 -20.577  0.00  0.00    -0.000 C 
ENDROOT
BRANCH   1  11
ATOM     11  N   UNL     1      34.020  -7.512 -22.406  0.00  0.00    +0.384 N 
ATOM     12  H   UNL     1      34.365  -8.221 -21.759  0.00  0.00    -0.089 HD
ATOM     13  H   UNL     1      34.645  -6.706 -22.394  0.00  0.00    -0.089 HD
ATOM     14  H   UNL     1      33.985  -7.901 -23.348  0.00  0.00    -0.089 HD
ENDBRANCH   1  11
BRANCH   2  15
ATOM     15  O   UNL     1      33.339  -7.361 -19.681  0.00  0.00    -0.382 OA
ATOM     16  H   UNL     1      33.196  -6.480 -19.302  0.00  0.00    +0.211 HD
ENDBRANCH   2  15
TORSDOF 2
ENDMDL
MODEL 3
REMARK VINA RESULT:      -6.9      3.660      4.930
REMARK  Name = 6420129
REMARK  2 active torsions:
REMARK  status: ('A' for Active; 'I' for Inactive)
REMARK    1  A    between atoms: C_1  and  N_11
REMARK    2  A    between atoms: C_2  and  O_15
REMARK                            x       y       z     vdW  Elec       q    Type
REMARK                         _______ _______ _______ _____ _____    ______ ____
ROOT
ATOM      1  C   UNL     1      34.859 -17.799 -21.710  0.00  0.00    -0.034 C 
ATOM      2  C   UNL     1      33.842 -18.920 -21.426  0.00  0.00    +0.113 C 
ATOM      3  C   UNL     1      36.196 -18.418 -22.119  0.00  0.00    -0.015 C 
ATOM      4  C   UNL     1      36.778 -19.304 -21.014  0.00  0.00    +0.024 C 
ATOM      5  C   UNL     1      34.376 -20.015 -20.524  0.00  0.00    -0.002 C 
ATOM      6  C   UNL     1      35.762 -20.214 -20.369  0.00  0.00    -0.024 C 
ATOM      7  C   UNL     1      33.486 -20.901 -19.893  0.00  0.00    -0.002 C 
ATOM      8  C   UNL     1      36.223 -21.258 -19.551  0.00  0.00    -0.005 C 
ATOM      9  C   UNL     1      33.959 -21.940 -19.091  0.00  0.00    -0.000 C 
ATOM     10  C   UNL     1      35.327 -22.115 -18.915  0.00  0.00    -0.000 C 
ENDROOT
BRANCH   1  11
ATOM     11  N   UNL     1      35.031 -16.918 -20.551  0.00  0.00    +0.384 N 
ATOM     12  H   UNL     1      34.437 -16.095 -20.657  0.00  0.00    -0.089 HD
ATOM     13  H   UNL     1      36.006 -16.627 -20.486  0.00  0.00    -0.089 HD
ATOM     14  H   UNL     1      34.768 -17.418 -19.702  0.00  0.00    -0.089 HD
ENDBRANCH   1  11
BRANCH   2  15
ATOM     15  O   UNL     1      32.640 -18.358 -20.900  0.00  0.00    -0.382 OA
ATOM     16  H   UNL     1      32.653 -17.397 -21.023  0.00  0.00    +0.211 HD
ENDBRANCH   2  15
TORSDOF 2
ENDMDL
MODEL 4
REMARK VINA RESULT:      -6.9      3.934      5.099
REMARK  Name = 6420129
REMARK  2 active torsions:
REMARK  status: ('A' for Active; 'I' for Inactive)
REMARK    1  A    between atoms: C_1  and  N_11
REMARK    2  A    between atoms: C_2  and  O_15
REMARK                            x       y       z     vdW  Elec       q    Type
REMARK                         _______ _______ _______ _____ _____    ______ ____
ROOT
ATOM      1  C   UNL     1      35.833 -17.852 -22.049  0.00  0.00    -0.034 C 
ATOM      2  C   UNL     1      36.508 -18.723 -20.971  0.00  0.00    +0.113 C 
ATOM      3  C   UNL     1      34.424 -17.477 -21.588  0.00  0.00    -0.015 C 
ATOM      4  C   UNL     1      33.545 -18.711 -21.371  0.00  0.00    +0.024 C 
ATOM      5  C   UNL     1      35.640 -19.862 -20.475  0.00  0.00    -0.002 C 
ATOM      6  C   UNL     1      34.240 -19.828 -20.632  0.00  0.00    -0.024 C 
ATOM      7  C   UNL     1      36.220 -20.934 -19.776  0.00  0.00    -0.002 C 
ATOM      8  C   UNL     1      33.462 -20.884 -20.132  0.00  0.00    -0.005 C 
ATOM      9  C   UNL     1      35.434 -21.972 -19.276  0.00  0.00    -0.000 C 
ATOM     10  C   UNL     1      34.056 -21.950 -19.458  0.00  0.00    -0.000 C 
ENDROOT
BRANCH   1  11
ATOM     11  N   UNL     1      35.789 -18.535 -23.346  0.00  0.00    +0.384 N 
ATOM     12  H   UNL     1      36.135 -17.908 -24.072  0.00  0.00    -0.089 HD
ATOM     13  H   UNL     1      34.827 -18.801 -23.556  0.00  0.00    -0.089 HD
ATOM     14  H   UNL     1      36.373 -19.370 -23.311  0.00  0.00    -0.089 HD
ENDBRANCH   1  11
BRANCH   2  15
ATOM     15  O   UNL     1      37.762 -19.202 -21.455  0.00  0.00    -0.382 OA
ATOM     16  H   UNL     1      37.799 -20.166 -21.357  0.00  0.00    +0.211 HD
ENDBRANCH   2  15
TORSDOF 2
ENDMDL
MODEL 5
REMARK VINA RESULT:      -6.8      1.967      3.294
REMARK  Name = 6420129
REMARK  2 active torsions:
REMARK  status: ('A' for Active; 'I' for Inactive)
REMARK    1  A    between atoms: C_1  and  N_11
REMARK    2  A    between atoms: C_2  and  O_15
REMARK                            x       y       z     vdW  Elec       q    Type
REMARK                         _______ _______ _______ _____ _____    ______ ____
ROOT
ATOM      1  C   UNL     1      35.190 -17.766 -21.214  0.00  0.00    -0.034 C 
ATOM      2  C   UNL     1      34.880 -16.300 -21.572  0.00  0.00    +0.113 C 
ATOM      3  C   UNL     1      36.086 -18.374 -22.293  0.00  0.00    -0.015 C 
ATOM      4  C   UNL     1      35.413 -18.364 -23.668  0.00  0.00    +0.024 C 
ATOM      5  C   UNL     1      34.428 -16.104 -23.005  0.00  0.00    -0.002 C 
ATOM      6  C   UNL     1      34.720 -17.064 -23.995  0.00  0.00    -0.024 C 
ATOM      7  C   UNL     1      33.780 -14.916 -23.381  0.00  0.00    -0.002 C 
ATOM      8  C   UNL     1      34.315 -16.837 -25.320  0.00  0.00    -0.005 C 
ATOM      9  C   UNL     1      33.391 -14.699 -24.703  0.00  0.00    -0.000 C 
ATOM     10  C   UNL     1      33.654 -15.661 -25.672  0.00  0.00    -0.000 C 
ENDROOT
BRANCH   1  11
ATOM     11  N   UNL     1      33.964 -18.555 -21.055  0.00  0.00    +0.384 N 
ATOM     12  H   UNL     1      33.469 -18.598 -21.947  0.00  0.00    -0.089 HD
ATOM     13  H   UNL     1      33.365 -18.116 -20.356  0.00  0.00    -0.089 HD
ATOM     14  H   UNL     1      34.203 -19.499 -20.754  0.00  0.00    -0.089 HD
ENDBRANCH   1  11
BRANCH   2  15
ATOM     15  O   UNL     1      33.925 -15.771 -20.653  0.00  0.00    -0.382 OA
ATOM     16  H   UNL     1      33.071 -16.210 -20.786  0.00  0.00    +0.211 HD
ENDBRANCH   2  15
TORSDOF 2
ENDMDL
MODEL 6
REMARK VINA RESULT:      -6.8      1.223      1.652
REMARK  Name = 6420129
REMARK  2 active torsions:
REMARK  status: ('A' for Active; 'I' for Inactive)
REMARK    1  A    between atoms: C_1  and  N_11
REMARK    2  A    between atoms: C_2  and  O_15
REMARK                            x       y       z     vdW  Elec       q    Type
REMARK                         _______ _______ _______ _____ _____    ______ ____
ROOT
ATOM      1  C   UNL     1      33.233 -14.745 -20.771  0.00  0.00    -0.034 C 
ATOM      2  C   UNL     1      33.234 -14.240 -22.226  0.00  0.00    +0.113 C 
ATOM      3  C   UNL     1      34.580 -15.399 -20.460  0.00  0.00    -0.015 C 
ATOM      4  C   UNL     1      34.857 -16.599 -21.368  0.00  0.00    +0.024 C 
ATOM      5  C   UNL     1      33.729 -15.264 -23.228  0.00  0.00    -0.002 C 
ATOM      6  C   UNL     1      34.528 -16.350 -22.820  0.00  0.00    -0.024 C 
ATOM      7  C   UNL     1      33.461 -15.094 -24.597  0.00  0.00    -0.002 C 
ATOM      8  C   UNL     1      34.996 -17.264 -23.778  0.00  0.00    -0.005 C 
ATOM      9  C   UNL     1      33.940 -16.004 -25.539  0.00  0.00    -0.000 C 
ATOM     10  C   UNL     1      34.703 -17.091 -25.130  0.00  0.00    -0.000 C 
ENDROOT
BRANCH   1  11
ATOM     11  N   UNL     1      32.134 -15.684 -20.525  0.00  0.00    +0.384 N 
ATOM     12  H   UNL     1      31.254 -15.172 -20.470  0.00  0.00    -0.089 HD
ATOM     13  H   UNL     1      32.298 -16.176 -19.647  0.00  0.00    -0.089 HD
ATOM     14  H   UNL     1      32.087 -16.359 -21.289  0.00  0.00    -0.089 HD
ENDBRANCH   1  11
BRANCH   2  15
ATOM     15  O   UNL     1      31.934 -13.765 -22.572  0.00  0.00    -0.382 OA
ATOM     16  H   UNL     1      31.269 -14.230 -22.041  0.00  0.00    +0.211 HD
ENDBRANCH   2  15
TORSDOF 2
ENDMDL
MODEL 7
REMARK VINA RESULT:      -6.6     10.524     11.730
REMARK  Name = 6420129
REMARK  2 active torsions:
REMARK  status: ('A' for Active; 'I' for Inactive)
REMARK    1  A    between atoms: C_1  and  N_11
REMARK    2  A    between atoms: C_2  and  O_15
REMARK                            x       y       z     vdW  Elec       q    Type
REMARK                         _______ _______ _______ _____ _____    ______ ____
ROOT
ATOM      1  C   UNL     1      35.373 -24.190 -14.450  0.00  0.00    -0.034 C 
ATOM      2  C   UNL     1      34.142 -23.807 -13.606  0.00  0.00    +0.113 C 
ATOM      3  C   UNL     1      35.492 -23.233 -15.636  0.00  0.00    -0.015 C 
ATOM      4  C   UNL     1      34.265 -23.298 -16.549  0.00  0.00    +0.024 C 
ATOM      5  C   UNL     1      32.884 -23.594 -14.423  0.00  0.00    -0.002 C 
ATOM      6  C   UNL     1      32.954 -23.313 -15.802  0.00  0.00    -0.024 C 
ATOM      7  C   UNL     1      31.628 -23.593 -13.792  0.00  0.00    -0.002 C 
ATOM      8  C   UNL     1      31.771 -23.089 -16.524  0.00  0.00    -0.005 C 
ATOM      9  C   UNL     1      30.461 -23.360 -14.519  0.00  0.00    -0.000 C 
ATOM     10  C   UNL     1      30.531 -23.113 -15.886  0.00  0.00    -0.000 C 
ENDROOT
BRANCH   1  11
ATOM     11  N   UNL     1      35.300 -25.580 -14.912  0.00  0.00    +0.384 N 
ATOM     12  H   UNL     1      35.981 -25.727 -15.657  0.00  0.00    -0.089 HD
ATOM     13  H   UNL     1      34.363 -25.772 -15.265  0.00  0.00    -0.089 HD
ATOM     14  H   UNL     1      35.507 -26.208 -14.135  0.00  0.00    -0.089 HD
ENDBRANCH   1  11
BRANCH   2  15
ATOM     15  O   UNL     1      33.936 -24.782 -12.585  0.00  0.00    -0.382 OA
ATOM     16  H   UNL     1      33.228 -25.388 -12.855  0.00  0.00    +0.211 HD
ENDBRANCH   2  15
TORSDOF 2
ENDMDL
MODEL 8
REMARK VINA RESULT:      -6.5      2.093      3.782
REMARK  Name = 6420129
REMARK  2 active torsions:
REMARK  status: ('A' for Active; 'I' for Inactive)
REMARK    1  A    between atoms: C_1  and  N_11
REMARK    2  A    between atoms: C_2  and  O_15
REMARK                            x       y       z     vdW  Elec       q    Type
REMARK                         _______ _______ _______ _____ _____    ______ ____
ROOT
ATOM      1  C   UNL     1      35.253 -18.520 -23.348  0.00  0.00    -0.034 C 
ATOM      2  C   UNL     1      34.563 -17.283 -23.953  0.00  0.00    +0.113 C 
ATOM      3  C   UNL     1      34.431 -19.032 -22.165  0.00  0.00    -0.015 C 
ATOM      4  C   UNL     1      34.306 -17.983 -21.058  0.00  0.00    +0.024 C 
ATOM      5  C   UNL     1      34.153 -16.248 -22.924  0.00  0.00    -0.002 C 
ATOM      6  C   UNL     1      33.995 -16.597 -21.569  0.00  0.00    -0.024 C 
ATOM      7  C   UNL     1      33.846 -14.938 -23.330  0.00  0.00    -0.002 C 
ATOM      8  C   UNL     1      33.583 -15.621 -20.646  0.00  0.00    -0.005 C 
ATOM      9  C   UNL     1      33.429 -13.981 -22.404  0.00  0.00    -0.000 C 
ATOM     10  C   UNL     1      33.302 -14.321 -21.062  0.00  0.00    -0.000 C 
ENDROOT
BRANCH   1  11
ATOM     11  N   UNL     1      36.628 -18.223 -22.932  0.00  0.00    +0.384 N 
ATOM     12  H   UNL     1      36.868 -17.270 -23.206  0.00  0.00    -0.089 HD
ATOM     13  H   UNL     1      37.268 -18.878 -23.381  0.00  0.00    -0.089 HD
ATOM     14  H   UNL     1      36.703 -18.313 -21.919  0.00  0.00    -0.089 HD
ENDBRANCH   1  11
BRANCH   2  15
ATOM     15  O   UNL     1      35.397 -16.709 -24.959  0.00  0.00    -0.382 OA
ATOM     16  H   UNL     1      36.179 -17.268 -25.087  0.00  0.00    +0.211 HD
ENDBRANCH   2  15
TORSDOF 2
ENDMDL
MODEL 9
REMARK VINA RESULT:      -6.5      5.931      7.591
REMARK  Name = 6420129
REMARK  2 active torsions:
REMARK  status: ('A' for Active; 'I' for Inactive)
REMARK    1  A    between atoms: C_1  and  N_11
REMARK    2  A    between atoms: C_2  and  O_15
REMARK                            x       y       z     vdW  Elec       q    Type
REMARK                         _______ _______ _______ _____ _____    ______ ____
ROOT
ATOM      1  C   UNL     1      32.047  -7.895 -21.309  0.00  0.00    -0.034 C 
ATOM      2  C   UNL     1      31.761  -9.194 -22.086  0.00  0.00    +0.113 C 
ATOM      3  C   UNL     1      32.554  -6.826 -22.277  0.00  0.00    -0.015 C 
ATOM      4  C   UNL     1      33.853  -7.249 -22.968  0.00  0.00    +0.024 C 
ATOM      5  C   UNL     1      32.884  -9.610 -23.015  0.00  0.00    -0.002 C 
ATOM      6  C   UNL     1      33.841  -8.676 -23.458  0.00  0.00    -0.024 C 
ATOM      7  C   UNL     1      32.934 -10.924 -23.512  0.00  0.00    -0.002 C 
ATOM      8  C   UNL     1      34.850  -9.088 -24.344  0.00  0.00    -0.005 C 
ATOM      9  C   UNL     1      33.936 -11.316 -24.398  0.00  0.00    -0.000 C 
ATOM     10  C   UNL     1      34.897 -10.400 -24.811  0.00  0.00    -0.000 C 
ENDROOT
BRANCH   1  11
ATOM     11  N   UNL     1      33.014  -8.113 -20.228  0.00  0.00    +0.384 N 
ATOM     12  H   UNL     1      33.119  -9.114 -20.063  0.00  0.00    -0.089 HD
ATOM     13  H   UNL     1      32.680  -7.662 -19.377  0.00  0.00    -0.089 HD
ATOM     14  H   UNL     1      33.915  -7.716 -20.492  0.00  0.00    -0.089 HD
ENDBRANCH   1  11
BRANCH   2  15
ATOM     15  O   UNL     1      31.432 -10.239 -21.172  0.00  0.00    -0.382 OA
ATOM     16  H   UNL     1      30.508 -10.145 -20.892  0.00  0.00    +0.211 HD
ENDBRANCH   2  15
TORSDOF 2
ENDMDL
