MODEL 1
REMARK VINA RESULT:      -8.7      0.000      0.000
REMARK  Name = 448285
REMARK  10 active torsions:
REMARK  status: ('A' for Active; 'I' for Inactive)
REMARK    1  A    between atoms: N_2  and  N_6
REMARK    2  A    between atoms: C_3  and  C_16
REMARK    3  A    between atoms: C_7  and  C_10
REMARK    4  A    between atoms: C_16  and  O_17
REMARK    5  A    between atoms: C_16  and  C_19
REMARK    6  A    between atoms: C_19  and  N_20
REMARK    7  A    between atoms: C_19  and  C_24
REMARK    8  A    between atoms: C_24  and  C_25
REMARK    9  A    between atoms: C_25  and  S_26
REMARK   10  A    between atoms: S_26  and  C_27
REMARK                            x       y       z     vdW  Elec       q    Type
REMARK                         _______ _______ _______ _____ _____    ______ ____
ROOT
ATOM      1  O   UNL     1      33.654 -14.700 -21.277  0.00  0.00    -0.271 OA
ATOM      2  N   UNL     1      34.351 -16.340 -22.763  0.00  0.00    -0.232 N 
ATOM      3  C   UNL     1      34.031 -15.045 -22.395  0.00  0.00    +0.263 C 
ATOM      4  H   UNL     1      34.646 -16.540 -23.680  0.00  0.00    +0.173 HD
ENDROOT
BRANCH   2   6
ATOM      5  O   UNL     1      34.700 -19.000 -23.382  0.00  0.00    -0.269 OA
ATOM      6  N   UNL     1      34.250 -17.340 -21.830  0.00  0.00    -0.230 N 
ATOM      7  C   UNL     1      34.441 -18.648 -22.233  0.00  0.00    +0.261 C 
ATOM      8  H   UNL     1      34.045 -17.131 -20.889  0.00  0.00    +0.173 HD
BRANCH   7  10
ATOM      9 CL   UNL     1      36.807 -21.749 -18.800  0.00  0.00    -0.082 Cl
ATOM     10  C   UNL     1      34.335 -19.674 -21.164  0.00  0.00    +0.056 C 
ATOM     11  C   UNL     1      35.487 -20.171 -20.555  0.00  0.00    +0.016 C 
ATOM     12  C   UNL     1      33.081 -20.140 -20.769  0.00  0.00    +0.005 C 
ATOM     13  C   UNL     1      35.386 -21.135 -19.552  0.00  0.00    +0.058 C 
ATOM     14  C   UNL     1      32.980 -21.105 -19.766  0.00  0.00    +0.001 C 
ATOM     15  C   UNL     1      34.132 -21.601 -19.157  0.00  0.00    +0.011 C 
ENDBRANCH   7  10
ENDBRANCH   2   6
BRANCH   3  16
ATOM     16  C   UNL     1      34.171 -14.061 -23.553  0.00  0.00    +0.168 C 
BRANCH  16  17
ATOM     17  O   UNL     1      33.613 -14.651 -24.717  0.00  0.00    -0.377 OA
ATOM     18  H   UNL     1      33.043 -14.007 -25.166  0.00  0.00    +0.211 HD
ENDBRANCH  16  17
BRANCH  16  19
ATOM     19  C   UNL     1      33.477 -12.714 -23.248  0.00  0.00    -0.028 C 
BRANCH  19  20
ATOM     20  N   UNL     1      32.054 -12.986 -23.008  0.00  0.00    +0.384 N 
ATOM     21  H   UNL     1      31.918 -13.988 -22.871  0.00  0.00    -0.089 HD
ATOM     22  H   UNL     1      31.509 -12.676 -23.813  0.00  0.00    -0.089 HD
ATOM     23  H   UNL     1      31.748 -12.483 -22.176  0.00  0.00    -0.089 HD
ENDBRANCH  19  20
BRANCH  19  24
ATOM     24  C   UNL     1      33.659 -11.684 -24.388  0.00  0.00    -0.007 C 
BRANCH  24  25
ATOM     25  C   UNL     1      34.027 -10.260 -23.957  0.00  0.00    +0.055 C 
BRANCH  25  26
ATOM     26  S   UNL     1      32.619  -9.334 -23.277  0.00  0.00    -0.141 S 
BRANCH  26  27
ATOM     27  C   UNL     1      33.529  -7.913 -22.631  0.00  0.00    +0.048 C 
ATOM     28  C   UNL     1      32.616  -6.693 -22.590  0.00  0.00    +0.012 C 
ATOM     29  C   UNL     1      34.761  -7.657 -23.492  0.00  0.00    +0.012 C 
ENDBRANCH  26  27
ENDBRANCH  25  26
ENDBRANCH  24  25
ENDBRANCH  19  24
ENDBRANCH  16  19
ENDBRANCH   3  16
TORSDOF 10
ENDMDL
MODEL 2
REMARK VINA RESULT:      -8.6      1.025      1.636
REMARK  Name = 448285
REMARK  10 active torsions:
REMARK  status: ('A' for Active; 'I' for Inactive)
REMARK    1  A    between atoms: N_2  and  N_6
REMARK    2  A    between atoms: C_3  and  C_16
REMARK    3  A    between atoms: C_7  and  C_10
REMARK    4  A    between atoms: C_16  and  O_17
REMARK    5  A    between atoms: C_16  and  C_19
REMARK    6  A    between atoms: C_19  and  N_20
REMARK    7  A    between atoms: C_19  and  C_24
REMARK    8  A    between atoms: C_24  and  C_25
REMARK    9  A    between atoms: C_25  and  S_26
REMARK   10  A    between atoms: S_26  and  C_27
REMARK                            x       y       z     vdW  Elec       q    Type
REMARK                         _______ _______ _______ _____ _____    ______ ____
ROOT
ATOM      1  O   UNL     1      33.980 -14.937 -21.303  0.00  0.00    -0.271 OA
ATOM      2  N   UNL     1      34.927 -16.421 -22.814  0.00  0.00    -0.232 N 
ATOM      3  C   UNL     1      34.341 -15.225 -22.443  0.00  0.00    +0.263 C 
ATOM      4  H   UNL     1      35.190 -16.580 -23.749  0.00  0.00    +0.173 HD
ENDROOT
BRANCH   2   6
ATOM      5  O   UNL     1      34.481 -19.101 -23.267  0.00  0.00    -0.269 OA
ATOM      6  N   UNL     1      35.138 -17.383 -21.858  0.00  0.00    -0.230 N 
ATOM      7  C   UNL     1      34.887 -18.704 -22.177  0.00  0.00    +0.261 C 
ATOM      8  H   UNL     1      35.463 -17.137 -20.961  0.00  0.00    +0.173 HD
BRANCH   7  10
ATOM      9 CL   UNL     1      33.053 -22.153 -18.751  0.00  0.00    -0.082 Cl
ATOM     10  C   UNL     1      35.156 -19.689 -21.098  0.00  0.00    +0.056 C 
ATOM     11  C   UNL     1      34.101 -20.378 -20.502  0.00  0.00    +0.016 C 
ATOM     12  C   UNL     1      36.467 -19.925 -20.682  0.00  0.00    +0.005 C 
ATOM     13  C   UNL     1      34.355 -21.303 -19.488  0.00  0.00    +0.058 C 
ATOM     14  C   UNL     1      36.721 -20.849 -19.669  0.00  0.00    +0.001 C 
ATOM     15  C   UNL     1      35.666 -21.538 -19.072  0.00  0.00    +0.011 C 
ENDBRANCH   7  10
ENDBRANCH   2   6
BRANCH   3  16
ATOM     16  C   UNL     1      34.153 -14.278 -23.625  0.00  0.00    +0.168 C 
BRANCH  16  17
ATOM     17  O   UNL     1      33.355 -14.930 -24.603  0.00  0.00    -0.377 OA
ATOM     18  H   UNL     1      33.462 -14.484 -25.457  0.00  0.00    +0.211 HD
ENDBRANCH  16  17
BRANCH  16  19
ATOM     19  C   UNL     1      33.497 -12.947 -23.196  0.00  0.00    -0.028 C 
BRANCH  19  20
ATOM     20  N   UNL     1      32.099 -13.227 -22.846  0.00  0.00    +0.384 N 
ATOM     21  H   UNL     1      31.684 -12.400 -22.418  0.00  0.00    -0.089 HD
ATOM     22  H   UNL     1      32.063 -14.006 -22.189  0.00  0.00    -0.089 HD
ATOM     23  H   UNL     1      31.581 -13.471 -23.690  0.00  0.00    -0.089 HD
ENDBRANCH  19  20
BRANCH  19  24
ATOM     24  C   UNL     1      33.585 -11.863 -24.296  0.00  0.00    -0.007 C 
BRANCH  24  25
ATOM     25  C   UNL     1      33.908 -10.443 -23.819  0.00  0.00    +0.055 C 
BRANCH  25  26
ATOM     26  S   UNL     1      32.427  -9.423 -23.558  0.00  0.00    -0.141 S 
BRANCH  26  27
ATOM     27  C   UNL     1      33.250  -7.871 -23.135  0.00  0.00    +0.048 C 
ATOM     28  C   UNL     1      34.712  -7.932 -23.562  0.00  0.00    +0.012 C 
ATOM     29  C   UNL     1      33.118  -7.610 -21.639  0.00  0.00    +0.012 C 
ENDBRANCH  26  27
ENDBRANCH  25  26
ENDBRANCH  24  25
ENDBRANCH  19  24
ENDBRANCH  16  19
ENDBRANCH   3  16
TORSDOF 10
ENDMDL
MODEL 3
REMARK VINA RESULT:      -8.6      7.814     11.869
REMARK  Name = 448285
REMARK  10 active torsions:
REMARK  status: ('A' for Active; 'I' for Inactive)
REMARK    1  A    between atoms: N_2  and  N_6
REMARK    2  A    between atoms: C_3  and  C_16
REMARK    3  A    between atoms: C_7  and  C_10
REMARK    4  A    between atoms: C_16  and  O_17
REMARK    5  A    between atoms: C_16  and  C_19
REMARK    6  A    between atoms: C_19  and  N_20
REMARK    7  A    between atoms: C_19  and  C_24
REMARK    8  A    between atoms: C_24  and  C_25
REMARK    9  A    between atoms: C_25  and  S_26
REMARK   10  A    between atoms: S_26  and  C_27
REMARK                            x       y       z     vdW  Elec       q    Type
REMARK                         _______ _______ _______ _____ _____    ______ ____
ROOT
ATOM      1  O   UNL     1      36.744 -22.450 -15.696  0.00  0.00    -0.271 OA
ATOM      2  N   UNL     1      34.959 -23.339 -16.882  0.00  0.00    -0.232 N 
ATOM      3  C   UNL     1      35.933 -23.351 -15.900  0.00  0.00    +0.263 C 
ATOM      4  H   UNL     1      34.345 -24.101 -16.986  0.00  0.00    +0.173 HD
ENDROOT
BRANCH   2   6
ATOM      5  O   UNL     1      33.878 -23.473 -19.411  0.00  0.00    -0.269 OA
ATOM      6  N   UNL     1      34.864 -22.248 -17.709  0.00  0.00    -0.230 N 
ATOM      7  C   UNL     1      34.305 -22.411 -18.963  0.00  0.00    +0.261 C 
ATOM      8  H   UNL     1      35.186 -21.365 -17.416  0.00  0.00    +0.173 HD
BRANCH   7  10
ATOM      9 CL   UNL     1      36.730 -18.683 -21.649  0.00  0.00    -0.082 Cl
ATOM     10  C   UNL     1      34.218 -21.183 -19.794  0.00  0.00    +0.056 C 
ATOM     11  C   UNL     1      35.380 -20.581 -20.275  0.00  0.00    +0.016 C 
ATOM     12  C   UNL     1      32.972 -20.632 -20.092  0.00  0.00    +0.005 C 
ATOM     13  C   UNL     1      35.297 -19.427 -21.055  0.00  0.00    +0.058 C 
ATOM     14  C   UNL     1      32.888 -19.478 -20.871  0.00  0.00    +0.001 C 
ATOM     15  C   UNL     1      34.051 -18.876 -21.353  0.00  0.00    +0.011 C 
ENDBRANCH   7  10
ENDBRANCH   2   6
BRANCH   3  16
ATOM     16  C   UNL     1      35.922 -24.643 -15.087  0.00  0.00    +0.168 C 
BRANCH  16  17
ATOM     17  O   UNL     1      37.129 -25.347 -15.342  0.00  0.00    -0.377 OA
ATOM     18  H   UNL     1      37.082 -26.227 -14.936  0.00  0.00    +0.211 HD
ENDBRANCH  16  17
BRANCH  16  19
ATOM     19  C   UNL     1      35.770 -24.368 -13.574  0.00  0.00    -0.028 C 
BRANCH  19  20
ATOM     20  N   UNL     1      36.206 -25.571 -12.853  0.00  0.00    +0.384 N 
ATOM     21  H   UNL     1      36.139 -26.380 -13.471  0.00  0.00    -0.089 HD
ATOM     22  H   UNL     1      35.609 -25.713 -12.039  0.00  0.00    -0.089 HD
ATOM     23  H   UNL     1      37.172 -25.453 -12.550  0.00  0.00    -0.089 HD
ENDBRANCH  19  20
BRANCH  19  24
ATOM     24  C   UNL     1      34.323 -23.985 -13.185  0.00  0.00    -0.007 C 
BRANCH  24  25
ATOM     25  C   UNL     1      33.208 -24.634 -14.014  0.00  0.00    +0.055 C 
BRANCH  25  26
ATOM     26  S   UNL     1      31.584 -23.862 -13.754  0.00  0.00    -0.141 S 
BRANCH  26  27
ATOM     27  C   UNL     1      30.912 -24.104 -15.414  0.00  0.00    +0.048 C 
ATOM     28  C   UNL     1      31.464 -23.036 -16.352  0.00  0.00    +0.012 C 
ATOM     29  C   UNL     1      29.389 -24.066 -15.362  0.00  0.00    +0.012 C 
ENDBRANCH  26  27
ENDBRANCH  25  26
ENDBRANCH  24  25
ENDBRANCH  19  24
ENDBRANCH  16  19
ENDBRANCH   3  16
TORSDOF 10
ENDMDL
MODEL 4
REMARK VINA RESULT:      -8.5      4.289     10.108
REMARK  Name = 448285
REMARK  10 active torsions:
REMARK  status: ('A' for Active; 'I' for Inactive)
REMARK    1  A    between atoms: N_2  and  N_6
REMARK    2  A    between atoms: C_3  and  C_16
REMARK    3  A    between atoms: C_7  and  C_10
REMARK    4  A    between atoms: C_16  and  O_17
REMARK    5  A    between atoms: C_16  and  C_19
REMARK    6  A    between atoms: C_19  and  N_20
REMARK    7  A    between atoms: C_19  and  C_24
REMARK    8  A    between atoms: C_24  and  C_25
REMARK    9  A    between atoms: C_25  and  S_26
REMARK   10  A    between atoms: S_26  and  C_27
REMARK                            x       y       z     vdW  Elec       q    Type
REMARK                         _______ _______ _______ _____ _____    ______ ____
ROOT
ATOM      1  O   UNL     1      34.963 -14.540 -21.651  0.00  0.00    -0.271 OA
ATOM      2  N   UNL     1      34.071 -14.018 -23.728  0.00  0.00    -0.232 N 
ATOM      3  C   UNL     1      34.555 -14.880 -22.760  0.00  0.00    +0.263 C 
ATOM      4  H   UNL     1      33.763 -14.365 -24.596  0.00  0.00    +0.173 HD
ENDROOT
BRANCH   2   6
ATOM      5  O   UNL     1      33.804 -12.110 -25.696  0.00  0.00    -0.269 OA
ATOM      6  N   UNL     1      34.029 -12.673 -23.460  0.00  0.00    -0.230 N 
ATOM      7  C   UNL     1      33.892 -11.789 -24.513  0.00  0.00    +0.261 C 
ATOM      8  H   UNL     1      34.095 -12.343 -22.534  0.00  0.00    +0.173 HD
BRANCH   7  10
ATOM      9 CL   UNL     1      31.172  -7.802 -22.589  0.00  0.00    -0.082 Cl
ATOM     10  C   UNL     1      33.835 -10.351 -24.143  0.00  0.00    +0.056 C 
ATOM     11  C   UNL     1      32.666  -9.815 -23.602  0.00  0.00    +0.016 C 
ATOM     12  C   UNL     1      34.951  -9.538 -24.337  0.00  0.00    +0.005 C 
ATOM     13  C   UNL     1      32.613  -8.464 -23.256  0.00  0.00    +0.058 C 
ATOM     14  C   UNL     1      34.898  -8.187 -23.991  0.00  0.00    +0.001 C 
ATOM     15  C   UNL     1      33.729  -7.651 -23.450  0.00  0.00    +0.011 C 
ENDBRANCH   7  10
ENDBRANCH   2   6
BRANCH   3  16
ATOM     16  C   UNL     1      34.561 -16.333 -23.226  0.00  0.00    +0.168 C 
BRANCH  16  17
ATOM     17  O   UNL     1      35.249 -16.407 -24.466  0.00  0.00    -0.377 OA
ATOM     18  H   UNL     1      35.038 -15.627 -25.001  0.00  0.00    +0.211 HD
ENDBRANCH  16  17
BRANCH  16  19
ATOM     19  C   UNL     1      35.222 -17.266 -22.188  0.00  0.00    -0.028 C 
BRANCH  19  20
ATOM     20  N   UNL     1      36.151 -18.149 -22.904  0.00  0.00    +0.384 N 
ATOM     21  H   UNL     1      36.360 -18.963 -22.326  0.00  0.00    -0.089 HD
ATOM     22  H   UNL     1      37.013 -17.642 -23.105  0.00  0.00    -0.089 HD
ATOM     23  H   UNL     1      35.724 -18.453 -23.779  0.00  0.00    -0.089 HD
ENDBRANCH  19  20
BRANCH  19  24
ATOM     24  C   UNL     1      34.185 -18.089 -21.387  0.00  0.00    -0.007 C 
BRANCH  24  25
ATOM     25  C   UNL     1      34.593 -19.523 -21.030  0.00  0.00    +0.055 C 
BRANCH  25  26
ATOM     26  S   UNL     1      33.253 -20.475 -20.257  0.00  0.00    -0.141 S 
BRANCH  26  27
ATOM     27  C   UNL     1      34.235 -21.869 -19.658  0.00  0.00    +0.048 C 
ATOM     28  C   UNL     1      33.549 -22.500 -18.452  0.00  0.00    +0.012 C 
ATOM     29  C   UNL     1      35.642 -21.396 -19.314  0.00  0.00    +0.012 C 
ENDBRANCH  26  27
ENDBRANCH  25  26
ENDBRANCH  24  25
ENDBRANCH  19  24
ENDBRANCH  16  19
ENDBRANCH   3  16
TORSDOF 10
ENDMDL
MODEL 5
REMARK VINA RESULT:      -8.4      4.472      9.945
REMARK  Name = 448285
REMARK  10 active torsions:
REMARK  status: ('A' for Active; 'I' for Inactive)
REMARK    1  A    between atoms: N_2  and  N_6
REMARK    2  A    between atoms: C_3  and  C_16
REMARK    3  A    between atoms: C_7  and  C_10
REMARK    4  A    between atoms: C_16  and  O_17
REMARK    5  A    between atoms: C_16  and  C_19
REMARK    6  A    between atoms: C_19  and  N_20
REMARK    7  A    between atoms: C_19  and  C_24
REMARK    8  A    between atoms: C_24  and  C_25
REMARK    9  A    between atoms: C_25  and  S_26
REMARK   10  A    between atoms: S_26  and  C_27
REMARK                            x       y       z     vdW  Elec       q    Type
REMARK                         _______ _______ _______ _____ _____    ______ ____
ROOT
ATOM      1  O   UNL     1      33.126 -13.252 -26.119  0.00  0.00    -0.271 OA
ATOM      2  N   UNL     1      34.054 -13.155 -23.995  0.00  0.00    -0.232 N 
ATOM      3  C   UNL     1      33.543 -13.806 -25.103  0.00  0.00    +0.263 C 
ATOM      4  H   UNL     1      34.369 -13.667 -23.216  0.00  0.00    +0.173 HD
ENDROOT
BRANCH   2   6
ATOM      5  O   UNL     1      32.159 -11.573 -22.773  0.00  0.00    -0.269 OA
ATOM      6  N   UNL     1      34.114 -11.784 -23.998  0.00  0.00    -0.230 N 
ATOM      7  C   UNL     1      33.118 -11.073 -23.358  0.00  0.00    +0.261 C 
ATOM      8  H   UNL     1      34.855 -11.315 -24.447  0.00  0.00    +0.173 HD
BRANCH   7  10
ATOM      9 CL   UNL     1      31.112  -6.394 -22.317  0.00  0.00    -0.082 Cl
ATOM     10  C   UNL     1      33.261  -9.594 -23.387  0.00  0.00    +0.056 C 
ATOM     11  C   UNL     1      32.238  -8.784 -22.895  0.00  0.00    +0.016 C 
ATOM     12  C   UNL     1      34.419  -9.018 -23.907  0.00  0.00    +0.005 C 
ATOM     13  C   UNL     1      32.374  -7.395 -22.924  0.00  0.00    +0.058 C 
ATOM     14  C   UNL     1      34.555  -7.629 -23.936  0.00  0.00    +0.001 C 
ATOM     15  C   UNL     1      33.532  -6.819 -23.444  0.00  0.00    +0.011 C 
ENDBRANCH   7  10
ENDBRANCH   2   6
BRANCH   3  16
ATOM     16  C   UNL     1      33.520 -15.321 -24.928  0.00  0.00    +0.168 C 
BRANCH  16  17
ATOM     17  O   UNL     1      33.617 -15.925 -26.210  0.00  0.00    -0.377 OA
ATOM     18  H   UNL     1      32.869 -15.643 -26.758  0.00  0.00    +0.211 HD
ENDBRANCH  16  17
BRANCH  16  19
ATOM     19  C   UNL     1      34.666 -15.811 -24.015  0.00  0.00    -0.028 C 
BRANCH  19  20
ATOM     20  N   UNL     1      35.425 -16.829 -24.753  0.00  0.00    +0.384 N 
ATOM     21  H   UNL     1      35.291 -16.693 -25.755  0.00  0.00    -0.089 HD
ATOM     22  H   UNL     1      35.093 -17.757 -24.489  0.00  0.00    -0.089 HD
ATOM     23  H   UNL     1      36.415 -16.745 -24.527  0.00  0.00    -0.089 HD
ENDBRANCH  19  20
BRANCH  19  24
ATOM     24  C   UNL     1      34.151 -16.374 -22.669  0.00  0.00    -0.007 C 
BRANCH  24  25
ATOM     25  C   UNL     1      35.057 -17.397 -21.976  0.00  0.00    +0.055 C 
BRANCH  25  26
ATOM     26  S   UNL     1      34.594 -19.117 -22.332  0.00  0.00    -0.141 S 
BRANCH  26  27
ATOM     27  C   UNL     1      34.324 -19.671 -20.633  0.00  0.00    +0.048 C 
ATOM     28  C   UNL     1      35.360 -20.727 -20.266  0.00  0.00    +0.012 C 
ATOM     29  C   UNL     1      32.905 -20.209 -20.487  0.00  0.00    +0.012 C 
ENDBRANCH  26  27
ENDBRANCH  25  26
ENDBRANCH  24  25
ENDBRANCH  19  24
ENDBRANCH  16  19
ENDBRANCH   3  16
TORSDOF 10
ENDMDL
MODEL 6
REMARK VINA RESULT:      -8.3      6.099     10.793
REMARK  Name = 448285
REMARK  10 active torsions:
REMARK  status: ('A' for Active; 'I' for Inactive)
REMARK    1  A    between atoms: N_2  and  N_6
REMARK    2  A    between atoms: C_3  and  C_16
REMARK    3  A    between atoms: C_7  and  C_10
REMARK    4  A    between atoms: C_16  and  O_17
REMARK    5  A    between atoms: C_16  and  C_19
REMARK    6  A    between atoms: C_19  and  N_20
REMARK    7  A    between atoms: C_19  and  C_24
REMARK    8  A    between atoms: C_24  and  C_25
REMARK    9  A    between atoms: C_25  and  S_26
REMARK   10  A    between atoms: S_26  and  C_27
REMARK                            x       y       z     vdW  Elec       q    Type
REMARK                         _______ _______ _______ _____ _____    ______ ____
ROOT
ATOM      1  O   UNL     1      32.747 -22.146 -20.088  0.00  0.00    -0.271 OA
ATOM      2  N   UNL     1      34.760 -21.077 -19.656  0.00  0.00    -0.232 N 
ATOM      3  C   UNL     1      33.801 -22.054 -19.461  0.00  0.00    +0.263 C 
ATOM      4  H   UNL     1      35.582 -21.067 -19.114  0.00  0.00    +0.173 HD
ENDROOT
BRANCH   2   6
ATOM      5  O   UNL     1      36.715 -19.313 -20.464  0.00  0.00    -0.269 OA
ATOM      6  N   UNL     1      34.549 -20.120 -20.618  0.00  0.00    -0.230 N 
ATOM      7  C   UNL     1      35.590 -19.279 -20.959  0.00  0.00    +0.261 C 
ATOM      8  H   UNL     1      33.672 -20.035 -21.057  0.00  0.00    +0.173 HD
BRANCH   7  10
ATOM      9 CL   UNL     1      34.448 -14.379 -22.259  0.00  0.00    -0.082 Cl
ATOM     10  C   UNL     1      35.292 -18.282 -22.020  0.00  0.00    +0.056 C 
ATOM     11  C   UNL     1      35.040 -16.954 -21.680  0.00  0.00    +0.016 C 
ATOM     12  C   UNL     1      35.265 -18.678 -23.357  0.00  0.00    +0.005 C 
ATOM     13  C   UNL     1      34.760 -16.019 -22.677  0.00  0.00    +0.058 C 
ATOM     14  C   UNL     1      34.984 -17.743 -24.355  0.00  0.00    +0.001 C 
ATOM     15  C   UNL     1      34.732 -16.414 -24.014  0.00  0.00    +0.011 C 
ENDBRANCH   7  10
ENDBRANCH   2   6
BRANCH   3  16
ATOM     16  C   UNL     1      34.176 -23.020 -18.341  0.00  0.00    +0.168 C 
BRANCH  16  17
ATOM     17  O   UNL     1      35.273 -22.476 -17.624  0.00  0.00    -0.377 OA
ATOM     18  H   UNL     1      36.057 -23.031 -17.761  0.00  0.00    +0.211 HD
ENDBRANCH  16  17
BRANCH  16  19
ATOM     19  C   UNL     1      32.988 -23.284 -17.389  0.00  0.00    -0.028 C 
BRANCH  19  20
ATOM     20  N   UNL     1      31.918 -22.339 -17.734  0.00  0.00    +0.384 N 
ATOM     21  H   UNL     1      31.124 -22.482 -17.110  0.00  0.00    -0.089 HD
ATOM     22  H   UNL     1      31.625 -22.495 -18.699  0.00  0.00    -0.089 HD
ATOM     23  H   UNL     1      32.262 -21.385 -17.633  0.00  0.00    -0.089 HD
ENDBRANCH  19  20
BRANCH  19  24
ATOM     24  C   UNL     1      33.384 -23.151 -15.899  0.00  0.00    -0.007 C 
BRANCH  24  25
ATOM     25  C   UNL     1      32.610 -24.035 -14.915  0.00  0.00    +0.055 C 
BRANCH  25  26
ATOM     26  S   UNL     1      31.183 -23.195 -14.169  0.00  0.00    -0.141 S 
BRANCH  26  27
ATOM     27  C   UNL     1      29.913 -23.766 -15.320  0.00  0.00    +0.048 C 
ATOM     28  C   UNL     1      28.891 -22.659 -15.549  0.00  0.00    +0.012 C 
ATOM     29  C   UNL     1      29.253 -25.027 -14.773  0.00  0.00    +0.012 C 
ENDBRANCH  26  27
ENDBRANCH  25  26
ENDBRANCH  24  25
ENDBRANCH  19  24
ENDBRANCH  16  19
ENDBRANCH   3  16
TORSDOF 10
ENDMDL
MODEL 7
REMARK VINA RESULT:      -8.3      2.716      3.125
REMARK  Name = 448285
REMARK  10 active torsions:
REMARK  status: ('A' for Active; 'I' for Inactive)
REMARK    1  A    between atoms: N_2  and  N_6
REMARK    2  A    between atoms: C_3  and  C_16
REMARK    3  A    between atoms: C_7  and  C_10
REMARK    4  A    between atoms: C_16  and  O_17
REMARK    5  A    between atoms: C_16  and  C_19
REMARK    6  A    between atoms: C_19  and  N_20
REMARK    7  A    between atoms: C_19  and  C_24
REMARK    8  A    between atoms: C_24  and  C_25
REMARK    9  A    between atoms: C_25  and  S_26
REMARK   10  A    between atoms: S_26  and  C_27
REMARK                            x       y       z     vdW  Elec       q    Type
REMARK                         _______ _______ _______ _____ _____    ______ ____
ROOT
ATOM      1  O   UNL     1      34.896 -16.198 -21.464  0.00  0.00    -0.271 OA
ATOM      2  N   UNL     1      35.718 -17.899 -22.810  0.00  0.00    -0.232 N 
ATOM      3  C   UNL     1      35.215 -16.634 -22.569  0.00  0.00    +0.263 C 
ATOM      4  H   UNL     1      35.951 -18.178 -23.725  0.00  0.00    +0.173 HD
ENDROOT
BRANCH   2   6
ATOM      5  O   UNL     1      33.758 -19.647 -21.980  0.00  0.00    -0.269 OA
ATOM      6  N   UNL     1      35.887 -18.760 -21.755  0.00  0.00    -0.230 N 
ATOM      7  C   UNL     1      34.847 -19.602 -21.410  0.00  0.00    +0.261 C 
ATOM      8  H   UNL     1      36.734 -18.779 -21.252  0.00  0.00    +0.173 HD
BRANCH   7  10
ATOM      9 CL   UNL     1      33.011 -22.952 -17.889  0.00  0.00    -0.082 Cl
ATOM     10  C   UNL     1      35.110 -20.518 -20.271  0.00  0.00    +0.056 C 
ATOM     11  C   UNL     1      34.059 -21.223 -19.684  0.00  0.00    +0.016 C 
ATOM     12  C   UNL     1      36.409 -20.673 -19.788  0.00  0.00    +0.005 C 
ATOM     13  C   UNL     1      34.307 -22.082 -18.614  0.00  0.00    +0.058 C 
ATOM     14  C   UNL     1      36.657 -21.532 -18.718  0.00  0.00    +0.001 C 
ATOM     15  C   UNL     1      35.606 -22.237 -18.131  0.00  0.00    +0.011 C 
ENDBRANCH   7  10
ENDBRANCH   2   6
BRANCH   3  16
ATOM     16  C   UNL     1      35.064 -15.814 -23.847  0.00  0.00    +0.168 C 
BRANCH  16  17
ATOM     17  O   UNL     1      35.295 -16.667 -24.960  0.00  0.00    -0.377 OA
ATOM     18  H   UNL     1      36.227 -16.612 -25.222  0.00  0.00    +0.211 HD
ENDBRANCH  16  17
BRANCH  16  19
ATOM     19  C   UNL     1      33.668 -15.163 -23.950  0.00  0.00    -0.028 C 
BRANCH  19  20
ATOM     20  N   UNL     1      33.258 -15.198 -25.360  0.00  0.00    +0.384 N 
ATOM     21  H   UNL     1      33.191 -14.246 -25.718  0.00  0.00    -0.089 HD
ATOM     22  H   UNL     1      32.350 -15.656 -25.438  0.00  0.00    -0.089 HD
ATOM     23  H   UNL     1      33.948 -15.718 -25.900  0.00  0.00    -0.089 HD
ENDBRANCH  19  20
BRANCH  19  24
ATOM     24  C   UNL     1      33.649 -13.715 -23.406  0.00  0.00    -0.007 C 
BRANCH  24  25
ATOM     25  C   UNL     1      32.306 -13.218 -22.857  0.00  0.00    +0.055 C 
BRANCH  25  26
ATOM     26  S   UNL     1      32.253 -13.164 -21.042  0.00  0.00    -0.141 S 
BRANCH  26  27
ATOM     27  C   UNL     1      31.859 -11.412 -20.845  0.00  0.00    +0.048 C 
ATOM     28  C   UNL     1      31.401 -11.146 -19.416  0.00  0.00    +0.012 C 
ATOM     29  C   UNL     1      30.793 -11.007 -21.856  0.00  0.00    +0.012 C 
ENDBRANCH  26  27
ENDBRANCH  25  26
ENDBRANCH  24  25
ENDBRANCH  19  24
ENDBRANCH  16  19
ENDBRANCH   3  16
TORSDOF 10
ENDMDL
MODEL 8
REMARK VINA RESULT:      -8.2      2.963      4.236
REMARK  Name = 448285
REMARK  10 active torsions:
REMARK  status: ('A' for Active; 'I' for Inactive)
REMARK    1  A    between atoms: N_2  and  N_6
REMARK    2  A    between atoms: C_3  and  C_16
REMARK    3  A    between atoms: C_7  and  C_10
REMARK    4  A    between atoms: C_16  and  O_17
REMARK    5  A    between atoms: C_16  and  C_19
REMARK    6  A    between atoms: C_19  and  N_20
REMARK    7  A    between atoms: C_19  and  C_24
REMARK    8  A    between atoms: C_24  and  C_25
REMARK    9  A    between atoms: C_25  and  S_26
REMARK   10  A    between atoms: S_26  and  C_27
REMARK                            x       y       z     vdW  Elec       q    Type
REMARK                         _______ _______ _______ _____ _____    ______ ____
ROOT
ATOM      1  O   UNL     1      32.367 -13.268 -20.238  0.00  0.00    -0.271 OA
ATOM      2  N   UNL     1      32.315 -13.203 -22.556  0.00  0.00    -0.232 N 
ATOM      3  C   UNL     1      32.101 -12.690 -21.290  0.00  0.00    +0.263 C 
ATOM      4  H   UNL     1      32.075 -12.681 -23.355  0.00  0.00    +0.173 HD
ENDROOT
BRANCH   2   6
ATOM      5  O   UNL     1      33.825 -13.957 -24.732  0.00  0.00    -0.269 OA
ATOM      6  N   UNL     1      32.868 -14.453 -22.682  0.00  0.00    -0.230 N 
ATOM      7  C   UNL     1      33.611 -14.742 -23.810  0.00  0.00    +0.261 C 
ATOM      8  H   UNL     1      32.738 -15.133 -21.980  0.00  0.00    +0.173 HD
BRANCH   7  10
ATOM      9 CL   UNL     1      36.134 -18.598 -21.410  0.00  0.00    -0.082 Cl
ATOM     10  C   UNL     1      34.194 -16.107 -23.866  0.00  0.00    +0.056 C 
ATOM     11  C   UNL     1      34.817 -16.648 -22.742  0.00  0.00    +0.016 C 
ATOM     12  C   UNL     1      34.117 -16.848 -25.045  0.00  0.00    +0.005 C 
ATOM     13  C   UNL     1      35.364 -17.930 -22.797  0.00  0.00    +0.058 C 
ATOM     14  C   UNL     1      34.664 -18.130 -25.100  0.00  0.00    +0.001 C 
ATOM     15  C   UNL     1      35.287 -18.671 -23.976  0.00  0.00    +0.011 C 
ENDBRANCH   7  10
ENDBRANCH   2   6
BRANCH   3  16
ATOM     16  C   UNL     1      31.457 -11.307 -21.325  0.00  0.00    +0.168 C 
BRANCH  16  17
ATOM     17  O   UNL     1      30.046 -11.466 -21.355  0.00  0.00    -0.377 OA
ATOM     18  H   UNL     1      29.813 -12.178 -21.971  0.00  0.00    +0.211 HD
ENDBRANCH  16  17
BRANCH  16  19
ATOM     19  C   UNL     1      31.875 -10.447 -20.111  0.00  0.00    -0.028 C 
BRANCH  19  20
ATOM     20  N   UNL     1      30.806 -10.534 -19.109  0.00  0.00    +0.384 N 
ATOM     21  H   UNL     1      30.174 -11.297 -19.353  0.00  0.00    -0.089 HD
ATOM     22  H   UNL     1      30.287  -9.655 -19.089  0.00  0.00    -0.089 HD
ATOM     23  H   UNL     1      31.214 -10.709 -18.192  0.00  0.00    -0.089 HD
ENDBRANCH  19  20
BRANCH  19  24
ATOM     24  C   UNL     1      32.154  -8.975 -20.497  0.00  0.00    -0.007 C 
BRANCH  24  25
ATOM     25  C   UNL     1      32.112  -8.651 -21.994  0.00  0.00    +0.055 C 
BRANCH  25  26
ATOM     26  S   UNL     1      32.899  -7.066 -22.404  0.00  0.00    -0.141 S 
BRANCH  26  27
ATOM     27  C   UNL     1      34.319  -7.707 -23.318  0.00  0.00    +0.048 C 
ATOM     28  C   UNL     1      34.579  -6.835 -24.541  0.00  0.00    +0.012 C 
ATOM     29  C   UNL     1      34.065  -9.157 -23.712  0.00  0.00    +0.012 C 
ENDBRANCH  26  27
ENDBRANCH  25  26
ENDBRANCH  24  25
ENDBRANCH  19  24
ENDBRANCH  16  19
ENDBRANCH   3  16
TORSDOF 10
ENDMDL
MODEL 9
REMARK VINA RESULT:      -8.1      6.639     11.167
REMARK  Name = 448285
REMARK  10 active torsions:
REMARK  status: ('A' for Active; 'I' for Inactive)
REMARK    1  A    between atoms: N_2  and  N_6
REMARK    2  A    between atoms: C_3  and  C_16
REMARK    3  A    between atoms: C_7  and  C_10
REMARK    4  A    between atoms: C_16  and  O_17
REMARK    5  A    between atoms: C_16  and  C_19
REMARK    6  A    between atoms: C_19  and  N_20
REMARK    7  A    between atoms: C_19  and  C_24
REMARK    8  A    between atoms: C_24  and  C_25
REMARK    9  A    between atoms: C_25  and  S_26
REMARK   10  A    between atoms: S_26  and  C_27
REMARK                            x       y       z     vdW  Elec       q    Type
REMARK                         _______ _______ _______ _____ _____    ______ ____
ROOT
ATOM      1  O   UNL     1      37.242 -20.567 -17.500  0.00  0.00    -0.271 OA
ATOM      2  N   UNL     1      35.838 -21.721 -18.942  0.00  0.00    -0.232 N 
ATOM      3  C   UNL     1      36.561 -21.553 -17.775  0.00  0.00    +0.263 C 
ATOM      4  H   UNL     1      35.314 -22.541 -19.092  0.00  0.00    +0.173 HD
ENDROOT
BRANCH   2   6
ATOM      5  O   UNL     1      33.552 -20.654 -20.046  0.00  0.00    -0.269 OA
ATOM      6  N   UNL     1      35.862 -20.727 -19.888  0.00  0.00    -0.230 N 
ATOM      7  C   UNL     1      34.663 -20.253 -20.385  0.00  0.00    +0.261 C 
ATOM      8  H   UNL     1      36.717 -20.357 -20.206  0.00  0.00    +0.173 HD
BRANCH   7  10
ATOM      9 CL   UNL     1      34.608 -15.167 -21.448  0.00  0.00    -0.082 Cl
ATOM     10  C   UNL     1      34.768 -19.164 -21.390  0.00  0.00    +0.056 C 
ATOM     11  C   UNL     1      34.653 -17.832 -20.992  0.00  0.00    +0.016 C 
ATOM     12  C   UNL     1      34.982 -19.475 -22.733  0.00  0.00    +0.005 C 
ATOM     13  C   UNL     1      34.751 -16.811 -21.938  0.00  0.00    +0.058 C 
ATOM     14  C   UNL     1      35.080 -18.454 -23.678  0.00  0.00    +0.001 C 
ATOM     15  C   UNL     1      34.965 -17.122 -23.280  0.00  0.00    +0.011 C 
ENDBRANCH   7  10
ENDBRANCH   2   6
BRANCH   3  16
ATOM     16  C   UNL     1      36.450 -22.758 -16.844  0.00  0.00    +0.168 C 
BRANCH  16  17
ATOM     17  O   UNL     1      37.678 -22.904 -16.147  0.00  0.00    -0.377 OA
ATOM     18  H   UNL     1      38.417 -22.754 -16.757  0.00  0.00    +0.211 HD
ENDBRANCH  16  17
BRANCH  16  19
ATOM     19  C   UNL     1      35.280 -22.606 -15.846  0.00  0.00    -0.028 C 
BRANCH  19  20
ATOM     20  N   UNL     1      35.815 -22.812 -14.494  0.00  0.00    +0.384 N 
ATOM     21  H   UNL     1      36.303 -23.707 -14.454  0.00  0.00    -0.089 HD
ATOM     22  H   UNL     1      35.047 -22.813 -13.822  0.00  0.00    -0.089 HD
ATOM     23  H   UNL     1      36.463 -22.060 -14.267  0.00  0.00    -0.089 HD
ENDBRANCH  19  20
BRANCH  19  24
ATOM     24  C   UNL     1      34.122 -23.590 -16.138  0.00  0.00    -0.007 C 
BRANCH  24  25
ATOM     25  C   UNL     1      32.795 -23.298 -15.429  0.00  0.00    +0.055 C 
BRANCH  25  26
ATOM     26  S   UNL     1      32.437 -24.458 -14.078  0.00  0.00    -0.141 S 
BRANCH  26  27
ATOM     27  C   UNL     1      30.636 -24.311 -14.078  0.00  0.00    +0.048 C 
ATOM     28  C   UNL     1      30.027 -25.467 -14.863  0.00  0.00    +0.012 C 
ATOM     29  C   UNL     1      30.230 -22.964 -14.665  0.00  0.00    +0.012 C 
ENDBRANCH  26  27
ENDBRANCH  25  26
ENDBRANCH  24  25
ENDBRANCH  19  24
ENDBRANCH  16  19
ENDBRANCH   3  16
TORSDOF 10
ENDMDL
