MODEL 1
REMARK VINA RESULT:      -9.6      0.000      0.000
REMARK  Name = 46936180
REMARK  10 active torsions:
REMARK  status: ('A' for Active; 'I' for Inactive)
REMARK    1  A    between atoms: N_2  and  C_30
REMARK    2  A    between atoms: C_4  and  C_21
REMARK    3  A    between atoms: C_5  and  C_7
REMARK    4  A    between atoms: C_7  and  C_9
REMARK    5  A    between atoms: C_13  and  N_18
REMARK    6  A    between atoms: C_21  and  N_22
REMARK    7  A    between atoms: C_21  and  C_26
REMARK    8  A    between atoms: C_26  and  O_28
REMARK    9  A    between atoms: C_30  and  C_32
REMARK   10  A    between atoms: C_32  and  O_33
REMARK                            x       y       z     vdW  Elec       q    Type
REMARK                         _______ _______ _______ _____ _____    ______ ____
ROOT
ATOM      1  O   UNL     1      31.555 -22.464 -17.420  0.00  0.00    -0.267 OA
ATOM      2  N   UNL     1      33.001 -23.249 -15.737  0.00  0.00    -0.223 N 
ATOM      3  N   UNL     1      34.927 -23.290 -16.896  0.00  0.00    -0.393 NA
ATOM      4  C   UNL     1      34.332 -23.508 -15.761  0.00  0.00    +0.148 C 
ATOM      5  C   UNL     1      33.923 -22.845 -17.721  0.00  0.00    +0.168 C 
ATOM      6  C   UNL     1      32.636 -22.808 -16.982  0.00  0.00    +0.281 C 
ENDROOT
BRANCH   5   7
ATOM      7  C   UNL     1      34.041 -22.490 -19.001  0.00  0.00    +0.091 C 
BRANCH   7   9
ATOM      8  N   UNL     1      37.009 -20.637 -20.002  0.00  0.00    -0.312 N 
ATOM      9  C   UNL     1      35.037 -21.551 -19.550  0.00  0.00    +0.002 C 
ATOM     10  C   UNL     1      34.819 -20.392 -20.347  0.00  0.00    +0.024 C 
ATOM     11  C   UNL     1      36.071 -19.838 -20.617  0.00  0.00    +0.049 C 
ATOM     12  C   UNL     1      36.394 -21.675 -19.356  0.00  0.00    +0.058 C 
ATOM     13  C   UNL     1      33.671 -19.761 -20.866  0.00  0.00    +0.042 C 
ATOM     14  C   UNL     1      36.233 -18.678 -21.383  0.00  0.00    +0.015 C 
ATOM     15  C   UNL     1      33.818 -18.600 -21.634  0.00  0.00    +0.014 C 
ATOM     16  C   UNL     1      35.081 -18.069 -21.887  0.00  0.00    +0.003 C 
ATOM     17  H   UNL     1      37.981 -20.484 -20.026  0.00  0.00    +0.152 HD
BRANCH  13  18
ATOM     18  N   UNL     1      32.368 -20.260 -20.638  0.00  0.00    -0.357 N 
ATOM     19  H   UNL     1      31.630 -19.998 -21.235  0.00  0.00    +0.142 HD
ATOM     20  H   UNL     1      32.200 -20.869 -19.884  0.00  0.00    +0.142 HD
ENDBRANCH  13  18
ENDBRANCH   7   9
ENDBRANCH   5   7
BRANCH   4  21
ATOM     21  C   UNL     1      35.043 -24.008 -14.547  0.00  0.00    +0.031 C 
BRANCH  21  22
ATOM     22  N   UNL     1      34.935 -25.461 -14.602  0.00  0.00    +0.389 N 
ATOM     23  H   UNL     1      34.166 -25.722 -15.220  0.00  0.00    -0.088 HD
ATOM     24  H   UNL     1      34.756 -25.825 -13.666  0.00  0.00    -0.088 HD
ATOM     25  H   UNL     1      35.805 -25.855 -14.959  0.00  0.00    -0.088 HD
ENDBRANCH  21  22
BRANCH  21  26
ATOM     26  C   UNL     1      36.496 -23.504 -14.534  0.00  0.00    +0.099 C 
ATOM     27  C   UNL     1      37.197 -23.699 -13.194  0.00  0.00    +0.030 C 
BRANCH  26  28
ATOM     28  O   UNL     1      37.221 -24.245 -15.520  0.00  0.00    -0.386 OA
ATOM     29  H   UNL     1      38.043 -24.582 -15.131  0.00  0.00    +0.210 HD
ENDBRANCH  26  28
ENDBRANCH  21  26
ENDBRANCH   4  21
BRANCH   2  30
ATOM     30  C   UNL     1      32.120 -23.410 -14.594  0.00  0.00    +0.210 C 
BRANCH  30  32
ATOM     31  O   UNL     1      30.441 -25.011 -15.234  0.00  0.00    -0.248 OA
ATOM     32  C   UNL     1      31.434 -24.751 -14.566  0.00  0.00    +0.335 C 
BRANCH  32  33
ATOM     33  O   UNL     1      32.019 -25.640 -13.730  0.00  0.00    -0.479 OA
ATOM     34  H   UNL     1      31.492 -26.166 -13.162  0.00  0.00    +0.295 HD
ENDBRANCH  32  33
ENDBRANCH  30  32
ENDBRANCH   2  30
TORSDOF 10
ENDMDL
MODEL 2
REMARK VINA RESULT:      -9.5      0.653      1.854
REMARK  Name = 46936180
REMARK  10 active torsions:
REMARK  status: ('A' for Active; 'I' for Inactive)
REMARK    1  A    between atoms: N_2  and  C_30
REMARK    2  A    between atoms: C_4  and  C_21
REMARK    3  A    between atoms: C_5  and  C_7
REMARK    4  A    between atoms: C_7  and  C_9
REMARK    5  A    between atoms: C_13  and  N_18
REMARK    6  A    between atoms: C_21  and  N_22
REMARK    7  A    between atoms: C_21  and  C_26
REMARK    8  A    between atoms: C_26  and  O_28
REMARK    9  A    between atoms: C_30  and  C_32
REMARK   10  A    between atoms: C_32  and  O_33
REMARK                            x       y       z     vdW  Elec       q    Type
REMARK                         _______ _______ _______ _____ _____    ______ ____
ROOT
ATOM      1  O   UNL     1      31.414 -22.632 -17.384  0.00  0.00    -0.267 OA
ATOM      2  N   UNL     1      32.992 -23.213 -15.736  0.00  0.00    -0.223 N 
ATOM      3  N   UNL     1      34.832 -23.351 -17.020  0.00  0.00    -0.393 NA
ATOM      4  C   UNL     1      34.322 -23.455 -15.829  0.00  0.00    +0.148 C 
ATOM      5  C   UNL     1      33.763 -23.011 -17.814  0.00  0.00    +0.168 C 
ATOM      6  C   UNL     1      32.531 -22.912 -16.992  0.00  0.00    +0.281 C 
ENDROOT
BRANCH   5   7
ATOM      7  C   UNL     1      33.783 -22.792 -19.129  0.00  0.00    +0.091 C 
BRANCH   7   9
ATOM      8  N   UNL     1      32.810 -19.671 -20.727  0.00  0.00    -0.312 N 
ATOM      9  C   UNL     1      33.699 -21.476 -19.789  0.00  0.00    +0.002 C 
ATOM     10  C   UNL     1      34.758 -20.608 -20.176  0.00  0.00    +0.024 C 
ATOM     11  C   UNL     1      34.174 -19.484 -20.761  0.00  0.00    +0.049 C 
ATOM     12  C   UNL     1      32.513 -20.871 -20.141  0.00  0.00    +0.058 C 
ATOM     13  C   UNL     1      36.162 -20.673 -20.084  0.00  0.00    +0.042 C 
ATOM     14  C   UNL     1      34.928 -18.416 -21.261  0.00  0.00    +0.015 C 
ATOM     15  C   UNL     1      36.929 -19.612 -20.580  0.00  0.00    +0.014 C 
ATOM     16  C   UNL     1      36.318 -18.502 -21.160  0.00  0.00    +0.003 C 
ATOM     17  H   UNL     1      32.145 -19.032 -21.073  0.00  0.00    +0.152 HD
BRANCH  13  18
ATOM     18  N   UNL     1      36.829 -21.776 -19.505  0.00  0.00    -0.357 N 
ATOM     19  H   UNL     1      36.828 -22.647 -19.964  0.00  0.00    +0.142 HD
ATOM     20  H   UNL     1      37.295 -21.673 -18.645  0.00  0.00    +0.142 HD
ENDBRANCH  13  18
ENDBRANCH   7   9
ENDBRANCH   5   7
BRANCH   4  21
ATOM     21  C   UNL     1      35.128 -23.812 -14.623  0.00  0.00    +0.031 C 
BRANCH  21  22
ATOM     22  N   UNL     1      34.995 -25.258 -14.480  0.00  0.00    +0.389 N 
ATOM     23  H   UNL     1      35.815 -25.628 -13.999  0.00  0.00    -0.088 HD
ATOM     24  H   UNL     1      34.920 -25.686 -15.403  0.00  0.00    -0.088 HD
ATOM     25  H   UNL     1      34.158 -25.470 -13.938  0.00  0.00    -0.088 HD
ENDBRANCH  21  22
BRANCH  21  26
ATOM     26  C   UNL     1      36.583 -23.346 -14.797  0.00  0.00    +0.099 C 
ATOM     27  C   UNL     1      37.361 -23.276 -13.487  0.00  0.00    +0.030 C 
BRANCH  26  28
ATOM     28  O   UNL     1      37.242 -24.288 -15.648  0.00  0.00    -0.386 OA
ATOM     29  H   UNL     1      36.583 -24.751 -16.189  0.00  0.00    +0.210 HD
ENDBRANCH  26  28
ENDBRANCH  21  26
ENDBRANCH   4  21
BRANCH   2  30
ATOM     30  C   UNL     1      32.196 -23.263 -14.523  0.00  0.00    +0.210 C 
BRANCH  30  32
ATOM     31  O   UNL     1      30.311 -24.730 -14.810  0.00  0.00    -0.248 OA
ATOM     32  C   UNL     1      31.440 -24.557 -14.370  0.00  0.00    +0.335 C 
BRANCH  32  33
ATOM     33  O   UNL     1      32.128 -25.510 -13.698  0.00  0.00    -0.479 OA
ATOM     34  H   UNL     1      32.155 -26.387 -14.025  0.00  0.00    +0.295 HD
ENDBRANCH  32  33
ENDBRANCH  30  32
ENDBRANCH   2  30
TORSDOF 10
ENDMDL
MODEL 3
REMARK VINA RESULT:      -9.5      2.670      4.469
REMARK  Name = 46936180
REMARK  10 active torsions:
REMARK  status: ('A' for Active; 'I' for Inactive)
REMARK    1  A    between atoms: N_2  and  C_30
REMARK    2  A    between atoms: C_4  and  C_21
REMARK    3  A    between atoms: C_5  and  C_7
REMARK    4  A    between atoms: C_7  and  C_9
REMARK    5  A    between atoms: C_13  and  N_18
REMARK    6  A    between atoms: C_21  and  N_22
REMARK    7  A    between atoms: C_21  and  C_26
REMARK    8  A    between atoms: C_26  and  O_28
REMARK    9  A    between atoms: C_30  and  C_32
REMARK   10  A    between atoms: C_32  and  O_33
REMARK                            x       y       z     vdW  Elec       q    Type
REMARK                         _______ _______ _______ _____ _____    ______ ____
ROOT
ATOM      1  O   UNL     1      33.998 -23.663 -12.537  0.00  0.00    -0.267 OA
ATOM      2  N   UNL     1      35.931 -24.885 -13.093  0.00  0.00    -0.223 N 
ATOM      3  N   UNL     1      35.819 -24.752 -15.335  0.00  0.00    -0.393 NA
ATOM      4  C   UNL     1      36.467 -25.197 -14.299  0.00  0.00    +0.148 C 
ATOM      5  C   UNL     1      34.748 -24.080 -14.798  0.00  0.00    +0.168 C 
ATOM      6  C   UNL     1      34.795 -24.151 -13.315  0.00  0.00    +0.281 C 
ENDROOT
BRANCH   5   7
ATOM      7  C   UNL     1      33.787 -23.445 -15.468  0.00  0.00    +0.091 C 
BRANCH   7   9
ATOM      8  N   UNL     1      33.184 -22.834 -19.005  0.00  0.00    -0.312 N 
ATOM      9  C   UNL     1      33.829 -23.070 -16.894  0.00  0.00    +0.002 C 
ATOM     10  C   UNL     1      34.873 -22.419 -17.609  0.00  0.00    +0.024 C 
ATOM     11  C   UNL     1      34.443 -22.283 -18.930  0.00  0.00    +0.049 C 
ATOM     12  C   UNL     1      32.804 -23.312 -17.780  0.00  0.00    +0.058 C 
ATOM     13  C   UNL     1      36.147 -21.931 -17.256  0.00  0.00    +0.042 C 
ATOM     14  C   UNL     1      35.228 -21.681 -19.920  0.00  0.00    +0.015 C 
ATOM     15  C   UNL     1      36.943 -21.326 -18.237  0.00  0.00    +0.014 C 
ATOM     16  C   UNL     1      36.487 -21.205 -19.548  0.00  0.00    +0.003 C 
ATOM     17  H   UNL     1      32.636 -22.877 -19.822  0.00  0.00    +0.152 HD
BRANCH  13  18
ATOM     18  N   UNL     1      36.654 -22.030 -15.941  0.00  0.00    -0.357 N 
ATOM     19  H   UNL     1      36.973 -21.223 -15.475  0.00  0.00    +0.142 HD
ATOM     20  H   UNL     1      36.688 -22.904 -15.492  0.00  0.00    +0.142 HD
ENDBRANCH  13  18
ENDBRANCH   7   9
ENDBRANCH   5   7
BRANCH   4  21
ATOM     21  C   UNL     1      37.723 -25.998 -14.403  0.00  0.00    +0.031 C 
BRANCH  21  22
ATOM     22  N   UNL     1      37.574 -26.803 -15.610  0.00  0.00    +0.389 N 
ATOM     23  H   UNL     1      38.458 -27.266 -15.821  0.00  0.00    -0.088 HD
ATOM     24  H   UNL     1      37.311 -26.201 -16.390  0.00  0.00    -0.088 HD
ATOM     25  H   UNL     1      36.850 -27.505 -15.463  0.00  0.00    -0.088 HD
ENDBRANCH  21  22
BRANCH  21  26
ATOM     26  C   UNL     1      38.947 -25.069 -14.434  0.00  0.00    +0.099 C 
ATOM     27  C   UNL     1      40.254 -25.792 -14.746  0.00  0.00    +0.030 C 
BRANCH  26  28
ATOM     28  O   UNL     1      38.729 -24.098 -15.461  0.00  0.00    -0.386 OA
ATOM     29  H   UNL     1      38.338 -23.300 -15.074  0.00  0.00    +0.210 HD
ENDBRANCH  26  28
ENDBRANCH  21  26
ENDBRANCH   4  21
BRANCH   2  30
ATOM     30  C   UNL     1      36.467 -25.262 -11.798  0.00  0.00    +0.210 C 
BRANCH  30  32
ATOM     31  O   UNL     1      37.076 -23.153 -10.812  0.00  0.00    -0.248 OA
ATOM     32  C   UNL     1      36.373 -24.155 -10.780  0.00  0.00    +0.335 C 
BRANCH  32  33
ATOM     33  O   UNL     1      35.439 -24.375  -9.825  0.00  0.00    -0.479 OA
ATOM     34  H   UNL     1      34.943 -23.659  -9.481  0.00  0.00    +0.295 HD
ENDBRANCH  32  33
ENDBRANCH  30  32
ENDBRANCH   2  30
TORSDOF 10
ENDMDL
MODEL 4
REMARK VINA RESULT:      -9.2      2.400      3.680
REMARK  Name = 46936180
REMARK  10 active torsions:
REMARK  status: ('A' for Active; 'I' for Inactive)
REMARK    1  A    between atoms: N_2  and  C_30
REMARK    2  A    between atoms: C_4  and  C_21
REMARK    3  A    between atoms: C_5  and  C_7
REMARK    4  A    between atoms: C_7  and  C_9
REMARK    5  A    between atoms: C_13  and  N_18
REMARK    6  A    between atoms: C_21  and  N_22
REMARK    7  A    between atoms: C_21  and  C_26
REMARK    8  A    between atoms: C_26  and  O_28
REMARK    9  A    between atoms: C_30  and  C_32
REMARK   10  A    between atoms: C_32  and  O_33
REMARK                            x       y       z     vdW  Elec       q    Type
REMARK                         _______ _______ _______ _____ _____    ______ ____
ROOT
ATOM      1  O   UNL     1      33.739 -23.257 -13.576  0.00  0.00    -0.267 OA
ATOM      2  N   UNL     1      35.569 -24.691 -13.208  0.00  0.00    -0.223 N 
ATOM      3  N   UNL     1      36.324 -24.873 -15.317  0.00  0.00    -0.393 NA
ATOM      4  C   UNL     1      36.474 -25.213 -14.072  0.00  0.00    +0.148 C 
ATOM      5  C   UNL     1      35.224 -24.051 -15.311  0.00  0.00    +0.168 C 
ATOM      6  C   UNL     1      34.702 -23.912 -13.928  0.00  0.00    +0.281 C 
ENDROOT
BRANCH   5   7
ATOM      7  C   UNL     1      34.672 -23.447 -16.364  0.00  0.00    +0.091 C 
BRANCH   7   9
ATOM      8  N   UNL     1      37.026 -21.477 -18.318  0.00  0.00    -0.312 N 
ATOM      9  C   UNL     1      35.374 -22.581 -17.331  0.00  0.00    +0.002 C 
ATOM     10  C   UNL     1      34.839 -21.892 -18.454  0.00  0.00    +0.024 C 
ATOM     11  C   UNL     1      35.896 -21.207 -19.056  0.00  0.00    +0.049 C 
ATOM     12  C   UNL     1      36.722 -22.307 -17.274  0.00  0.00    +0.058 C 
ATOM     13  C   UNL     1      33.552 -21.785 -19.018  0.00  0.00    +0.042 C 
ATOM     14  C   UNL     1      35.729 -20.417 -20.199  0.00  0.00    +0.015 C 
ATOM     15  C   UNL     1      33.371 -20.997 -20.162  0.00  0.00    +0.014 C 
ATOM     16  C   UNL     1      34.445 -20.325 -20.741  0.00  0.00    +0.003 C 
ATOM     17  H   UNL     1      37.925 -21.124 -18.515  0.00  0.00    +0.152 HD
BRANCH  13  18
ATOM     18  N   UNL     1      32.431 -22.446 -18.469  0.00  0.00    -0.357 N 
ATOM     19  H   UNL     1      32.077 -22.169 -17.593  0.00  0.00    +0.142 HD
ATOM     20  H   UNL     1      32.006 -23.183 -18.961  0.00  0.00    +0.142 HD
ENDBRANCH  13  18
ENDBRANCH   7   9
ENDBRANCH   5   7
BRANCH   4  21
ATOM     21  C   UNL     1      37.566 -26.115 -13.596  0.00  0.00    +0.031 C 
BRANCH  21  22
ATOM     22  N   UNL     1      37.691 -27.148 -14.617  0.00  0.00    +0.389 N 
ATOM     23  H   UNL     1      38.352 -26.842 -15.331  0.00  0.00    -0.088 HD
ATOM     24  H   UNL     1      36.781 -27.315 -15.046  0.00  0.00    -0.088 HD
ATOM     25  H   UNL     1      38.029 -28.010 -14.189  0.00  0.00    -0.088 HD
ENDBRANCH  21  22
BRANCH  21  26
ATOM     26  C   UNL     1      38.860 -25.315 -13.373  0.00  0.00    +0.099 C 
ATOM     27  C   UNL     1      40.030 -25.799 -14.223  0.00  0.00    +0.030 C 
BRANCH  26  28
ATOM     28  O   UNL     1      38.595 -23.954 -13.727  0.00  0.00    -0.386 OA
ATOM     29  H   UNL     1      38.205 -23.493 -12.969  0.00  0.00    +0.210 HD
ENDBRANCH  26  28
ENDBRANCH  21  26
ENDBRANCH   4  21
BRANCH   2  30
ATOM     30  C   UNL     1      35.527 -24.918 -11.775  0.00  0.00    +0.210 C 
BRANCH  30  32
ATOM     31  O   UNL     1      36.876 -22.942 -11.518  0.00  0.00    -0.248 OA
ATOM     32  C   UNL     1      36.282 -23.874 -10.993  0.00  0.00    +0.335 C 
BRANCH  32  33
ATOM     33  O   UNL     1      36.243 -24.068  -9.654  0.00  0.00    -0.479 OA
ATOM     34  H   UNL     1      36.265 -23.333  -9.073  0.00  0.00    +0.295 HD
ENDBRANCH  32  33
ENDBRANCH  30  32
ENDBRANCH   2  30
TORSDOF 10
ENDMDL
MODEL 5
REMARK VINA RESULT:      -9.2      4.731      6.506
REMARK  Name = 46936180
REMARK  10 active torsions:
REMARK  status: ('A' for Active; 'I' for Inactive)
REMARK    1  A    between atoms: N_2  and  C_30
REMARK    2  A    between atoms: C_4  and  C_21
REMARK    3  A    between atoms: C_5  and  C_7
REMARK    4  A    between atoms: C_7  and  C_9
REMARK    5  A    between atoms: C_13  and  N_18
REMARK    6  A    between atoms: C_21  and  N_22
REMARK    7  A    between atoms: C_21  and  C_26
REMARK    8  A    between atoms: C_26  and  O_28
REMARK    9  A    between atoms: C_30  and  C_32
REMARK   10  A    between atoms: C_32  and  O_33
REMARK                            x       y       z     vdW  Elec       q    Type
REMARK                         _______ _______ _______ _____ _____    ______ ____
ROOT
ATOM      1  O   UNL     1      34.372 -23.533 -12.211  0.00  0.00    -0.267 OA
ATOM      2  N   UNL     1      36.230 -24.743 -13.002  0.00  0.00    -0.223 N 
ATOM      3  N   UNL     1      35.642 -24.954 -15.161  0.00  0.00    -0.393 NA
ATOM      4  C   UNL     1      36.523 -25.210 -14.240  0.00  0.00    +0.148 C 
ATOM      5  C   UNL     1      34.661 -24.254 -14.501  0.00  0.00    +0.168 C 
ATOM      6  C   UNL     1      35.022 -24.099 -13.070  0.00  0.00    +0.281 C 
ENDROOT
BRANCH   5   7
ATOM      7  C   UNL     1      33.536 -23.767 -15.028  0.00  0.00    +0.091 C 
BRANCH   7   9
ATOM      8  N   UNL     1      30.508 -25.263 -13.672  0.00  0.00    -0.312 N 
ATOM      9  C   UNL     1      32.168 -24.218 -14.711  0.00  0.00    +0.002 C 
ATOM     10  C   UNL     1      30.952 -23.898 -15.378  0.00  0.00    +0.024 C 
ATOM     11  C   UNL     1      29.928 -24.566 -14.706  0.00  0.00    +0.049 C 
ATOM     12  C   UNL     1      31.862 -25.059 -13.666  0.00  0.00    +0.058 C 
ATOM     13  C   UNL     1      30.626 -23.101 -16.493  0.00  0.00    +0.042 C 
ATOM     14  C   UNL     1      28.586 -24.476 -15.096  0.00  0.00    +0.015 C 
ATOM     15  C   UNL     1      29.288 -23.002 -16.894  0.00  0.00    +0.014 C 
ATOM     16  C   UNL     1      28.286 -23.680 -16.204  0.00  0.00    +0.003 C 
ATOM     17  H   UNL     1      30.021 -25.827 -13.028  0.00  0.00    +0.152 HD
BRANCH  13  18
ATOM     18  N   UNL     1      31.605 -22.393 -17.226  0.00  0.00    -0.357 N 
ATOM     19  H   UNL     1      32.519 -22.309 -16.871  0.00  0.00    +0.142 HD
ATOM     20  H   UNL     1      31.373 -21.986 -18.091  0.00  0.00    +0.142 HD
ENDBRANCH  13  18
ENDBRANCH   7   9
ENDBRANCH   5   7
BRANCH   4  21
ATOM     21  C   UNL     1      37.785 -25.965 -14.503  0.00  0.00    +0.031 C 
BRANCH  21  22
ATOM     22  N   UNL     1      37.526 -26.751 -15.703  0.00  0.00    +0.389 N 
ATOM     23  H   UNL     1      36.875 -27.505 -15.482  0.00  0.00    -0.088 HD
ATOM     24  H   UNL     1      38.401 -27.148 -16.046  0.00  0.00    -0.088 HD
ATOM     25  H   UNL     1      37.119 -26.153 -16.422  0.00  0.00    -0.088 HD
ENDBRANCH  21  22
BRANCH  21  26
ATOM     26  C   UNL     1      38.966 -24.993 -14.653  0.00  0.00    +0.099 C 
ATOM     27  C   UNL     1      40.250 -25.662 -15.133  0.00  0.00    +0.030 C 
BRANCH  26  28
ATOM     28  O   UNL     1      38.597 -24.007 -15.621  0.00  0.00    -0.386 OA
ATOM     29  H   UNL     1      37.832 -23.506 -15.298  0.00  0.00    +0.210 HD
ENDBRANCH  26  28
ENDBRANCH  21  26
ENDBRANCH   4  21
BRANCH   2  30
ATOM     30  C   UNL     1      37.051 -24.898 -11.814  0.00  0.00    +0.210 C 
BRANCH  30  32
ATOM     31  O   UNL     1      38.816 -23.263 -11.768  0.00  0.00    -0.248 OA
ATOM     32  C   UNL     1      37.708 -23.612 -11.383  0.00  0.00    +0.335 C 
BRANCH  32  33
ATOM     33  O   UNL     1      36.956 -22.882 -10.527  0.00  0.00    -0.479 OA
ATOM     34  H   UNL     1      36.037 -23.049 -10.450  0.00  0.00    +0.295 HD
ENDBRANCH  32  33
ENDBRANCH  30  32
ENDBRANCH   2  30
TORSDOF 10
ENDMDL
MODEL 6
REMARK VINA RESULT:      -9.0      1.413      3.816
REMARK  Name = 46936180
REMARK  10 active torsions:
REMARK  status: ('A' for Active; 'I' for Inactive)
REMARK    1  A    between atoms: N_2  and  C_30
REMARK    2  A    between atoms: C_4  and  C_21
REMARK    3  A    between atoms: C_5  and  C_7
REMARK    4  A    between atoms: C_7  and  C_9
REMARK    5  A    between atoms: C_13  and  N_18
REMARK    6  A    between atoms: C_21  and  N_22
REMARK    7  A    between atoms: C_21  and  C_26
REMARK    8  A    between atoms: C_26  and  O_28
REMARK    9  A    between atoms: C_30  and  C_32
REMARK   10  A    between atoms: C_32  and  O_33
REMARK                            x       y       z     vdW  Elec       q    Type
REMARK                         _______ _______ _______ _____ _____    ______ ____
ROOT
ATOM      1  O   UNL     1      36.187 -22.692 -17.090  0.00  0.00    -0.267 OA
ATOM      2  N   UNL     1      34.386 -23.219 -15.668  0.00  0.00    -0.223 N 
ATOM      3  N   UNL     1      32.713 -23.195 -17.169  0.00  0.00    -0.393 NA
ATOM      4  C   UNL     1      33.064 -23.367 -15.929  0.00  0.00    +0.148 C 
ATOM      5  C   UNL     1      33.890 -22.904 -17.814  0.00  0.00    +0.168 C 
ATOM      6  C   UNL     1      35.015 -22.912 -16.847  0.00  0.00    +0.281 C 
ENDROOT
BRANCH   5   7
ATOM      7  C   UNL     1      34.045 -22.645 -19.113  0.00  0.00    +0.091 C 
BRANCH   7   9
ATOM      8  N   UNL     1      32.707 -19.616 -20.624  0.00  0.00    -0.312 N 
ATOM      9  C   UNL     1      33.805 -21.347 -19.772  0.00  0.00    +0.002 C 
ATOM     10  C   UNL     1      34.758 -20.420 -20.278  0.00  0.00    +0.024 C 
ATOM     11  C   UNL     1      34.044 -19.344 -20.806  0.00  0.00    +0.049 C 
ATOM     12  C   UNL     1      32.552 -20.824 -19.999  0.00  0.00    +0.058 C 
ATOM     13  C   UNL     1      36.166 -20.394 -20.336  0.00  0.00    +0.042 C 
ATOM     14  C   UNL     1      34.669 -18.238 -21.393  0.00  0.00    +0.015 C 
ATOM     15  C   UNL     1      36.805 -19.294 -20.921  0.00  0.00    +0.014 C 
ATOM     16  C   UNL     1      36.065 -18.234 -21.441  0.00  0.00    +0.003 C 
ATOM     17  H   UNL     1      31.968 -19.027 -20.902  0.00  0.00    +0.152 HD
BRANCH  13  18
ATOM     18  N   UNL     1      36.961 -21.443 -19.823  0.00  0.00    -0.357 N 
ATOM     19  H   UNL     1      37.542 -21.960 -20.427  0.00  0.00    +0.142 HD
ATOM     20  H   UNL     1      36.934 -21.656 -18.863  0.00  0.00    +0.142 HD
ENDBRANCH  13  18
ENDBRANCH   7   9
ENDBRANCH   5   7
BRANCH   4  21
ATOM     21  C   UNL     1      32.096 -23.709 -14.844  0.00  0.00    +0.031 C 
BRANCH  21  22
ATOM     22  N   UNL     1      31.853 -22.460 -14.131  0.00  0.00    +0.389 N 
ATOM     23  H   UNL     1      32.496 -21.744 -14.469  0.00  0.00    -0.088 HD
ATOM     24  H   UNL     1      32.000 -22.605 -13.132  0.00  0.00    -0.088 HD
ATOM     25  H   UNL     1      30.893 -22.157 -14.293  0.00  0.00    -0.088 HD
ENDBRANCH  21  22
BRANCH  21  26
ATOM     26  C   UNL     1      30.823 -24.329 -15.442  0.00  0.00    +0.099 C 
ATOM     27  C   UNL     1      30.000 -25.123 -14.433  0.00  0.00    +0.030 C 
BRANCH  26  28
ATOM     28  O   UNL     1      30.006 -23.260 -15.928  0.00  0.00    -0.386 OA
ATOM     29  H   UNL     1      29.196 -23.204 -15.397  0.00  0.00    +0.210 HD
ENDBRANCH  26  28
ENDBRANCH  21  26
ENDBRANCH   4  21
BRANCH   2  30
ATOM     30  C   UNL     1      35.022 -23.361 -14.371  0.00  0.00    +0.210 C 
BRANCH  30  32
ATOM     31  O   UNL     1      37.097 -24.489 -13.910  0.00  0.00    -0.248 OA
ATOM     32  C   UNL     1      35.937 -24.556 -14.294  0.00  0.00    +0.335 C 
BRANCH  32  33
ATOM     33  O   UNL     1      35.352 -25.711 -14.690  0.00  0.00    -0.479 OA
ATOM     34  H   UNL     1      35.294 -25.918 -15.602  0.00  0.00    +0.295 HD
ENDBRANCH  32  33
ENDBRANCH  30  32
ENDBRANCH   2  30
TORSDOF 10
ENDMDL
MODEL 7
REMARK VINA RESULT:      -9.0      8.353     12.460
REMARK  Name = 46936180
REMARK  10 active torsions:
REMARK  status: ('A' for Active; 'I' for Inactive)
REMARK    1  A    between atoms: N_2  and  C_30
REMARK    2  A    between atoms: C_4  and  C_21
REMARK    3  A    between atoms: C_5  and  C_7
REMARK    4  A    between atoms: C_7  and  C_9
REMARK    5  A    between atoms: C_13  and  N_18
REMARK    6  A    between atoms: C_21  and  N_22
REMARK    7  A    between atoms: C_21  and  C_26
REMARK    8  A    between atoms: C_26  and  O_28
REMARK    9  A    between atoms: C_30  and  C_32
REMARK   10  A    between atoms: C_32  and  O_33
REMARK                            x       y       z     vdW  Elec       q    Type
REMARK                         _______ _______ _______ _____ _____    ______ ____
ROOT
ATOM      1  O   UNL     1      34.421 -11.522 -25.032  0.00  0.00    -0.267 OA
ATOM      2  N   UNL     1      32.897 -10.695 -23.440  0.00  0.00    -0.223 N 
ATOM      3  N   UNL     1      32.480 -12.593 -22.309  0.00  0.00    -0.393 NA
ATOM      4  C   UNL     1      32.239 -11.321 -22.433  0.00  0.00    +0.148 C 
ATOM      5  C   UNL     1      33.376 -12.865 -23.314  0.00  0.00    +0.168 C 
ATOM      6  C   UNL     1      33.671 -11.628 -24.080  0.00  0.00    +0.281 C 
ENDROOT
BRANCH   5   7
ATOM      7  C   UNL     1      33.925 -14.047 -23.596  0.00  0.00    +0.091 C 
BRANCH   7   9
ATOM      8  N   UNL     1      34.804 -16.013 -20.662  0.00  0.00    -0.312 N 
ATOM      9  C   UNL     1      34.311 -15.078 -22.614  0.00  0.00    +0.002 C 
ATOM     10  C   UNL     1      34.620 -16.448 -22.842  0.00  0.00    +0.024 C 
ATOM     11  C   UNL     1      34.924 -17.011 -21.602  0.00  0.00    +0.049 C 
ATOM     12  C   UNL     1      34.433 -14.841 -21.263  0.00  0.00    +0.058 C 
ATOM     13  C   UNL     1      34.668 -17.265 -23.989  0.00  0.00    +0.042 C 
ATOM     14  C   UNL     1      35.278 -18.357 -21.451  0.00  0.00    +0.015 C 
ATOM     15  C   UNL     1      35.020 -18.613 -23.853  0.00  0.00    +0.014 C 
ATOM     16  C   UNL     1      35.320 -19.148 -22.601  0.00  0.00    +0.003 C 
ATOM     17  H   UNL     1      34.960 -16.126 -19.696  0.00  0.00    +0.152 HD
BRANCH  13  18
ATOM     18  N   UNL     1      34.373 -16.771 -25.279  0.00  0.00    -0.357 N 
ATOM     19  H   UNL     1      33.969 -15.879 -25.383  0.00  0.00    +0.142 HD
ATOM     20  H   UNL     1      34.573 -17.317 -26.072  0.00  0.00    +0.142 HD
ENDBRANCH  13  18
ENDBRANCH   7   9
ENDBRANCH   5   7
BRANCH   4  21
ATOM     21  C   UNL     1      31.307 -10.574 -21.538  0.00  0.00    +0.031 C 
BRANCH  21  22
ATOM     22  N   UNL     1      30.161 -11.456 -21.345  0.00  0.00    +0.389 N 
ATOM     23  H   UNL     1      29.330 -11.027 -21.753  0.00  0.00    -0.088 HD
ATOM     24  H   UNL     1      30.011 -11.606 -20.347  0.00  0.00    -0.088 HD
ATOM     25  H   UNL     1      30.340 -12.350 -21.800  0.00  0.00    -0.088 HD
ENDBRANCH  21  22
BRANCH  21  26
ATOM     26  C   UNL     1      32.014 -10.196 -20.226  0.00  0.00    +0.099 C 
ATOM     27  C   UNL     1      32.039  -8.695 -19.957  0.00  0.00    +0.030 C 
BRANCH  26  28
ATOM     28  O   UNL     1      31.304 -10.821 -19.154  0.00  0.00    -0.386 OA
ATOM     29  H   UNL     1      31.904 -11.405 -18.665  0.00  0.00    +0.210 HD
ENDBRANCH  26  28
ENDBRANCH  21  26
ENDBRANCH   4  21
BRANCH   2  30
ATOM     30  C   UNL     1      32.799  -9.287 -23.779  0.00  0.00    +0.210 C 
BRANCH  30  32
ATOM     31  O   UNL     1      33.914  -7.557 -22.534  0.00  0.00    -0.248 OA
ATOM     32  C   UNL     1      33.993  -8.489 -23.323  0.00  0.00    +0.335 C 
BRANCH  32  33
ATOM     33  O   UNL     1      35.160  -8.901 -23.871  0.00  0.00    -0.479 OA
ATOM     34  H   UNL     1      35.590  -8.369 -24.512  0.00  0.00    +0.295 HD
ENDBRANCH  32  33
ENDBRANCH  30  32
ENDBRANCH   2  30
TORSDOF 10
ENDMDL
MODEL 8
REMARK VINA RESULT:      -8.8      1.899      3.573
REMARK  Name = 46936180
REMARK  10 active torsions:
REMARK  status: ('A' for Active; 'I' for Inactive)
REMARK    1  A    between atoms: N_2  and  C_30
REMARK    2  A    between atoms: C_4  and  C_21
REMARK    3  A    between atoms: C_5  and  C_7
REMARK    4  A    between atoms: C_7  and  C_9
REMARK    5  A    between atoms: C_13  and  N_18
REMARK    6  A    between atoms: C_21  and  N_22
REMARK    7  A    between atoms: C_21  and  C_26
REMARK    8  A    between atoms: C_26  and  O_28
REMARK    9  A    between atoms: C_30  and  C_32
REMARK   10  A    between atoms: C_32  and  O_33
REMARK                            x       y       z     vdW  Elec       q    Type
REMARK                         _______ _______ _______ _____ _____    ______ ____
ROOT
ATOM      1  O   UNL     1      34.902 -23.211 -15.742  0.00  0.00    -0.267 OA
ATOM      2  N   UNL     1      32.560 -23.160 -15.506  0.00  0.00    -0.223 N 
ATOM      3  N   UNL     1      31.973 -23.092 -17.675  0.00  0.00    -0.393 NA
ATOM      4  C   UNL     1      31.576 -23.111 -16.438  0.00  0.00    +0.148 C 
ATOM      5  C   UNL     1      33.344 -23.129 -17.589  0.00  0.00    +0.168 C 
ATOM      6  C   UNL     1      33.762 -23.174 -16.165  0.00  0.00    +0.281 C 
ENDROOT
BRANCH   5   7
ATOM      7  C   UNL     1      34.208 -23.125 -18.605  0.00  0.00    +0.091 C 
BRANCH   7   9
ATOM      8  N   UNL     1      36.849 -20.684 -19.161  0.00  0.00    -0.312 N 
ATOM      9  C   UNL     1      35.063 -21.994 -19.009  0.00  0.00    +0.002 C 
ATOM     10  C   UNL     1      34.742 -20.899 -19.859  0.00  0.00    +0.024 C 
ATOM     11  C   UNL     1      35.879 -20.093 -19.937  0.00  0.00    +0.049 C 
ATOM     12  C   UNL     1      36.367 -21.834 -18.596  0.00  0.00    +0.058 C 
ATOM     13  C   UNL     1      33.588 -20.516 -20.571  0.00  0.00    +0.042 C 
ATOM     14  C   UNL     1      35.919 -18.917 -20.696  0.00  0.00    +0.015 C 
ATOM     15  C   UNL     1      33.614 -19.342 -21.333  0.00  0.00    +0.014 C 
ATOM     16  C   UNL     1      34.763 -18.556 -21.393  0.00  0.00    +0.003 C 
ATOM     17  H   UNL     1      37.759 -20.331 -19.031  0.00  0.00    +0.152 HD
BRANCH  13  18
ATOM     18  N   UNL     1      32.398 -21.277 -20.543  0.00  0.00    -0.357 N 
ATOM     19  H   UNL     1      32.439 -22.249 -20.390  0.00  0.00    +0.142 HD
ATOM     20  H   UNL     1      31.529 -20.836 -20.677  0.00  0.00    +0.142 HD
ENDBRANCH  13  18
ENDBRANCH   7   9
ENDBRANCH   5   7
BRANCH   4  21
ATOM     21  C   UNL     1      30.137 -23.086 -16.040  0.00  0.00    +0.031 C 
BRANCH  21  22
ATOM     22  N   UNL     1      29.497 -22.144 -16.952  0.00  0.00    +0.389 N 
ATOM     23  H   UNL     1      28.750 -22.617 -17.460  0.00  0.00    -0.088 HD
ATOM     24  H   UNL     1      30.187 -21.790 -17.614  0.00  0.00    -0.088 HD
ATOM     25  H   UNL     1      29.106 -21.367 -16.419  0.00  0.00    -0.088 HD
ENDBRANCH  21  22
BRANCH  21  26
ATOM     26  C   UNL     1      29.540 -24.501 -16.106  0.00  0.00    +0.099 C 
ATOM     27  C   UNL     1      28.972 -24.985 -14.776  0.00  0.00    +0.030 C 
BRANCH  26  28
ATOM     28  O   UNL     1      28.472 -24.478 -17.056  0.00  0.00    -0.386 OA
ATOM     29  H   UNL     1      27.628 -24.617 -16.598  0.00  0.00    +0.210 HD
ENDBRANCH  26  28
ENDBRANCH  21  26
ENDBRANCH   4  21
BRANCH   2  30
ATOM     30  C   UNL     1      32.374 -23.192 -14.067  0.00  0.00    +0.210 C 
BRANCH  30  32
ATOM     31  O   UNL     1      31.870 -25.444 -13.384  0.00  0.00    -0.248 OA
ATOM     32  C   UNL     1      32.688 -24.536 -13.464  0.00  0.00    +0.335 C 
BRANCH  32  33
ATOM     33  O   UNL     1      33.961 -24.645 -13.018  0.00  0.00    -0.479 OA
ATOM     34  H   UNL     1      34.182 -25.299 -12.384  0.00  0.00    +0.295 HD
ENDBRANCH  32  33
ENDBRANCH  30  32
ENDBRANCH   2  30
TORSDOF 10
ENDMDL
MODEL 9
REMARK VINA RESULT:      -8.4      4.938      9.577
REMARK  Name = 46936180
REMARK  10 active torsions:
REMARK  status: ('A' for Active; 'I' for Inactive)
REMARK    1  A    between atoms: N_2  and  C_30
REMARK    2  A    between atoms: C_4  and  C_21
REMARK    3  A    between atoms: C_5  and  C_7
REMARK    4  A    between atoms: C_7  and  C_9
REMARK    5  A    between atoms: C_13  and  N_18
REMARK    6  A    between atoms: C_21  and  N_22
REMARK    7  A    between atoms: C_21  and  C_26
REMARK    8  A    between atoms: C_26  and  O_28
REMARK    9  A    between atoms: C_30  and  C_32
REMARK   10  A    between atoms: C_32  and  O_33
REMARK                            x       y       z     vdW  Elec       q    Type
REMARK                         _______ _______ _______ _____ _____    ______ ____
ROOT
ATOM      1  O   UNL     1      35.119 -16.495 -20.111  0.00  0.00    -0.267 OA
ATOM      2  N   UNL     1      34.265 -15.353 -21.984  0.00  0.00    -0.223 N 
ATOM      3  N   UNL     1      34.210 -17.050 -23.457  0.00  0.00    -0.393 NA
ATOM      4  C   UNL     1      33.981 -15.789 -23.235  0.00  0.00    +0.148 C 
ATOM      5  C   UNL     1      34.692 -17.519 -22.260  0.00  0.00    +0.168 C 
ATOM      6  C   UNL     1      34.741 -16.418 -21.264  0.00  0.00    +0.281 C 
ENDROOT
BRANCH   5   7
ATOM      7  C   UNL     1      35.072 -18.768 -21.986  0.00  0.00    +0.091 C 
BRANCH   7   9
ATOM      8  N   UNL     1      32.627 -20.920 -20.364  0.00  0.00    -0.312 N 
ATOM      9  C   UNL     1      34.328 -19.738 -21.161  0.00  0.00    +0.002 C 
ATOM     10  C   UNL     1      34.821 -20.592 -20.135  0.00  0.00    +0.024 C 
ATOM     11  C   UNL     1      33.735 -21.322 -19.652  0.00  0.00    +0.049 C 
ATOM     12  C   UNL     1      32.976 -19.963 -21.279  0.00  0.00    +0.058 C 
ATOM     13  C   UNL     1      36.093 -20.813 -19.570  0.00  0.00    +0.042 C 
ATOM     14  C   UNL     1      33.857 -22.267 -18.627  0.00  0.00    +0.015 C 
ATOM     15  C   UNL     1      36.230 -21.755 -18.544  0.00  0.00    +0.014 C 
ATOM     16  C   UNL     1      35.127 -22.470 -18.081  0.00  0.00    +0.003 C 
ATOM     17  H   UNL     1      31.716 -21.271 -20.234  0.00  0.00    +0.152 HD
BRANCH  13  18
ATOM     18  N   UNL     1      37.242 -20.114 -20.004  0.00  0.00    -0.357 N 
ATOM     19  H   UNL     1      37.291 -19.774 -20.926  0.00  0.00    +0.142 HD
ATOM     20  H   UNL     1      37.992 -19.968 -19.384  0.00  0.00    +0.142 HD
ENDBRANCH  13  18
ENDBRANCH   7   9
ENDBRANCH   5   7
BRANCH   4  21
ATOM     21  C   UNL     1      33.439 -14.862 -24.272  0.00  0.00    +0.031 C 
BRANCH  21  22
ATOM     22  N   UNL     1      34.355 -13.727 -24.299  0.00  0.00    +0.389 N 
ATOM     23  H   UNL     1      34.587 -13.455 -23.344  0.00  0.00    -0.088 HD
ATOM     24  H   UNL     1      33.912 -12.943 -24.778  0.00  0.00    -0.088 HD
ATOM     25  H   UNL     1      35.207 -13.990 -24.793  0.00  0.00    -0.088 HD
ENDBRANCH  21  22
BRANCH  21  26
ATOM     26  C   UNL     1      33.321 -15.584 -25.624  0.00  0.00    +0.099 C 
ATOM     27  C   UNL     1      32.819 -14.688 -26.752  0.00  0.00    +0.030 C 
BRANCH  26  28
ATOM     28  O   UNL     1      34.624 -16.051 -25.982  0.00  0.00    -0.386 OA
ATOM     29  H   UNL     1      34.727 -16.972 -25.699  0.00  0.00    +0.210 HD
ENDBRANCH  26  28
ENDBRANCH  21  26
ENDBRANCH   4  21
BRANCH   2  30
ATOM     30  C   UNL     1      34.095 -13.997 -21.493  0.00  0.00    +0.210 C 
BRANCH  30  32
ATOM     31  O   UNL     1      32.030 -12.831 -21.088  0.00  0.00    -0.248 OA
ATOM     32  C   UNL     1      32.761 -13.777 -20.827  0.00  0.00    +0.335 C 
BRANCH  32  33
ATOM     33  O   UNL     1      32.451 -14.725 -19.912  0.00  0.00    -0.479 OA
ATOM     34  H   UNL     1      32.280 -15.604 -20.187  0.00  0.00    +0.295 HD
ENDBRANCH  32  33
ENDBRANCH  30  32
ENDBRANCH   2  30
TORSDOF 10
ENDMDL
