MODEL 1
REMARK VINA RESULT:     -10.4      0.000      0.000
REMARK  Name = 24832022
REMARK  5 active torsions:
REMARK  status: ('A' for Active; 'I' for Inactive)
REMARK    1  A    between atoms: C_1  and  C_19
REMARK    2  A    between atoms: C_2  and  C_7
REMARK    3  A    between atoms: C_8  and  C_12
REMARK    4  A    between atoms: C_19  and  N_20
REMARK    5  A    between atoms: N_20  and  N_24
REMARK                            x       y       z     vdW  Elec       q    Type
REMARK                         _______ _______ _______ _____ _____    ______ ____
ROOT
ATOM      1  C   UNL     1      34.275 -22.346 -18.334  0.00  0.00    +0.003 C 
ATOM      2  C   UNL     1      35.572 -22.181 -17.850  0.00  0.00    +0.039 C 
ATOM      3  C   UNL     1      33.894 -21.739 -19.530  0.00  0.00    -0.002 C 
ATOM      4  C   UNL     1      36.490 -21.410 -18.563  0.00  0.00    +0.008 C 
ATOM      5  C   UNL     1      34.811 -20.967 -20.243  0.00  0.00    -0.000 C 
ATOM      6  C   UNL     1      36.109 -20.802 -19.760  0.00  0.00    +0.001 C 
ENDROOT
BRANCH   2   7
ATOM      7  C   UNL     1      35.988 -22.793 -16.625  0.00  0.00    -0.058 C 
ATOM      8  C   UNL     1      36.338 -23.307 -15.596  0.00  0.00    -0.031 C 
BRANCH   8  12
ATOM      9  N   UNL     1      37.871 -24.668 -14.464  0.00  0.00    -0.324 NA
ATOM     10  N   UNL     1      37.662 -25.149 -12.111  0.00  0.00    -0.337 NA
ATOM     11  N   UNL     1      39.432 -26.037 -13.370  0.00  0.00    -0.283 N 
ATOM     12  C   UNL     1      36.753 -23.919 -14.372  0.00  0.00    +0.171 C 
ATOM     13  C   UNL     1      36.550 -24.384 -12.092  0.00  0.00    +0.108 C 
ATOM     14  C   UNL     1      36.044 -23.740 -13.202  0.00  0.00    +0.124 C 
ATOM     15  C   UNL     1      35.851 -24.250 -10.781  0.00  0.00    +0.063 C 
ATOM     16  C   UNL     1      38.264 -25.246 -13.312  0.00  0.00    +0.196 C 
ATOM     17  H   UNL     1      39.913 -26.144 -14.222  0.00  0.00    +0.156 HD
ATOM     18  H   UNL     1      39.765 -26.483 -12.558  0.00  0.00    +0.156 HD
ENDBRANCH   8  12
ENDBRANCH   2   7
BRANCH   1  19
ATOM     19  C   UNL     1      33.265 -23.166 -17.596  0.00  0.00    +0.115 C 
BRANCH  19  20
ATOM     20  N   UNL     1      31.900 -22.591 -17.675  0.00  0.00    -0.215 NA
ATOM     21  H   UNL     1      31.531 -22.100 -18.444  0.00  0.00    +0.146 HD
BRANCH  20  24
ATOM     22  O   UNL     1      29.564 -23.087 -15.016  0.00  0.00    -0.404 OA
ATOM     23  O   UNL     1      29.033 -22.393 -17.149  0.00  0.00    -0.224 OA
ATOM     24  N   UNL     1      31.238 -22.854 -16.508  0.00  0.00    -0.163 N 
ATOM     25  C   UNL     1      31.821 -23.262 -15.365  0.00  0.00    +0.129 C 
ATOM     26  C   UNL     1      29.876 -22.738 -16.331  0.00  0.00    +0.427 C 
ATOM     27  C   UNL     1      30.827 -23.395 -14.499  0.00  0.00    +0.202 C 
ENDBRANCH  20  24
ENDBRANCH  19  20
ENDBRANCH   1  19
TORSDOF 5
ENDMDL
MODEL 2
REMARK VINA RESULT:     -10.4      1.031      1.832
REMARK  Name = 24832022
REMARK  5 active torsions:
REMARK  status: ('A' for Active; 'I' for Inactive)
REMARK    1  A    between atoms: C_1  and  C_19
REMARK    2  A    between atoms: C_2  and  C_7
REMARK    3  A    between atoms: C_8  and  C_12
REMARK    4  A    between atoms: C_19  and  N_20
REMARK    5  A    between atoms: N_20  and  N_24
REMARK                            x       y       z     vdW  Elec       q    Type
REMARK                         _______ _______ _______ _____ _____    ______ ____
ROOT
ATOM      1  C   UNL     1      34.295 -22.136 -18.424  0.00  0.00    +0.003 C 
ATOM      2  C   UNL     1      35.649 -21.911 -18.179  0.00  0.00    +0.039 C 
ATOM      3  C   UNL     1      33.686 -21.576 -19.547  0.00  0.00    -0.002 C 
ATOM      4  C   UNL     1      36.395 -21.126 -19.058  0.00  0.00    +0.008 C 
ATOM      5  C   UNL     1      34.433 -20.790 -20.425  0.00  0.00    -0.000 C 
ATOM      6  C   UNL     1      35.787 -20.565 -20.180  0.00  0.00    +0.001 C 
ENDROOT
BRANCH   2   7
ATOM      7  C   UNL     1      36.296 -22.474 -17.034  0.00  0.00    -0.058 C 
ATOM      8  C   UNL     1      36.841 -22.947 -16.072  0.00  0.00    -0.031 C 
BRANCH   8  12
ATOM      9  N   UNL     1      37.019 -23.076 -13.740  0.00  0.00    -0.324 NA
ATOM     10  N   UNL     1      38.633 -24.503 -12.658  0.00  0.00    -0.337 NA
ATOM     11  N   UNL     1      37.163 -23.176 -11.400  0.00  0.00    -0.283 N 
ATOM     12  C   UNL     1      37.489 -23.510 -14.928  0.00  0.00    +0.171 C 
ATOM     13  C   UNL     1      39.052 -24.894 -13.880  0.00  0.00    +0.108 C 
ATOM     14  C   UNL     1      38.512 -24.426 -15.061  0.00  0.00    +0.124 C 
ATOM     15  C   UNL     1      40.164 -25.887 -13.922  0.00  0.00    +0.063 C 
ATOM     16  C   UNL     1      37.628 -23.606 -12.661  0.00  0.00    +0.196 C 
ATOM     17  H   UNL     1      36.431 -22.520 -11.343  0.00  0.00    +0.156 HD
ATOM     18  H   UNL     1      37.572 -23.530 -10.578  0.00  0.00    +0.156 HD
ENDBRANCH   8  12
ENDBRANCH   2   7
BRANCH   1  19
ATOM     19  C   UNL     1      33.463 -22.972 -17.505  0.00  0.00    +0.115 C 
BRANCH  19  20
ATOM     20  N   UNL     1      32.009 -22.761 -17.704  0.00  0.00    -0.215 NA
ATOM     21  H   UNL     1      31.580 -22.512 -18.554  0.00  0.00    +0.146 HD
BRANCH  20  24
ATOM     22  O   UNL     1      29.714 -23.084 -14.982  0.00  0.00    -0.404 OA
ATOM     23  O   UNL     1      29.172 -22.388 -17.112  0.00  0.00    -0.224 OA
ATOM     24  N   UNL     1      31.361 -22.969 -16.517  0.00  0.00    -0.163 N 
ATOM     25  C   UNL     1      31.949 -23.396 -15.383  0.00  0.00    +0.129 C 
ATOM     26  C   UNL     1      30.014 -22.771 -16.309  0.00  0.00    +0.427 C 
ATOM     27  C   UNL     1      30.970 -23.459 -14.492  0.00  0.00    +0.202 C 
ENDBRANCH  20  24
ENDBRANCH  19  20
ENDBRANCH   1  19
TORSDOF 5
ENDMDL
MODEL 3
REMARK VINA RESULT:     -10.1      3.170      7.480
REMARK  Name = 24832022
REMARK  5 active torsions:
REMARK  status: ('A' for Active; 'I' for Inactive)
REMARK    1  A    between atoms: C_1  and  C_19
REMARK    2  A    between atoms: C_2  and  C_7
REMARK    3  A    between atoms: C_8  and  C_12
REMARK    4  A    between atoms: C_19  and  N_20
REMARK    5  A    between atoms: N_20  and  N_24
REMARK                            x       y       z     vdW  Elec       q    Type
REMARK                         _______ _______ _______ _____ _____    ______ ____
ROOT
ATOM      1  C   UNL     1      31.867 -24.377 -14.595  0.00  0.00    +0.003 C 
ATOM      2  C   UNL     1      31.276 -23.924 -15.774  0.00  0.00    +0.039 C 
ATOM      3  C   UNL     1      31.101 -25.053 -13.646  0.00  0.00    -0.002 C 
ATOM      4  C   UNL     1      29.919 -24.149 -16.005  0.00  0.00    +0.008 C 
ATOM      5  C   UNL     1      29.744 -25.277 -13.877  0.00  0.00    -0.000 C 
ATOM      6  C   UNL     1      29.152 -24.825 -15.056  0.00  0.00    +0.001 C 
ENDROOT
BRANCH   2   7
ATOM      7  C   UNL     1      32.040 -23.228 -16.763  0.00  0.00    -0.058 C 
ATOM      8  C   UNL     1      32.683 -22.643 -17.594  0.00  0.00    -0.031 C 
BRANCH   8  12
ATOM      9  N   UNL     1      32.729 -21.130 -19.382  0.00  0.00    -0.324 NA
ATOM     10  N   UNL     1      34.776 -20.550 -20.514  0.00  0.00    -0.337 NA
ATOM     11  N   UNL     1      32.728 -19.609 -21.169  0.00  0.00    -0.283 N 
ATOM     12  C   UNL     1      33.447 -21.945 -18.582  0.00  0.00    +0.171 C 
ATOM     13  C   UNL     1      35.431 -21.382 -19.679  0.00  0.00    +0.108 C 
ATOM     14  C   UNL     1      34.813 -22.113 -18.685  0.00  0.00    +0.124 C 
ATOM     15  C   UNL     1      36.906 -21.498 -19.867  0.00  0.00    +0.063 C 
ATOM     16  C   UNL     1      33.446 -20.472 -20.313  0.00  0.00    +0.196 C 
ATOM     17  H   UNL     1      31.754 -19.514 -21.068  0.00  0.00    +0.156 HD
ATOM     18  H   UNL     1      33.202 -19.103 -21.868  0.00  0.00    +0.156 HD
ENDBRANCH   8  12
ENDBRANCH   2   7
BRANCH   1  19
ATOM     19  C   UNL     1      33.319 -24.155 -14.313  0.00  0.00    +0.115 C 
BRANCH  19  20
ATOM     20  N   UNL     1      33.732 -24.698 -12.997  0.00  0.00    -0.215 NA
ATOM     21  H   UNL     1      33.184 -25.279 -12.422  0.00  0.00    +0.146 HD
BRANCH  20  24
ATOM     22  O   UNL     1      36.922 -23.898 -11.598  0.00  0.00    -0.404 OA
ATOM     23  O   UNL     1      35.272 -25.120 -10.550  0.00  0.00    -0.224 OA
ATOM     24  N   UNL     1      34.995 -24.259 -12.710  0.00  0.00    -0.163 N 
ATOM     25  C   UNL     1      35.766 -23.532 -13.542  0.00  0.00    +0.129 C 
ATOM     26  C   UNL     1      35.663 -24.497 -11.529  0.00  0.00    +0.427 C 
ATOM     27  C   UNL     1      36.894 -23.329 -12.875  0.00  0.00    +0.202 C 
ENDBRANCH  20  24
ENDBRANCH  19  20
ENDBRANCH   1  19
TORSDOF 5
ENDMDL
MODEL 4
REMARK VINA RESULT:     -10.1      3.099      6.671
REMARK  Name = 24832022
REMARK  5 active torsions:
REMARK  status: ('A' for Active; 'I' for Inactive)
REMARK    1  A    between atoms: C_1  and  C_19
REMARK    2  A    between atoms: C_2  and  C_7
REMARK    3  A    between atoms: C_8  and  C_12
REMARK    4  A    between atoms: C_19  and  N_20
REMARK    5  A    between atoms: N_20  and  N_24
REMARK                            x       y       z     vdW  Elec       q    Type
REMARK                         _______ _______ _______ _____ _____    ______ ____
ROOT
ATOM      1  C   UNL     1      35.469 -22.589 -17.011  0.00  0.00    +0.003 C 
ATOM      2  C   UNL     1      34.311 -22.388 -17.762  0.00  0.00    +0.039 C 
ATOM      3  C   UNL     1      36.710 -22.224 -17.530  0.00  0.00    -0.002 C 
ATOM      4  C   UNL     1      34.395 -21.819 -19.033  0.00  0.00    +0.008 C 
ATOM      5  C   UNL     1      36.794 -21.656 -18.802  0.00  0.00    -0.000 C 
ATOM      6  C   UNL     1      35.636 -21.454 -19.554  0.00  0.00    +0.001 C 
ENDROOT
BRANCH   2   7
ATOM      7  C   UNL     1      33.026 -22.754 -17.252  0.00  0.00    -0.058 C 
ATOM      8  C   UNL     1      31.945 -23.063 -16.824  0.00  0.00    -0.031 C 
BRANCH   8  12
ATOM      9  N   UNL     1      30.622 -24.614 -15.671  0.00  0.00    -0.324 NA
ATOM     10  N   UNL     1      28.270 -24.253 -15.287  0.00  0.00    -0.337 NA
ATOM     11  N   UNL     1      29.334 -26.195 -14.510  0.00  0.00    -0.283 N 
ATOM     12  C   UNL     1      30.660 -23.429 -16.314  0.00  0.00    +0.171 C 
ATOM     13  C   UNL     1      28.381 -23.079 -15.941  0.00  0.00    +0.108 C 
ATOM     14  C   UNL     1      29.562 -22.611 -16.481  0.00  0.00    +0.124 C 
ATOM     15  C   UNL     1      27.138 -22.264 -16.073  0.00  0.00    +0.063 C 
ATOM     16  C   UNL     1      29.412 -24.960 -15.189  0.00  0.00    +0.196 C 
ATOM     17  H   UNL     1      30.138 -26.754 -14.410  0.00  0.00    +0.156 HD
ATOM     18  H   UNL     1      28.475 -26.498 -14.138  0.00  0.00    +0.156 HD
ENDBRANCH   8  12
ENDBRANCH   2   7
BRANCH   1  19
ATOM     19  C   UNL     1      35.418 -23.196 -15.645  0.00  0.00    +0.115 C 
BRANCH  19  20
ATOM     20  N   UNL     1      35.360 -24.677 -15.683  0.00  0.00    -0.215 NA
ATOM     21  H   UNL     1      34.669 -25.210 -16.137  0.00  0.00    +0.146 HD
BRANCH  20  24
ATOM     22  O   UNL     1      38.055 -26.583 -14.312  0.00  0.00    -0.404 OA
ATOM     23  O   UNL     1      36.697 -27.249 -16.052  0.00  0.00    -0.224 OA
ATOM     24  N   UNL     1      36.422 -25.182 -14.985  0.00  0.00    -0.163 N 
ATOM     25  C   UNL     1      37.049 -24.553 -13.973  0.00  0.00    +0.129 C 
ATOM     26  C   UNL     1      37.004 -26.410 -15.214  0.00  0.00    +0.427 C 
ATOM     27  C   UNL     1      38.005 -25.387 -13.589  0.00  0.00    +0.202 C 
ENDBRANCH  20  24
ENDBRANCH  19  20
ENDBRANCH   1  19
TORSDOF 5
ENDMDL
MODEL 5
REMARK VINA RESULT:      -9.8      3.245      7.306
REMARK  Name = 24832022
REMARK  5 active torsions:
REMARK  status: ('A' for Active; 'I' for Inactive)
REMARK    1  A    between atoms: C_1  and  C_19
REMARK    2  A    between atoms: C_2  and  C_7
REMARK    3  A    between atoms: C_8  and  C_12
REMARK    4  A    between atoms: C_19  and  N_20
REMARK    5  A    between atoms: N_20  and  N_24
REMARK                            x       y       z     vdW  Elec       q    Type
REMARK                         _______ _______ _______ _____ _____    ______ ____
ROOT
ATOM      1  C   UNL     1      32.211 -24.184 -14.601  0.00  0.00    +0.003 C 
ATOM      2  C   UNL     1      31.631 -23.875 -15.831  0.00  0.00    +0.039 C 
ATOM      3  C   UNL     1      31.473 -24.864 -13.633  0.00  0.00    -0.002 C 
ATOM      4  C   UNL     1      30.313 -24.248 -16.094  0.00  0.00    +0.008 C 
ATOM      5  C   UNL     1      30.154 -25.237 -13.896  0.00  0.00    -0.000 C 
ATOM      6  C   UNL     1      29.575 -24.929 -15.127  0.00  0.00    +0.001 C 
ENDROOT
BRANCH   2   7
ATOM      7  C   UNL     1      32.367 -23.177 -16.840  0.00  0.00    -0.058 C 
ATOM      8  C   UNL     1      32.986 -22.590 -17.688  0.00  0.00    -0.031 C 
BRANCH   8  12
ATOM      9  N   UNL     1      35.041 -22.168 -18.730  0.00  0.00    -0.324 NA
ATOM     10  N   UNL     1      35.248 -20.629 -20.574  0.00  0.00    -0.337 NA
ATOM     11  N   UNL     1      37.120 -21.777 -19.745  0.00  0.00    -0.283 N 
ATOM     12  C   UNL     1      33.721 -21.891 -18.696  0.00  0.00    +0.171 C 
ATOM     13  C   UNL     1      33.922 -20.400 -20.483  0.00  0.00    +0.108 C 
ATOM     14  C   UNL     1      33.100 -21.008 -19.556  0.00  0.00    +0.124 C 
ATOM     15  C   UNL     1      33.341 -19.429 -21.455  0.00  0.00    +0.063 C 
ATOM     16  C   UNL     1      35.735 -21.512 -19.680  0.00  0.00    +0.196 C 
ATOM     17  H   UNL     1      37.530 -22.413 -19.115  0.00  0.00    +0.156 HD
ATOM     18  H   UNL     1      37.676 -21.325 -20.420  0.00  0.00    +0.156 HD
ENDBRANCH   8  12
ENDBRANCH   2   7
BRANCH   1  19
ATOM     19  C   UNL     1      33.621 -23.799 -14.284  0.00  0.00    +0.115 C 
BRANCH  19  20
ATOM     20  N   UNL     1      33.895 -23.798 -12.827  0.00  0.00    -0.215 NA
ATOM     21  H   UNL     1      33.224 -23.664 -12.119  0.00  0.00    +0.146 HD
BRANCH  20  24
ATOM     22  O   UNL     1      37.160 -24.660 -11.654  0.00  0.00    -0.404 OA
ATOM     23  O   UNL     1      35.188 -25.055 -10.527  0.00  0.00    -0.224 OA
ATOM     24  N   UNL     1      35.231 -24.013 -12.624  0.00  0.00    -0.163 N 
ATOM     25  C   UNL     1      36.206 -23.665 -13.485  0.00  0.00    +0.129 C 
ATOM     26  C   UNL     1      35.772 -24.614 -11.509  0.00  0.00    +0.427 C 
ATOM     27  C   UNL     1      37.332 -24.052 -12.902  0.00  0.00    +0.202 C 
ENDBRANCH  20  24
ENDBRANCH  19  20
ENDBRANCH   1  19
TORSDOF 5
ENDMDL
MODEL 6
REMARK VINA RESULT:      -9.6      2.803      6.563
REMARK  Name = 24832022
REMARK  5 active torsions:
REMARK  status: ('A' for Active; 'I' for Inactive)
REMARK    1  A    between atoms: C_1  and  C_19
REMARK    2  A    between atoms: C_2  and  C_7
REMARK    3  A    between atoms: C_8  and  C_12
REMARK    4  A    between atoms: C_19  and  N_20
REMARK    5  A    between atoms: N_20  and  N_24
REMARK                            x       y       z     vdW  Elec       q    Type
REMARK                         _______ _______ _______ _____ _____    ______ ____
ROOT
ATOM      1  C   UNL     1      35.502 -22.143 -17.774  0.00  0.00    +0.003 C 
ATOM      2  C   UNL     1      34.281 -21.995 -18.432  0.00  0.00    +0.039 C 
ATOM      3  C   UNL     1      36.683 -21.736 -18.395  0.00  0.00    -0.002 C 
ATOM      4  C   UNL     1      34.240 -21.438 -19.710  0.00  0.00    +0.008 C 
ATOM      5  C   UNL     1      36.642 -21.180 -19.674  0.00  0.00    -0.000 C 
ATOM      6  C   UNL     1      35.421 -21.031 -20.332  0.00  0.00    +0.001 C 
ENDROOT
BRANCH   2   7
ATOM      7  C   UNL     1      33.056 -22.405 -17.817  0.00  0.00    -0.058 C 
ATOM      8  C   UNL     1      32.027 -22.750 -17.299  0.00  0.00    -0.031 C 
BRANCH   8  12
ATOM      9  N   UNL     1      29.712 -22.468 -17.075  0.00  0.00    -0.324 NA
ATOM     10  N   UNL     1      28.395 -23.838 -15.594  0.00  0.00    -0.337 NA
ATOM     11  N   UNL     1      27.396 -22.151 -16.883  0.00  0.00    -0.283 N 
ATOM     12  C   UNL     1      30.803 -23.161 -16.685  0.00  0.00    +0.171 C 
ATOM     13  C   UNL     1      29.525 -24.489 -15.250  0.00  0.00    +0.108 C 
ATOM     14  C   UNL     1      30.769 -24.191 -15.767  0.00  0.00    +0.124 C 
ATOM     15  C   UNL     1      29.389 -25.588 -14.250  0.00  0.00    +0.063 C 
ATOM     16  C   UNL     1      28.558 -22.854 -16.499  0.00  0.00    +0.196 C 
ATOM     17  H   UNL     1      27.457 -21.421 -17.540  0.00  0.00    +0.156 HD
ATOM     18  H   UNL     1      26.524 -22.391 -16.493  0.00  0.00    +0.156 HD
ENDBRANCH   8  12
ENDBRANCH   2   7
BRANCH   1  19
ATOM     19  C   UNL     1      35.584 -22.735 -16.404  0.00  0.00    +0.115 C 
BRANCH  19  20
ATOM     20  N   UNL     1      36.827 -23.517 -16.197  0.00  0.00    -0.215 NA
ATOM     21  H   UNL     1      37.570 -23.588 -16.838  0.00  0.00    +0.146 HD
BRANCH  20  24
ATOM     22  O   UNL     1      36.647 -25.730 -13.395  0.00  0.00    -0.404 OA
ATOM     23  O   UNL     1      36.626 -26.372 -15.609  0.00  0.00    -0.224 OA
ATOM     24  N   UNL     1      36.773 -24.124 -14.972  0.00  0.00    -0.163 N 
ATOM     25  C   UNL     1      36.805 -23.478 -13.791  0.00  0.00    +0.129 C 
ATOM     26  C   UNL     1      36.678 -25.483 -14.769  0.00  0.00    +0.427 C 
ATOM     27  C   UNL     1      36.731 -24.433 -12.875  0.00  0.00    +0.202 C 
ENDBRANCH  20  24
ENDBRANCH  19  20
ENDBRANCH   1  19
TORSDOF 5
ENDMDL
MODEL 7
REMARK VINA RESULT:      -9.6      5.727      8.127
REMARK  Name = 24832022
REMARK  5 active torsions:
REMARK  status: ('A' for Active; 'I' for Inactive)
REMARK    1  A    between atoms: C_1  and  C_19
REMARK    2  A    between atoms: C_2  and  C_7
REMARK    3  A    between atoms: C_8  and  C_12
REMARK    4  A    between atoms: C_19  and  N_20
REMARK    5  A    between atoms: N_20  and  N_24
REMARK                            x       y       z     vdW  Elec       q    Type
REMARK                         _______ _______ _______ _____ _____    ______ ____
ROOT
ATOM      1  C   UNL     1      34.780 -17.435 -22.828  0.00  0.00    +0.003 C 
ATOM      2  C   UNL     1      34.800 -18.827 -22.916  0.00  0.00    +0.039 C 
ATOM      3  C   UNL     1      34.677 -16.664 -23.986  0.00  0.00    -0.002 C 
ATOM      4  C   UNL     1      34.715 -19.448 -24.162  0.00  0.00    +0.008 C 
ATOM      5  C   UNL     1      34.594 -17.286 -25.232  0.00  0.00    -0.000 C 
ATOM      6  C   UNL     1      34.613 -18.678 -25.320  0.00  0.00    +0.001 C 
ENDROOT
BRANCH   2   7
ATOM      7  C   UNL     1      34.905 -19.639 -21.743  0.00  0.00    -0.058 C 
ATOM      8  C   UNL     1      34.992 -20.323 -20.758  0.00  0.00    -0.031 C 
BRANCH   8  12
ATOM      9  N   UNL     1      33.983 -21.832 -19.278  0.00  0.00    -0.324 NA
ATOM     10  N   UNL     1      35.152 -22.729 -17.370  0.00  0.00    -0.337 NA
ATOM     11  N   UNL     1      32.933 -23.343 -17.821  0.00  0.00    -0.283 N 
ATOM     12  C   UNL     1      35.096 -21.135 -19.585  0.00  0.00    +0.171 C 
ATOM     13  C   UNL     1      36.230 -22.004 -17.737  0.00  0.00    +0.108 C 
ATOM     14  C   UNL     1      36.260 -21.182 -18.845  0.00  0.00    +0.124 C 
ATOM     15  C   UNL     1      37.441 -22.120 -16.874  0.00  0.00    +0.063 C 
ATOM     16  C   UNL     1      34.079 -22.598 -18.174  0.00  0.00    +0.196 C 
ATOM     17  H   UNL     1      32.119 -23.285 -18.373  0.00  0.00    +0.156 HD
ATOM     18  H   UNL     1      32.947 -23.919 -17.024  0.00  0.00    +0.156 HD
ENDBRANCH   8  12
ENDBRANCH   2   7
BRANCH   1  19
ATOM     19  C   UNL     1      34.868 -16.734 -21.511  0.00  0.00    +0.115 C 
BRANCH  19  20
ATOM     20  N   UNL     1      35.140 -15.283 -21.656  0.00  0.00    -0.215 NA
ATOM     21  H   UNL     1      36.023 -14.882 -21.820  0.00  0.00    +0.146 HD
BRANCH  20  24
ATOM     22  O   UNL     1      32.272 -13.172 -21.960  0.00  0.00    -0.404 OA
ATOM     23  O   UNL     1      34.009 -13.292 -23.470  0.00  0.00    -0.224 OA
ATOM     24  N   UNL     1      33.966 -14.594 -21.525  0.00  0.00    -0.163 N 
ATOM     25  C   UNL     1      33.105 -14.726 -20.498  0.00  0.00    +0.129 C 
ATOM     26  C   UNL     1      33.493 -13.664 -22.424  0.00  0.00    +0.427 C 
ATOM     27  C   UNL     1      32.116 -13.886 -20.767  0.00  0.00    +0.202 C 
ENDBRANCH  20  24
ENDBRANCH  19  20
ENDBRANCH   1  19
TORSDOF 5
ENDMDL
MODEL 8
REMARK VINA RESULT:      -9.5      7.737     11.570
REMARK  Name = 24832022
REMARK  5 active torsions:
REMARK  status: ('A' for Active; 'I' for Inactive)
REMARK    1  A    between atoms: C_1  and  C_19
REMARK    2  A    between atoms: C_2  and  C_7
REMARK    3  A    between atoms: C_8  and  C_12
REMARK    4  A    between atoms: C_19  and  N_20
REMARK    5  A    between atoms: N_20  and  N_24
REMARK                            x       y       z     vdW  Elec       q    Type
REMARK                         _______ _______ _______ _____ _____    ______ ____
ROOT
ATOM      1  C   UNL     1      34.900 -18.727 -21.193  0.00  0.00    +0.003 C 
ATOM      2  C   UNL     1      33.629 -18.189 -20.992  0.00  0.00    +0.039 C 
ATOM      3  C   UNL     1      35.150 -20.062 -20.878  0.00  0.00    -0.002 C 
ATOM      4  C   UNL     1      32.608 -18.987 -20.477  0.00  0.00    +0.008 C 
ATOM      5  C   UNL     1      34.129 -20.860 -20.361  0.00  0.00    -0.000 C 
ATOM      6  C   UNL     1      32.857 -20.322 -20.161  0.00  0.00    +0.001 C 
ENDROOT
BRANCH   2   7
ATOM      7  C   UNL     1      33.347 -16.822 -21.307  0.00  0.00    -0.058 C 
ATOM      8  C   UNL     1      33.109 -15.673 -21.571  0.00  0.00    -0.031 C 
BRANCH   8  12
ATOM      9  N   UNL     1      33.388 -13.862 -23.030  0.00  0.00    -0.324 NA
ATOM     10  N   UNL     1      32.371 -11.717 -22.614  0.00  0.00    -0.337 NA
ATOM     11  N   UNL     1      33.693 -12.075 -24.520  0.00  0.00    -0.283 N 
ATOM     12  C   UNL     1      32.827 -14.308 -21.887  0.00  0.00    +0.171 C 
ATOM     13  C   UNL     1      31.841 -12.228 -21.484  0.00  0.00    +0.108 C 
ATOM     14  C   UNL     1      32.037 -13.529 -21.066  0.00  0.00    +0.124 C 
ATOM     15  C   UNL     1      31.002 -11.310 -20.662  0.00  0.00    +0.063 C 
ATOM     16  C   UNL     1      33.123 -12.576 -23.330  0.00  0.00    +0.196 C 
ATOM     17  H   UNL     1      34.253 -12.659 -25.082  0.00  0.00    +0.156 HD
ATOM     18  H   UNL     1      33.533 -11.142 -24.788  0.00  0.00    +0.156 HD
ENDBRANCH   8  12
ENDBRANCH   2   7
BRANCH   1  19
ATOM     19  C   UNL     1      36.019 -17.902 -21.743  0.00  0.00    +0.115 C 
BRANCH  19  20
ATOM     20  N   UNL     1      36.414 -18.319 -23.110  0.00  0.00    -0.215 NA
ATOM     21  H   UNL     1      37.222 -18.831 -23.340  0.00  0.00    +0.146 HD
BRANCH  20  24
ATOM     22  O   UNL     1      33.834 -17.888 -25.547  0.00  0.00    -0.404 OA
ATOM     23  O   UNL     1      34.629 -19.914 -24.785  0.00  0.00    -0.224 OA
ATOM     24  N   UNL     1      35.473 -17.876 -24.000  0.00  0.00    -0.163 N 
ATOM     25  C   UNL     1      35.207 -16.582 -24.260  0.00  0.00    +0.129 C 
ATOM     26  C   UNL     1      34.663 -18.690 -24.760  0.00  0.00    +0.427 C 
ATOM     27  C   UNL     1      34.243 -16.605 -25.169  0.00  0.00    +0.202 C 
ENDBRANCH  20  24
ENDBRANCH  19  20
ENDBRANCH   1  19
TORSDOF 5
ENDMDL
MODEL 9
REMARK VINA RESULT:      -9.4      2.176      6.237
REMARK  Name = 24832022
REMARK  5 active torsions:
REMARK  status: ('A' for Active; 'I' for Inactive)
REMARK    1  A    between atoms: C_1  and  C_19
REMARK    2  A    between atoms: C_2  and  C_7
REMARK    3  A    between atoms: C_8  and  C_12
REMARK    4  A    between atoms: C_19  and  N_20
REMARK    5  A    between atoms: N_20  and  N_24
REMARK                            x       y       z     vdW  Elec       q    Type
REMARK                         _______ _______ _______ _____ _____    ______ ____
ROOT
ATOM      1  C   UNL     1      36.099 -24.285 -13.446  0.00  0.00    +0.003 C 
ATOM      2  C   UNL     1      36.978 -24.111 -14.514  0.00  0.00    +0.039 C 
ATOM      3  C   UNL     1      36.516 -24.967 -12.303  0.00  0.00    -0.002 C 
ATOM      4  C   UNL     1      38.275 -24.618 -14.440  0.00  0.00    +0.008 C 
ATOM      5  C   UNL     1      37.813 -25.475 -12.229  0.00  0.00    -0.000 C 
ATOM      6  C   UNL     1      38.693 -25.300 -13.297  0.00  0.00    +0.001 C 
ENDROOT
BRANCH   2   7
ATOM      7  C   UNL     1      36.574 -23.416 -15.698  0.00  0.00    -0.058 C 
ATOM      8  C   UNL     1      36.234 -22.832 -16.693  0.00  0.00    -0.031 C 
BRANCH   8  12
ATOM      9  N   UNL     1      34.558 -22.363 -18.261  0.00  0.00    -0.324 NA
ATOM     10  N   UNL     1      34.926 -20.873 -20.119  0.00  0.00    -0.337 NA
ATOM     11  N   UNL     1      32.850 -21.921 -19.807  0.00  0.00    -0.283 N 
ATOM     12  C   UNL     1      35.832 -22.137 -17.876  0.00  0.00    +0.171 C 
ATOM     13  C   UNL     1      36.188 -20.692 -19.676  0.00  0.00    +0.108 C 
ATOM     14  C   UNL     1      36.700 -21.304 -18.550  0.00  0.00    +0.124 C 
ATOM     15  C   UNL     1      37.053 -19.773 -20.472  0.00  0.00    +0.063 C 
ATOM     16  C   UNL     1      34.177 -21.709 -19.374  0.00  0.00    +0.196 C 
ATOM     17  H   UNL     1      32.257 -22.523 -19.301  0.00  0.00    +0.156 HD
ATOM     18  H   UNL     1      32.518 -21.468 -20.615  0.00  0.00    +0.156 HD
ENDBRANCH   8  12
ENDBRANCH   2   7
BRANCH   1  19
ATOM     19  C   UNL     1      34.701 -23.755 -13.490  0.00  0.00    +0.115 C 
BRANCH  19  20
ATOM     20  N   UNL     1      33.700 -24.817 -13.753  0.00  0.00    -0.215 NA
ATOM     21  H   UNL     1      33.808 -25.771 -13.536  0.00  0.00    +0.146 HD
BRANCH  20  24
ATOM     22  O   UNL     1      30.464 -23.650 -14.725  0.00  0.00    -0.404 OA
ATOM     23  O   UNL     1      30.924 -24.900 -12.844  0.00  0.00    -0.224 OA
ATOM     24  N   UNL     1      32.601 -24.257 -14.346  0.00  0.00    -0.163 N 
ATOM     25  C   UNL     1      32.621 -23.548 -15.491  0.00  0.00    +0.129 C 
ATOM     26  C   UNL     1      31.315 -24.337 -13.858  0.00  0.00    +0.427 C 
ATOM     27  C   UNL     1      31.360 -23.198 -15.700  0.00  0.00    +0.202 C 
ENDBRANCH  20  24
ENDBRANCH  19  20
ENDBRANCH   1  19
TORSDOF 5
ENDMDL
