MODEL 1
REMARK VINA RESULT:      -8.2      0.000      0.000
REMARK  Name = 11840989
REMARK  5 active torsions:
REMARK  status: ('A' for Active; 'I' for Inactive)
REMARK    1  A    between atoms: N_1  and  C_6
REMARK    2  A    between atoms: N_1  and  N_11
REMARK    3  A    between atoms: N_4  and  C_7
REMARK    4  A    between atoms: N_5  and  C_8
REMARK    5  A    between atoms: N_11  and  C_14
REMARK                            x       y       z     vdW  Elec       q    Type
REMARK                         _______ _______ _______ _____ _____    ______ ____
ROOT
ATOM      1  N   UNL     1      33.459 -23.323 -18.337  0.00  0.00    -0.120 NA
ENDROOT
BRANCH   1   4
ATOM      2  N   UNL     1      32.207 -23.187 -14.983  0.00  0.00    -0.133 NA
ATOM      3  N   UNL     1      33.443 -23.464 -14.766  0.00  0.00    -0.133 NA
ATOM      4  C   UNL     1      33.210 -23.319 -17.072  0.00  0.00    +0.207 C 
ATOM      5  C   UNL     1      31.967 -23.079 -16.342  0.00  0.00    +0.168 C 
ATOM      6  C   UNL     1      34.129 -23.564 -15.963  0.00  0.00    +0.168 C 
BRANCH   5   7
ATOM      7  N   UNL     1      30.827 -22.811 -16.871  0.00  0.00    -0.249 NA
ATOM      8  H   UNL     1      30.059 -23.406 -16.712  0.00  0.00    +0.171 HD
ENDBRANCH   5   7
BRANCH   6   9
ATOM      9  N   UNL     1      35.381 -23.828 -16.087  0.00  0.00    -0.249 NA
ATOM     10  H   UNL     1      35.972 -23.199 -16.560  0.00  0.00    +0.171 HD
ENDBRANCH   6   9
ENDBRANCH   1   4
BRANCH   1  11
ATOM     11  N   UNL     1      32.921 -22.274 -18.985  0.00  0.00    -0.261 N 
ATOM     12  H   UNL     1      31.943 -22.155 -18.993  0.00  0.00    +0.168 HD
BRANCH  11  14
ATOM     13  F   UNL     1      36.157 -18.624 -21.608  0.00  0.00    -0.204 F 
ATOM     14  C   UNL     1      33.745 -21.345 -19.653  0.00  0.00    +0.060 C 
ATOM     15  C   UNL     1      33.173 -20.320 -20.406  0.00  0.00    +0.018 C 
ATOM     16  C   UNL     1      35.133 -21.450 -19.560  0.00  0.00    +0.018 C 
ATOM     17  C   UNL     1      33.987 -19.401 -21.067  0.00  0.00    +0.031 C 
ATOM     18  C   UNL     1      35.948 -20.531 -20.221  0.00  0.00    +0.031 C 
ATOM     19  C   UNL     1      35.375 -19.506 -20.974  0.00  0.00    +0.140 C 
ENDBRANCH  11  14
ENDBRANCH   1  11
TORSDOF 5
ENDMDL
MODEL 2
REMARK VINA RESULT:      -8.2      0.188      1.916
REMARK  Name = 11840989
REMARK  5 active torsions:
REMARK  status: ('A' for Active; 'I' for Inactive)
REMARK    1  A    between atoms: N_1  and  C_6
REMARK    2  A    between atoms: N_1  and  N_11
REMARK    3  A    between atoms: N_4  and  C_7
REMARK    4  A    between atoms: N_5  and  C_8
REMARK    5  A    between atoms: N_11  and  C_14
REMARK                            x       y       z     vdW  Elec       q    Type
REMARK                         _______ _______ _______ _____ _____    ______ ____
ROOT
ATOM      1  N   UNL     1      33.222 -23.188 -18.353  0.00  0.00    -0.120 NA
ENDROOT
BRANCH   1   4
ATOM      2  N   UNL     1      33.331 -23.454 -14.782  0.00  0.00    -0.133 NA
ATOM      3  N   UNL     1      32.085 -23.199 -14.965  0.00  0.00    -0.133 NA
ATOM      4  C   UNL     1      33.051 -23.243 -17.077  0.00  0.00    +0.207 C 
ATOM      5  C   UNL     1      33.998 -23.501 -15.994  0.00  0.00    +0.168 C 
ATOM      6  C   UNL     1      31.818 -23.055 -16.314  0.00  0.00    +0.168 C 
BRANCH   5   7
ATOM      7  N   UNL     1      35.253 -23.735 -16.137  0.00  0.00    -0.249 NA
ATOM      8  H   UNL     1      35.582 -24.663 -16.153  0.00  0.00    +0.171 HD
ENDBRANCH   5   7
BRANCH   6   9
ATOM      9  N   UNL     1      30.667 -22.798 -16.826  0.00  0.00    -0.249 NA
ATOM     10  H   UNL     1      29.847 -23.045 -16.340  0.00  0.00    +0.171 HD
ENDBRANCH   6   9
ENDBRANCH   1   4
BRANCH   1  11
ATOM     11  N   UNL     1      32.752 -22.054 -18.902  0.00  0.00    -0.261 N 
ATOM     12  H   UNL     1      31.805 -21.811 -18.782  0.00  0.00    +0.168 HD
BRANCH  11  14
ATOM     13  F   UNL     1      36.090 -18.747 -21.834  0.00  0.00    -0.204 F 
ATOM     14  C   UNL     1      33.601 -21.212 -19.649  0.00  0.00    +0.060 C 
ATOM     15  C   UNL     1      33.060 -20.204 -20.445  0.00  0.00    +0.018 C 
ATOM     16  C   UNL     1      34.984 -21.388 -19.590  0.00  0.00    +0.018 C 
ATOM     17  C   UNL     1      33.900 -19.371 -21.184  0.00  0.00    +0.031 C 
ATOM     18  C   UNL     1      35.825 -20.555 -20.328  0.00  0.00    +0.031 C 
ATOM     19  C   UNL     1      35.283 -19.546 -21.125  0.00  0.00    +0.140 C 
ENDBRANCH  11  14
ENDBRANCH   1  11
TORSDOF 5
ENDMDL
MODEL 3
REMARK VINA RESULT:      -8.1      2.880      4.193
REMARK  Name = 11840989
REMARK  5 active torsions:
REMARK  status: ('A' for Active; 'I' for Inactive)
REMARK    1  A    between atoms: N_1  and  C_6
REMARK    2  A    between atoms: N_1  and  N_11
REMARK    3  A    between atoms: N_4  and  C_7
REMARK    4  A    between atoms: N_5  and  C_8
REMARK    5  A    between atoms: N_11  and  C_14
REMARK                            x       y       z     vdW  Elec       q    Type
REMARK                         _______ _______ _______ _____ _____    ______ ____
ROOT
ATOM      1  N   UNL     1      35.621 -20.101 -20.468  0.00  0.00    -0.120 NA
ENDROOT
BRANCH   1   4
ATOM      2  N   UNL     1      33.171 -22.218 -18.936  0.00  0.00    -0.133 NA
ATOM      3  N   UNL     1      34.234 -22.603 -18.326  0.00  0.00    -0.133 NA
ATOM      4  C   UNL     1      34.904 -20.941 -19.803  0.00  0.00    +0.207 C 
ATOM      5  C   UNL     1      33.470 -21.219 -19.847  0.00  0.00    +0.168 C 
ATOM      6  C   UNL     1      35.331 -21.892 -18.779  0.00  0.00    +0.168 C 
BRANCH   5   7
ATOM      7  N   UNL     1      32.616 -20.635 -20.608  0.00  0.00    -0.249 NA
ATOM      8  H   UNL     1      32.384 -19.691 -20.453  0.00  0.00    +0.171 HD
ENDBRANCH   5   7
BRANCH   6   9
ATOM      9  N   UNL     1      36.539 -22.039 -18.367  0.00  0.00    -0.249 NA
ATOM     10  H   UNL     1      36.710 -22.382 -17.459  0.00  0.00    +0.171 HD
ENDBRANCH   6   9
ENDBRANCH   1   4
BRANCH   1  11
ATOM     11  N   UNL     1      35.009 -18.919 -20.661  0.00  0.00    -0.261 N 
ATOM     12  H   UNL     1      34.592 -18.456 -19.899  0.00  0.00    +0.168 HD
BRANCH  11  14
ATOM     13  F   UNL     1      34.817 -16.640 -25.706  0.00  0.00    -0.204 F 
ATOM     14  C   UNL     1      34.961 -18.339 -21.945  0.00  0.00    +0.060 C 
ATOM     15  C   UNL     1      34.804 -19.147 -23.071  0.00  0.00    +0.018 C 
ATOM     16  C   UNL     1      35.069 -16.956 -22.090  0.00  0.00    +0.018 C 
ATOM     17  C   UNL     1      34.756 -18.574 -24.341  0.00  0.00    +0.031 C 
ATOM     18  C   UNL     1      35.020 -16.381 -23.360  0.00  0.00    +0.031 C 
ATOM     19  C   UNL     1      34.864 -17.191 -24.486  0.00  0.00    +0.140 C 
ENDBRANCH  11  14
ENDBRANCH   1  11
TORSDOF 5
ENDMDL
MODEL 4
REMARK VINA RESULT:      -8.1      2.844      4.503
REMARK  Name = 11840989
REMARK  5 active torsions:
REMARK  status: ('A' for Active; 'I' for Inactive)
REMARK    1  A    between atoms: N_1  and  C_6
REMARK    2  A    between atoms: N_1  and  N_11
REMARK    3  A    between atoms: N_4  and  C_7
REMARK    4  A    between atoms: N_5  and  C_8
REMARK    5  A    between atoms: N_11  and  C_14
REMARK                            x       y       z     vdW  Elec       q    Type
REMARK                         _______ _______ _______ _____ _____    ______ ____
ROOT
ATOM      1  N   UNL     1      35.590 -20.173 -20.479  0.00  0.00    -0.120 NA
ENDROOT
BRANCH   1   4
ATOM      2  N   UNL     1      34.223 -22.606 -18.233  0.00  0.00    -0.133 NA
ATOM      3  N   UNL     1      33.166 -22.244 -18.866  0.00  0.00    -0.133 NA
ATOM      4  C   UNL     1      34.910 -21.003 -19.764  0.00  0.00    +0.207 C 
ATOM      5  C   UNL     1      35.328 -21.915 -18.701  0.00  0.00    +0.168 C 
ATOM      6  C   UNL     1      33.476 -21.282 -19.809  0.00  0.00    +0.168 C 
BRANCH   5   7
ATOM      7  N   UNL     1      36.527 -22.058 -18.265  0.00  0.00    -0.249 NA
ATOM      8  H   UNL     1      37.274 -21.607 -18.721  0.00  0.00    +0.171 HD
ENDBRANCH   5   7
BRANCH   6   9
ATOM      9  N   UNL     1      32.640 -20.718 -20.606  0.00  0.00    -0.249 NA
ATOM     10  H   UNL     1      32.001 -20.055 -20.258  0.00  0.00    +0.171 HD
ENDBRANCH   6   9
ENDBRANCH   1   4
BRANCH   1  11
ATOM     11  N   UNL     1      34.968 -18.994 -20.656  0.00  0.00    -0.261 N 
ATOM     12  H   UNL     1      34.526 -18.556 -19.892  0.00  0.00    +0.168 HD
BRANCH  11  14
ATOM     13  F   UNL     1      34.868 -16.581 -25.641  0.00  0.00    -0.204 F 
ATOM     14  C   UNL     1      34.942 -18.380 -21.925  0.00  0.00    +0.060 C 
ATOM     15  C   UNL     1      35.068 -16.995 -22.033  0.00  0.00    +0.018 C 
ATOM     16  C   UNL     1      34.791 -19.157 -23.073  0.00  0.00    +0.018 C 
ATOM     17  C   UNL     1      35.043 -16.387 -23.288  0.00  0.00    +0.031 C 
ATOM     18  C   UNL     1      34.766 -18.550 -24.329  0.00  0.00    +0.031 C 
ATOM     19  C   UNL     1      34.892 -17.165 -24.436  0.00  0.00    +0.140 C 
ENDBRANCH  11  14
ENDBRANCH   1  11
TORSDOF 5
ENDMDL
MODEL 5
REMARK VINA RESULT:      -8.0      5.079      7.606
REMARK  Name = 11840989
REMARK  5 active torsions:
REMARK  status: ('A' for Active; 'I' for Inactive)
REMARK    1  A    between atoms: N_1  and  C_6
REMARK    2  A    between atoms: N_1  and  N_11
REMARK    3  A    between atoms: N_4  and  C_7
REMARK    4  A    between atoms: N_5  and  C_8
REMARK    5  A    between atoms: N_11  and  C_14
REMARK                            x       y       z     vdW  Elec       q    Type
REMARK                         _______ _______ _______ _____ _____    ______ ____
ROOT
ATOM      1  N   UNL     1      35.550 -17.748 -21.812  0.00  0.00    -0.120 NA
ENDROOT
BRANCH   1   4
ATOM      2  N   UNL     1      34.440 -14.851 -23.603  0.00  0.00    -0.133 NA
ATOM      3  N   UNL     1      34.332 -14.439 -22.391  0.00  0.00    -0.133 NA
ATOM      4  C   UNL     1      35.126 -16.617 -22.262  0.00  0.00    +0.207 C 
ATOM      5  C   UNL     1      34.910 -16.153 -23.632  0.00  0.00    +0.168 C 
ATOM      6  C   UNL     1      34.722 -15.431 -21.510  0.00  0.00    +0.168 C 
BRANCH   5   7
ATOM      7  N   UNL     1      35.120 -16.838 -24.697  0.00  0.00    -0.249 NA
ATOM      8  H   UNL     1      35.111 -16.396 -25.577  0.00  0.00    +0.171 HD
ENDBRANCH   5   7
BRANCH   6   9
ATOM      9  N   UNL     1      34.732 -15.332 -20.229  0.00  0.00    -0.249 NA
ATOM     10  H   UNL     1      34.685 -16.143 -19.673  0.00  0.00    +0.171 HD
ENDBRANCH   6   9
ENDBRANCH   1   4
BRANCH   1  11
ATOM     11  N   UNL     1      34.666 -18.749 -21.978  0.00  0.00    -0.261 N 
ATOM     12  H   UNL     1      34.083 -18.757 -22.771  0.00  0.00    +0.168 HD
BRANCH  11  14
ATOM     13  F   UNL     1      34.283 -22.815 -18.237  0.00  0.00    -0.204 F 
ATOM     14  C   UNL     1      34.568 -19.784 -21.025  0.00  0.00    +0.060 C 
ATOM     15  C   UNL     1      35.723 -20.397 -20.541  0.00  0.00    +0.018 C 
ATOM     16  C   UNL     1      33.317 -20.194 -20.567  0.00  0.00    +0.018 C 
ATOM     17  C   UNL     1      35.627 -21.421 -19.599  0.00  0.00    +0.031 C 
ATOM     18  C   UNL     1      33.220 -21.218 -19.625  0.00  0.00    +0.031 C 
ATOM     19  C   UNL     1      34.376 -21.832 -19.141  0.00  0.00    +0.140 C 
ENDBRANCH  11  14
ENDBRANCH   1  11
TORSDOF 5
ENDMDL
MODEL 6
REMARK VINA RESULT:      -8.0      4.285      6.001
REMARK  Name = 11840989
REMARK  5 active torsions:
REMARK  status: ('A' for Active; 'I' for Inactive)
REMARK    1  A    between atoms: N_1  and  C_6
REMARK    2  A    between atoms: N_1  and  N_11
REMARK    3  A    between atoms: N_4  and  C_7
REMARK    4  A    between atoms: N_5  and  C_8
REMARK    5  A    between atoms: N_11  and  C_14
REMARK                            x       y       z     vdW  Elec       q    Type
REMARK                         _______ _______ _______ _____ _____    ______ ____
ROOT
ATOM      1  N   UNL     1      35.983 -24.409 -15.568  0.00  0.00    -0.120 NA
ENDROOT
BRANCH   1   4
ATOM      2  N   UNL     1      38.231 -26.952 -14.421  0.00  0.00    -0.133 NA
ATOM      3  N   UNL     1      38.536 -25.988 -13.629  0.00  0.00    -0.133 NA
ATOM      4  C   UNL     1      36.857 -25.177 -15.013  0.00  0.00    +0.207 C 
ATOM      5  C   UNL     1      37.229 -26.563 -15.293  0.00  0.00    +0.168 C 
ATOM      6  C   UNL     1      37.763 -24.875 -13.907  0.00  0.00    +0.168 C 
BRANCH   5   7
ATOM      7  N   UNL     1      36.713 -27.308 -16.203  0.00  0.00    -0.249 NA
ATOM      8  H   UNL     1      36.608 -28.274 -16.048  0.00  0.00    +0.171 HD
ENDBRANCH   5   7
BRANCH   6   9
ATOM      9  N   UNL     1      37.825 -23.749 -13.291  0.00  0.00    -0.249 NA
ATOM     10  H   UNL     1      38.696 -23.395 -13.000  0.00  0.00    +0.171 HD
ENDBRANCH   6   9
ENDBRANCH   1   4
BRANCH   1  11
ATOM     11  N   UNL     1      34.989 -24.051 -14.736  0.00  0.00    -0.261 N 
ATOM     12  H   UNL     1      35.140 -24.064 -13.762  0.00  0.00    +0.168 HD
BRANCH  11  14
ATOM     13  F   UNL     1      30.059 -22.510 -16.734  0.00  0.00    -0.204 F 
ATOM     14  C   UNL     1      33.734 -23.659 -15.245  0.00  0.00    +0.060 C 
ATOM     15  C   UNL     1      32.644 -23.523 -14.385  0.00  0.00    +0.018 C 
ATOM     16  C   UNL     1      33.582 -23.406 -16.608  0.00  0.00    +0.018 C 
ATOM     17  C   UNL     1      31.403 -23.135 -14.888  0.00  0.00    +0.031 C 
ATOM     18  C   UNL     1      32.341 -23.018 -17.112  0.00  0.00    +0.031 C 
ATOM     19  C   UNL     1      31.251 -22.882 -16.251  0.00  0.00    +0.140 C 
ENDBRANCH  11  14
ENDBRANCH   1  11
TORSDOF 5
ENDMDL
MODEL 7
REMARK VINA RESULT:      -8.0      4.951      7.493
REMARK  Name = 11840989
REMARK  5 active torsions:
REMARK  status: ('A' for Active; 'I' for Inactive)
REMARK    1  A    between atoms: N_1  and  C_6
REMARK    2  A    between atoms: N_1  and  N_11
REMARK    3  A    between atoms: N_4  and  C_7
REMARK    4  A    between atoms: N_5  and  C_8
REMARK    5  A    between atoms: N_11  and  C_14
REMARK                            x       y       z     vdW  Elec       q    Type
REMARK                         _______ _______ _______ _____ _____    ______ ____
ROOT
ATOM      1  N   UNL     1      34.782 -18.695 -22.770  0.00  0.00    -0.120 NA
ENDROOT
BRANCH   1   4
ATOM      2  N   UNL     1      34.798 -15.113 -22.838  0.00  0.00    -0.133 NA
ATOM      3  N   UNL     1      34.694 -15.375 -24.091  0.00  0.00    -0.133 NA
ATOM      4  C   UNL     1      34.769 -17.428 -23.007  0.00  0.00    +0.207 C 
ATOM      5  C   UNL     1      34.851 -16.284 -22.101  0.00  0.00    +0.168 C 
ATOM      6  C   UNL     1      34.668 -16.743 -24.294  0.00  0.00    +0.168 C 
BRANCH   5   7
ATOM      7  N   UNL     1      34.957 -16.347 -20.822  0.00  0.00    -0.249 NA
ATOM      8  H   UNL     1      34.630 -15.605 -20.264  0.00  0.00    +0.171 HD
ENDBRANCH   5   7
BRANCH   6   9
ATOM      9  N   UNL     1      34.569 -17.328 -25.434  0.00  0.00    -0.249 NA
ATOM     10  H   UNL     1      33.762 -17.198 -25.984  0.00  0.00    +0.171 HD
ENDBRANCH   6   9
ENDBRANCH   1   4
BRANCH   1  11
ATOM     11  N   UNL     1      35.572 -19.032 -21.735  0.00  0.00    -0.261 N 
ATOM     12  H   UNL     1      36.443 -18.587 -21.622  0.00  0.00    +0.168 HD
BRANCH  11  14
ATOM     13  F   UNL     1      33.965 -22.898 -18.108  0.00  0.00    -0.204 F 
ATOM     14  C   UNL     1      35.163 -20.016 -20.812  0.00  0.00    +0.060 C 
ATOM     15  C   UNL     1      33.805 -20.230 -20.576  0.00  0.00    +0.018 C 
ATOM     16  C   UNL     1      36.116 -20.775 -20.134  0.00  0.00    +0.018 C 
ATOM     17  C   UNL     1      33.400 -21.204 -19.663  0.00  0.00    +0.031 C 
ATOM     18  C   UNL     1      35.712 -21.749 -19.221  0.00  0.00    +0.031 C 
ATOM     19  C   UNL     1      34.354 -21.963 -18.985  0.00  0.00    +0.140 C 
ENDBRANCH  11  14
ENDBRANCH   1  11
TORSDOF 5
ENDMDL
MODEL 8
REMARK VINA RESULT:      -7.9      5.827      7.185
REMARK  Name = 11840989
REMARK  5 active torsions:
REMARK  status: ('A' for Active; 'I' for Inactive)
REMARK    1  A    between atoms: N_1  and  C_6
REMARK    2  A    between atoms: N_1  and  N_11
REMARK    3  A    between atoms: N_4  and  C_7
REMARK    4  A    between atoms: N_5  and  C_8
REMARK    5  A    between atoms: N_11  and  C_14
REMARK                            x       y       z     vdW  Elec       q    Type
REMARK                         _______ _______ _______ _____ _____    ______ ____
ROOT
ATOM      1  N   UNL     1      34.273 -24.473 -12.768  0.00  0.00    -0.120 NA
ENDROOT
BRANCH   1   4
ATOM      2  N   UNL     1      37.170 -23.588 -10.855  0.00  0.00    -0.133 NA
ATOM      3  N   UNL     1      37.501 -23.139 -12.012  0.00  0.00    -0.133 NA
ATOM      4  C   UNL     1      35.389 -24.072 -12.264  0.00  0.00    +0.207 C 
ATOM      5  C   UNL     1      35.914 -24.169 -10.903  0.00  0.00    +0.168 C 
ATOM      6  C   UNL     1      36.494 -23.382 -12.928  0.00  0.00    +0.168 C 
BRANCH   5   7
ATOM      7  N   UNL     1      35.312 -24.708  -9.904  0.00  0.00    -0.249 NA
ATOM      8  H   UNL     1      34.557 -25.322 -10.058  0.00  0.00    +0.171 HD
ENDBRANCH   5   7
BRANCH   6   9
ATOM      9  N   UNL     1      36.517 -23.054 -14.170  0.00  0.00    -0.249 NA
ATOM     10  H   UNL     1      36.980 -22.232 -14.453  0.00  0.00    +0.171 HD
ENDBRANCH   6   9
ENDBRANCH   1   4
BRANCH   1  11
ATOM     11  N   UNL     1      33.581 -23.490 -13.371  0.00  0.00    -0.261 N 
ATOM     12  H   UNL     1      33.977 -22.591 -13.447  0.00  0.00    +0.168 HD
BRANCH  11  14
ATOM     13  F   UNL     1      28.529 -24.454 -15.426  0.00  0.00    -0.204 F 
ATOM     14  C   UNL     1      32.295 -23.735 -13.894  0.00  0.00    +0.060 C 
ATOM     15  C   UNL     1      31.751 -25.018 -13.835  0.00  0.00    +0.018 C 
ATOM     16  C   UNL     1      31.567 -22.695 -14.472  0.00  0.00    +0.018 C 
ATOM     17  C   UNL     1      30.478 -25.261 -14.352  0.00  0.00    +0.031 C 
ATOM     18  C   UNL     1      30.294 -22.937 -14.989  0.00  0.00    +0.031 C 
ATOM     19  C   UNL     1      29.750 -24.221 -14.929  0.00  0.00    +0.140 C 
ENDBRANCH  11  14
ENDBRANCH   1  11
TORSDOF 5
ENDMDL
MODEL 9
REMARK VINA RESULT:      -7.9      5.818      7.175
REMARK  Name = 11840989
REMARK  5 active torsions:
REMARK  status: ('A' for Active; 'I' for Inactive)
REMARK    1  A    between atoms: N_1  and  C_6
REMARK    2  A    between atoms: N_1  and  N_11
REMARK    3  A    between atoms: N_4  and  C_7
REMARK    4  A    between atoms: N_5  and  C_8
REMARK    5  A    between atoms: N_11  and  C_14
REMARK                            x       y       z     vdW  Elec       q    Type
REMARK                         _______ _______ _______ _____ _____    ______ ____
ROOT
ATOM      1  N   UNL     1      34.274 -24.469 -12.761  0.00  0.00    -0.120 NA
ENDROOT
BRANCH   1   4
ATOM      2  N   UNL     1      37.581 -23.239 -12.143  0.00  0.00    -0.133 NA
ATOM      3  N   UNL     1      37.265 -23.673 -10.976  0.00  0.00    -0.133 NA
ATOM      4  C   UNL     1      35.431 -24.093 -12.337  0.00  0.00    +0.207 C 
ATOM      5  C   UNL     1      36.542 -23.447 -13.034  0.00  0.00    +0.168 C 
ATOM      6  C   UNL     1      35.989 -24.205 -10.990  0.00  0.00    +0.168 C 
BRANCH   5   7
ATOM      7  N   UNL     1      36.558 -23.119 -14.275  0.00  0.00    -0.249 NA
ATOM      8  H   UNL     1      35.714 -23.054 -14.778  0.00  0.00    +0.171 HD
ENDBRANCH   5   7
BRANCH   6   9
ATOM      9  N   UNL     1      35.383 -24.722  -9.982  0.00  0.00    -0.249 NA
ATOM     10  H   UNL     1      34.584 -25.281 -10.123  0.00  0.00    +0.171 HD
ENDBRANCH   6   9
ENDBRANCH   1   4
BRANCH   1  11
ATOM     11  N   UNL     1      33.595 -23.491 -13.385  0.00  0.00    -0.261 N 
ATOM     12  H   UNL     1      34.002 -22.599 -13.481  0.00  0.00    +0.168 HD
BRANCH  11  14
ATOM     13  F   UNL     1      28.529 -24.432 -15.417  0.00  0.00    -0.204 F 
ATOM     14  C   UNL     1      32.305 -23.730 -13.902  0.00  0.00    +0.060 C 
ATOM     15  C   UNL     1      31.757 -25.011 -13.843  0.00  0.00    +0.018 C 
ATOM     16  C   UNL     1      31.578 -22.686 -14.473  0.00  0.00    +0.018 C 
ATOM     17  C   UNL     1      30.481 -25.248 -14.355  0.00  0.00    +0.031 C 
ATOM     18  C   UNL     1      30.302 -22.923 -14.985  0.00  0.00    +0.031 C 
ATOM     19  C   UNL     1      29.754 -24.204 -14.926  0.00  0.00    +0.140 C 
ENDBRANCH  11  14
ENDBRANCH   1  11
TORSDOF 5
ENDMDL
