MODEL 1
REMARK VINA RESULT:     -11.3      0.000      0.000
REMARK  Name = 2742752
REMARK  5 active torsions:
REMARK  status: ('A' for Active; 'I' for Inactive)
REMARK    1  A    between atoms: N_1  and  C_7
REMARK    2  A    between atoms: C_3  and  N_18
REMARK    3  A    between atoms: C_5  and  C_14
REMARK    4  A    between atoms: N_18  and  S_20
REMARK    5  A    between atoms: S_20  and  C_24
REMARK                            x       y       z     vdW  Elec       q    Type
REMARK                         _______ _______ _______ _____ _____    ______ ____
ROOT
ATOM      1  N   UNL     1      32.430 -23.584 -15.452  0.00  0.00    -0.175 N 
ATOM      2  N   UNL     1      32.986 -24.098 -14.333  0.00  0.00    -0.172 NA
ATOM      3  C   UNL     1      33.357 -23.246 -16.404  0.00  0.00    +0.141 C 
ATOM      4  C   UNL     1      34.585 -23.559 -15.873  0.00  0.00    +0.054 C 
ATOM      5  C   UNL     1      34.295 -24.079 -14.598  0.00  0.00    +0.108 C 
ENDROOT
BRANCH   1   7
ATOM      6  F   UNL     1      26.962 -23.027 -15.854  0.00  0.00    -0.204 F 
ATOM      7  C   UNL     1      31.059 -23.444 -15.553  0.00  0.00    +0.075 C 
ATOM      8  C   UNL     1      30.436 -22.298 -15.058  0.00  0.00    +0.019 C 
ATOM      9  C   UNL     1      30.298 -24.449 -16.150  0.00  0.00    +0.019 C 
ATOM     10  C   UNL     1      29.052 -22.158 -15.159  0.00  0.00    +0.031 C 
ATOM     11  C   UNL     1      28.914 -24.309 -16.251  0.00  0.00    +0.031 C 
ATOM     12  C   UNL     1      28.291 -23.163 -15.755  0.00  0.00    +0.140 C 
ENDBRANCH   1   7
BRANCH   5  14
ATOM     13  S   UNL     1      36.670 -25.485 -14.054  0.00  0.00    -0.085 S 
ATOM     14  C   UNL     1      35.291 -24.564 -13.624  0.00  0.00    +0.049 C 
ATOM     15  C   UNL     1      35.227 -24.335 -12.266  0.00  0.00    +0.009 C 
ATOM     16  C   UNL     1      36.324 -24.922 -11.572  0.00  0.00    +0.008 C 
ATOM     17  C   UNL     1      37.185 -25.578 -12.424  0.00  0.00    +0.035 C 
ENDBRANCH   5  14
BRANCH   3  18
ATOM     18  N   UNL     1      33.105 -22.673 -17.712  0.00  0.00    -0.201 N 
ATOM     19  H   UNL     1      32.242 -22.261 -17.942  0.00  0.00    +0.175 HD
BRANCH  18  20
ATOM     20  S   UNL     1      34.410 -22.757 -18.841  0.00  0.00    +0.075 S 
ATOM     21  O   UNL     1      34.186 -23.865 -19.751  0.00  0.00    -0.150 OA
ATOM     22  O   UNL     1      35.672 -22.625 -18.140  0.00  0.00    -0.150 OA
BRANCH  20  24
ATOM     23  F   UNL     1      36.138 -18.777 -21.505  0.00  0.00    -0.204 F 
ATOM     24  C   UNL     1      34.171 -21.259 -19.753  0.00  0.00    +0.127 C 
ATOM     25  C   UNL     1      35.272 -20.604 -20.274  0.00  0.00    +0.050 C 
ATOM     26  C   UNL     1      32.888 -20.775 -19.928  0.00  0.00    +0.020 C 
ATOM     27  C   UNL     1      35.084 -19.426 -20.994  0.00  0.00    +0.141 C 
ATOM     28  C   UNL     1      32.698 -19.596 -20.648  0.00  0.00    +0.004 C 
ATOM     29  C   UNL     1      33.796 -18.921 -21.181  0.00  0.00    +0.030 C 
ENDBRANCH  20  24
ENDBRANCH  18  20
ENDBRANCH   3  18
TORSDOF 5
ENDMDL
MODEL 2
REMARK VINA RESULT:     -11.0      3.296      7.302
REMARK  Name = 2742752
REMARK  5 active torsions:
REMARK  status: ('A' for Active; 'I' for Inactive)
REMARK    1  A    between atoms: N_1  and  C_7
REMARK    2  A    between atoms: C_3  and  N_18
REMARK    3  A    between atoms: C_5  and  C_14
REMARK    4  A    between atoms: N_18  and  S_20
REMARK    5  A    between atoms: S_20  and  C_24
REMARK                            x       y       z     vdW  Elec       q    Type
REMARK                         _______ _______ _______ _____ _____    ______ ____
ROOT
ATOM      1  N   UNL     1      34.669 -23.861 -15.880  0.00  0.00    -0.175 N 
ATOM      2  N   UNL     1      35.216 -23.074 -16.831  0.00  0.00    -0.172 NA
ATOM      3  C   UNL     1      33.311 -23.999 -16.014  0.00  0.00    +0.141 C 
ATOM      4  C   UNL     1      32.957 -23.259 -17.116  0.00  0.00    +0.054 C 
ATOM      5  C   UNL     1      34.169 -22.713 -17.578  0.00  0.00    +0.108 C 
ENDROOT
BRANCH   1   7
ATOM      6  F   UNL     1      37.825 -26.149 -11.984  0.00  0.00    -0.204 F 
ATOM      7  C   UNL     1      35.461 -24.435 -14.903  0.00  0.00    +0.075 C 
ATOM      8  C   UNL     1      36.128 -25.633 -15.160  0.00  0.00    +0.019 C 
ATOM      9  C   UNL     1      35.593 -23.816 -13.660  0.00  0.00    +0.019 C 
ATOM     10  C   UNL     1      36.925 -26.213 -14.174  0.00  0.00    +0.031 C 
ATOM     11  C   UNL     1      36.391 -24.395 -12.673  0.00  0.00    +0.031 C 
ATOM     12  C   UNL     1      37.057 -25.594 -12.931  0.00  0.00    +0.140 C 
ENDBRANCH   1   7
BRANCH   5  14
ATOM     13  S   UNL     1      35.834 -21.400 -19.426  0.00  0.00    -0.085 S 
ATOM     14  C   UNL     1      34.320 -21.834 -18.752  0.00  0.00    +0.049 C 
ATOM     15  C   UNL     1      33.268 -21.263 -19.437  0.00  0.00    +0.009 C 
ATOM     16  C   UNL     1      33.711 -20.461 -20.528  0.00  0.00    +0.008 C 
ATOM     17  C   UNL     1      35.085 -20.449 -20.637  0.00  0.00    +0.035 C 
ENDBRANCH   5  14
BRANCH   3  18
ATOM     18  N   UNL     1      32.418 -24.769 -15.170  0.00  0.00    -0.201 N 
ATOM     19  H   UNL     1      32.357 -25.749 -15.233  0.00  0.00    +0.175 HD
BRANCH  18  20
ATOM     20  S   UNL     1      31.467 -23.863 -14.047  0.00  0.00    +0.075 S 
ATOM     21  O   UNL     1      32.119 -22.595 -13.779  0.00  0.00    -0.150 OA
ATOM     22  O   UNL     1      31.052 -24.721 -12.954  0.00  0.00    -0.150 OA
BRANCH  20  24
ATOM     23  F   UNL     1      27.909 -25.185 -17.440  0.00  0.00    -0.204 F 
ATOM     24  C   UNL     1      30.023 -23.529 -15.013  0.00  0.00    +0.127 C 
ATOM     25  C   UNL     1      29.535 -24.510 -15.858  0.00  0.00    +0.050 C 
ATOM     26  C   UNL     1      29.409 -22.294 -14.903  0.00  0.00    +0.020 C 
ATOM     27  C   UNL     1      28.395 -24.248 -16.617  0.00  0.00    +0.141 C 
ATOM     28  C   UNL     1      28.269 -22.031 -15.663  0.00  0.00    +0.004 C 
ATOM     29  C   UNL     1      27.762 -23.008 -16.519  0.00  0.00    +0.030 C 
ENDBRANCH  20  24
ENDBRANCH  18  20
ENDBRANCH   3  18
TORSDOF 5
ENDMDL
MODEL 3
REMARK VINA RESULT:     -10.7      3.057      7.072
REMARK  Name = 2742752
REMARK  5 active torsions:
REMARK  status: ('A' for Active; 'I' for Inactive)
REMARK    1  A    between atoms: N_1  and  C_7
REMARK    2  A    between atoms: C_3  and  N_18
REMARK    3  A    between atoms: C_5  and  C_14
REMARK    4  A    between atoms: N_18  and  S_20
REMARK    5  A    between atoms: S_20  and  C_24
REMARK                            x       y       z     vdW  Elec       q    Type
REMARK                         _______ _______ _______ _____ _____    ______ ____
ROOT
ATOM      1  N   UNL     1      33.345 -22.256 -18.124  0.00  0.00    -0.175 N 
ATOM      2  N   UNL     1      32.019 -22.355 -17.893  0.00  0.00    -0.172 NA
ATOM      3  C   UNL     1      34.099 -22.986 -17.240  0.00  0.00    +0.141 C 
ATOM      4  C   UNL     1      33.209 -23.594 -16.387  0.00  0.00    +0.054 C 
ATOM      5  C   UNL     1      31.945 -23.170 -16.837  0.00  0.00    +0.108 C 
ENDROOT
BRANCH   1   7
ATOM      6  F   UNL     1      35.240 -19.158 -22.269  0.00  0.00    -0.204 F 
ATOM      7  C   UNL     1      33.821 -21.480 -19.164  0.00  0.00    +0.075 C 
ATOM      8  C   UNL     1      35.182 -21.480 -19.470  0.00  0.00    +0.019 C 
ATOM      9  C   UNL     1      32.939 -20.695 -19.907  0.00  0.00    +0.019 C 
ATOM     10  C   UNL     1      35.661 -20.695 -20.518  0.00  0.00    +0.031 C 
ATOM     11  C   UNL     1      33.418 -19.910 -20.956  0.00  0.00    +0.031 C 
ATOM     12  C   UNL     1      34.780 -19.910 -21.261  0.00  0.00    +0.140 C 
ENDBRANCH   1   7
BRANCH   5  14
ATOM     13  S   UNL     1      30.449 -24.893 -15.193  0.00  0.00    -0.085 S 
ATOM     14  C   UNL     1      30.652 -23.554 -16.242  0.00  0.00    +0.049 C 
ATOM     15  C   UNL     1      29.465 -22.886 -16.460  0.00  0.00    +0.009 C 
ATOM     16  C   UNL     1      28.378 -23.481 -15.757  0.00  0.00    +0.008 C 
ATOM     17  C   UNL     1      28.773 -24.581 -15.028  0.00  0.00    +0.035 C 
ENDBRANCH   5  14
BRANCH   3  18
ATOM     18  N   UNL     1      35.544 -23.101 -17.203  0.00  0.00    -0.201 N 
ATOM     19  H   UNL     1      36.061 -23.417 -17.978  0.00  0.00    +0.175 HD
BRANCH  18  20
ATOM     20  S   UNL     1      36.303 -22.650 -15.717  0.00  0.00    +0.075 S 
ATOM     21  O   UNL     1      35.284 -22.313 -14.741  0.00  0.00    -0.150 OA
ATOM     22  O   UNL     1      37.395 -21.734 -15.986  0.00  0.00    -0.150 OA
BRANCH  20  24
ATOM     23  F   UNL     1      40.282 -25.525 -14.370  0.00  0.00    -0.204 F 
ATOM     24  C   UNL     1      37.031 -24.186 -15.225  0.00  0.00    +0.127 C 
ATOM     25  C   UNL     1      38.393 -24.242 -14.991  0.00  0.00    +0.050 C 
ATOM     26  C   UNL     1      36.222 -25.299 -15.082  0.00  0.00    +0.020 C 
ATOM     27  C   UNL     1      38.965 -25.451 -14.600  0.00  0.00    +0.141 C 
ATOM     28  C   UNL     1      36.795 -26.509 -14.692  0.00  0.00    +0.004 C 
ATOM     29  C   UNL     1      38.166 -26.586 -14.450  0.00  0.00    +0.030 C 
ENDBRANCH  20  24
ENDBRANCH  18  20
ENDBRANCH   3  18
TORSDOF 5
ENDMDL
MODEL 4
REMARK VINA RESULT:     -10.6      2.491      6.026
REMARK  Name = 2742752
REMARK  5 active torsions:
REMARK  status: ('A' for Active; 'I' for Inactive)
REMARK    1  A    between atoms: N_1  and  C_7
REMARK    2  A    between atoms: C_3  and  N_18
REMARK    3  A    between atoms: C_5  and  C_14
REMARK    4  A    between atoms: N_18  and  S_20
REMARK    5  A    between atoms: S_20  and  C_24
REMARK                            x       y       z     vdW  Elec       q    Type
REMARK                         _______ _______ _______ _____ _____    ______ ____
ROOT
ATOM      1  N   UNL     1      35.102 -23.178 -16.626  0.00  0.00    -0.175 N 
ATOM      2  N   UNL     1      36.333 -23.473 -16.157  0.00  0.00    -0.172 NA
ATOM      3  C   UNL     1      34.095 -23.685 -15.846  0.00  0.00    +0.141 C 
ATOM      4  C   UNL     1      34.709 -24.347 -14.810  0.00  0.00    +0.054 C 
ATOM      5  C   UNL     1      36.085 -24.184 -15.053  0.00  0.00    +0.108 C 
ENDROOT
BRANCH   1   7
ATOM      6  F   UNL     1      34.498 -20.215 -21.234  0.00  0.00    -0.204 F 
ATOM      7  C   UNL     1      34.951 -22.435 -17.783  0.00  0.00    +0.075 C 
ATOM      8  C   UNL     1      36.048 -21.778 -18.338  0.00  0.00    +0.019 C 
ATOM      9  C   UNL     1      33.700 -22.343 -18.393  0.00  0.00    +0.019 C 
ATOM     10  C   UNL     1      35.895 -21.027 -19.503  0.00  0.00    +0.031 C 
ATOM     11  C   UNL     1      33.546 -21.593 -19.559  0.00  0.00    +0.031 C 
ATOM     12  C   UNL     1      34.645 -20.934 -20.114  0.00  0.00    +0.140 C 
ENDBRANCH   1   7
BRANCH   5  14
ATOM     13  S   UNL     1      36.980 -25.138 -12.564  0.00  0.00    -0.085 S 
ATOM     14  C   UNL     1      37.173 -24.717 -14.213  0.00  0.00    +0.049 C 
ATOM     15  C   UNL     1      38.461 -24.937 -14.655  0.00  0.00    +0.009 C 
ATOM     16  C   UNL     1      39.298 -25.457 -13.626  0.00  0.00    +0.008 C 
ATOM     17  C   UNL     1      38.620 -25.616 -12.437  0.00  0.00    +0.035 C 
ENDBRANCH   5  14
BRANCH   3  18
ATOM     18  N   UNL     1      32.667 -23.555 -16.059  0.00  0.00    -0.201 N 
ATOM     19  H   UNL     1      32.292 -23.297 -16.931  0.00  0.00    +0.175 HD
BRANCH  18  20
ATOM     20  S   UNL     1      31.663 -23.880 -14.691  0.00  0.00    +0.075 S 
ATOM     21  O   UNL     1      31.943 -22.910 -13.649  0.00  0.00    -0.150 OA
ATOM     22  O   UNL     1      31.682 -25.301 -14.398  0.00  0.00    -0.150 OA
BRANCH  20  24
ATOM     23  F   UNL     1      27.641 -24.948 -17.625  0.00  0.00    -0.204 F 
ATOM     24  C   UNL     1      30.061 -23.514 -15.347  0.00  0.00    +0.127 C 
ATOM     25  C   UNL     1      29.481 -24.395 -16.242  0.00  0.00    +0.050 C 
ATOM     26  C   UNL     1      29.419 -22.355 -14.950  0.00  0.00    +0.020 C 
ATOM     27  C   UNL     1      28.218 -24.108 -16.756  0.00  0.00    +0.141 C 
ATOM     28  C   UNL     1      28.155 -22.067 -15.465  0.00  0.00    +0.004 C 
ATOM     29  C   UNL     1      27.555 -22.943 -16.368  0.00  0.00    +0.030 C 
ENDBRANCH  20  24
ENDBRANCH  18  20
ENDBRANCH   3  18
TORSDOF 5
ENDMDL
MODEL 5
REMARK VINA RESULT:     -10.2      2.891      5.476
REMARK  Name = 2742752
REMARK  5 active torsions:
REMARK  status: ('A' for Active; 'I' for Inactive)
REMARK    1  A    between atoms: N_1  and  C_7
REMARK    2  A    between atoms: C_3  and  N_18
REMARK    3  A    between atoms: C_5  and  C_14
REMARK    4  A    between atoms: N_18  and  S_20
REMARK    5  A    between atoms: S_20  and  C_24
REMARK                            x       y       z     vdW  Elec       q    Type
REMARK                         _______ _______ _______ _____ _____    ______ ____
ROOT
ATOM      1  N   UNL     1      34.154 -23.819 -15.703  0.00  0.00    -0.175 N 
ATOM      2  N   UNL     1      33.085 -24.270 -15.011  0.00  0.00    -0.172 NA
ATOM      3  C   UNL     1      33.807 -23.131 -16.836  0.00  0.00    +0.141 C 
ATOM      4  C   UNL     1      32.434 -23.134 -16.884  0.00  0.00    +0.054 C 
ATOM      5  C   UNL     1      32.044 -23.849 -15.735  0.00  0.00    +0.108 C 
ENDROOT
BRANCH   1   7
ATOM      6  F   UNL     1      39.269 -24.805 -13.903  0.00  0.00    -0.204 F 
ATOM      7  C   UNL     1      35.437 -24.066 -15.251  0.00  0.00    +0.075 C 
ATOM      8  C   UNL     1      36.256 -23.006 -14.864  0.00  0.00    +0.019 C 
ATOM      9  C   UNL     1      35.911 -25.376 -15.182  0.00  0.00    +0.019 C 
ATOM     10  C   UNL     1      37.551 -23.255 -14.411  0.00  0.00    +0.031 C 
ATOM     11  C   UNL     1      37.206 -25.626 -14.727  0.00  0.00    +0.031 C 
ATOM     12  C   UNL     1      38.026 -24.565 -14.342  0.00  0.00    +0.140 C 
ENDBRANCH   1   7
BRANCH   5  14
ATOM     13  S   UNL     1      29.360 -23.028 -15.553  0.00  0.00    -0.085 S 
ATOM     14  C   UNL     1      30.654 -24.129 -15.332  0.00  0.00    +0.049 C 
ATOM     15  C   UNL     1      30.238 -25.300 -14.734  0.00  0.00    +0.009 C 
ATOM     16  C   UNL     1      28.841 -25.292 -14.456  0.00  0.00    +0.008 C 
ATOM     17  C   UNL     1      28.240 -24.116 -14.850  0.00  0.00    +0.035 C 
ENDBRANCH   5  14
BRANCH   3  18
ATOM     18  N   UNL     1      34.700 -22.517 -17.800  0.00  0.00    -0.201 N 
ATOM     19  H   UNL     1      35.590 -22.182 -17.546  0.00  0.00    +0.175 HD
BRANCH  18  20
ATOM     20  S   UNL     1      34.109 -22.407 -19.420  0.00  0.00    +0.075 S 
ATOM     21  O   UNL     1      32.717 -21.998 -19.396  0.00  0.00    -0.150 OA
ATOM     22  O   UNL     1      34.517 -23.580 -20.169  0.00  0.00    -0.150 OA
BRANCH  20  24
ATOM     23  F   UNL     1      34.551 -17.958 -21.854  0.00  0.00    -0.204 F 
ATOM     24  C   UNL     1      35.057 -21.047 -20.039  0.00  0.00    +0.127 C 
ATOM     25  C   UNL     1      34.412 -20.027 -20.713  0.00  0.00    +0.050 C 
ATOM     26  C   UNL     1      36.425 -21.032 -19.834  0.00  0.00    +0.020 C 
ATOM     27  C   UNL     1      35.158 -18.954 -21.198  0.00  0.00    +0.141 C 
ATOM     28  C   UNL     1      37.173 -19.959 -20.320  0.00  0.00    +0.004 C 
ATOM     29  C   UNL     1      36.539 -18.920 -21.002  0.00  0.00    +0.030 C 
ENDBRANCH  20  24
ENDBRANCH  18  20
ENDBRANCH   3  18
TORSDOF 5
ENDMDL
MODEL 6
REMARK VINA RESULT:      -9.8      1.839      2.470
REMARK  Name = 2742752
REMARK  5 active torsions:
REMARK  status: ('A' for Active; 'I' for Inactive)
REMARK    1  A    between atoms: N_1  and  C_7
REMARK    2  A    between atoms: C_3  and  N_18
REMARK    3  A    between atoms: C_5  and  C_14
REMARK    4  A    between atoms: N_18  and  S_20
REMARK    5  A    between atoms: S_20  and  C_24
REMARK                            x       y       z     vdW  Elec       q    Type
REMARK                         _______ _______ _______ _____ _____    ______ ____
ROOT
ATOM      1  N   UNL     1      33.970 -23.999 -15.219  0.00  0.00    -0.175 N 
ATOM      2  N   UNL     1      34.903 -24.746 -14.590  0.00  0.00    -0.172 NA
ATOM      3  C   UNL     1      34.513 -23.059 -16.057  0.00  0.00    +0.141 C 
ATOM      4  C   UNL     1      35.876 -23.205 -15.968  0.00  0.00    +0.054 C 
ATOM      5  C   UNL     1      36.058 -24.258 -15.051  0.00  0.00    +0.108 C 
ENDROOT
BRANCH   1   7
ATOM      6  F   UNL     1      28.606 -24.870 -14.304  0.00  0.00    -0.204 F 
ATOM      7  C   UNL     1      32.625 -24.218 -14.990  0.00  0.00    +0.075 C 
ATOM      8  C   UNL     1      31.679 -23.774 -15.914  0.00  0.00    +0.019 C 
ATOM      9  C   UNL     1      32.213 -24.882 -13.835  0.00  0.00    +0.019 C 
ATOM     10  C   UNL     1      30.321 -23.993 -15.682  0.00  0.00    +0.031 C 
ATOM     11  C   UNL     1      30.856 -25.102 -13.602  0.00  0.00    +0.031 C 
ATOM     12  C   UNL     1      29.910 -24.658 -14.526  0.00  0.00    +0.140 C 
ENDBRANCH   1   7
BRANCH   5  14
ATOM     13  S   UNL     1      37.548 -25.859 -13.283  0.00  0.00    -0.085 S 
ATOM     14  C   UNL     1      37.358 -24.798 -14.615  0.00  0.00    +0.049 C 
ATOM     15  C   UNL     1      38.562 -24.515 -15.224  0.00  0.00    +0.009 C 
ATOM     16  C   UNL     1      39.653 -25.177 -14.589  0.00  0.00    +0.008 C 
ATOM     17  C   UNL     1      39.242 -25.942 -13.519  0.00  0.00    +0.035 C 
ENDBRANCH   5  14
BRANCH   3  18
ATOM     18  N   UNL     1      33.801 -22.099 -16.879  0.00  0.00    -0.201 N 
ATOM     19  H   UNL     1      33.504 -21.230 -16.526  0.00  0.00    +0.175 HD
BRANCH  18  20
ATOM     20  S   UNL     1      33.506 -22.572 -18.515  0.00  0.00    +0.075 S 
ATOM     21  O   UNL     1      32.143 -22.226 -18.875  0.00  0.00    -0.150 OA
ATOM     22  O   UNL     1      34.005 -23.916 -18.732  0.00  0.00    -0.150 OA
BRANCH  20  24
ATOM     23  F   UNL     1      34.387 -18.759 -21.771  0.00  0.00    -0.204 F 
ATOM     24  C   UNL     1      34.586 -21.476 -19.388  0.00  0.00    +0.127 C 
ATOM     25  C   UNL     1      34.043 -20.538 -20.248  0.00  0.00    +0.050 C 
ATOM     26  C   UNL     1      35.951 -21.578 -19.192  0.00  0.00    +0.020 C 
ATOM     27  C   UNL     1      34.894 -19.672 -20.934  0.00  0.00    +0.141 C 
ATOM     28  C   UNL     1      36.803 -20.713 -19.879  0.00  0.00    +0.004 C 
ATOM     29  C   UNL     1      36.275 -19.760 -20.749  0.00  0.00    +0.030 C 
ENDBRANCH  20  24
ENDBRANCH  18  20
ENDBRANCH   3  18
TORSDOF 5
ENDMDL
MODEL 7
REMARK VINA RESULT:      -9.6      1.876      2.417
REMARK  Name = 2742752
REMARK  5 active torsions:
REMARK  status: ('A' for Active; 'I' for Inactive)
REMARK    1  A    between atoms: N_1  and  C_7
REMARK    2  A    between atoms: C_3  and  N_18
REMARK    3  A    between atoms: C_5  and  C_14
REMARK    4  A    between atoms: N_18  and  S_20
REMARK    5  A    between atoms: S_20  and  C_24
REMARK                            x       y       z     vdW  Elec       q    Type
REMARK                         _______ _______ _______ _____ _____    ______ ____
ROOT
ATOM      1  N   UNL     1      34.352 -23.356 -15.658  0.00  0.00    -0.175 N 
ATOM      2  N   UNL     1      34.944 -24.023 -14.644  0.00  0.00    -0.172 NA
ATOM      3  C   UNL     1      35.243 -22.922 -16.605  0.00  0.00    +0.141 C 
ATOM      4  C   UNL     1      36.484 -23.330 -16.182  0.00  0.00    +0.054 C 
ATOM      5  C   UNL     1      36.239 -24.003 -14.970  0.00  0.00    +0.108 C 
ENDROOT
BRANCH   1   7
ATOM      6  F   UNL     1      28.891 -22.619 -15.710  0.00  0.00    -0.204 F 
ATOM      7  C   UNL     1      32.982 -23.171 -15.670  0.00  0.00    +0.075 C 
ATOM      8  C   UNL     1      32.277 -23.095 -14.469  0.00  0.00    +0.019 C 
ATOM      9  C   UNL     1      32.305 -23.060 -16.885  0.00  0.00    +0.019 C 
ATOM     10  C   UNL     1      30.895 -22.910 -14.483  0.00  0.00    +0.031 C 
ATOM     11  C   UNL     1      30.923 -22.874 -16.899  0.00  0.00    +0.031 C 
ATOM     12  C   UNL     1      30.218 -22.799 -15.697  0.00  0.00    +0.140 C 
ENDBRANCH   1   7
BRANCH   5  14
ATOM     13  S   UNL     1      36.979 -25.141 -12.507  0.00  0.00    -0.085 S 
ATOM     14  C   UNL     1      37.264 -24.633 -14.118  0.00  0.00    +0.049 C 
ATOM     15  C   UNL     1      38.560 -24.883 -14.516  0.00  0.00    +0.009 C 
ATOM     16  C   UNL     1      39.327 -25.500 -13.486  0.00  0.00    +0.008 C 
ATOM     17  C   UNL     1      38.590 -25.698 -12.339  0.00  0.00    +0.035 C 
ENDBRANCH   5  14
BRANCH   3  18
ATOM     18  N   UNL     1      34.946 -22.180 -17.815  0.00  0.00    -0.201 N 
ATOM     19  H   UNL     1      34.029 -22.087 -18.159  0.00  0.00    +0.175 HD
BRANCH  18  20
ATOM     20  S   UNL     1      36.300 -21.468 -18.619  0.00  0.00    +0.075 S 
ATOM     21  O   UNL     1      37.064 -22.507 -19.284  0.00  0.00    -0.150 OA
ATOM     22  O   UNL     1      36.956 -20.527 -17.731  0.00  0.00    -0.150 OA
BRANCH  20  24
ATOM     23  F   UNL     1      32.171 -20.025 -21.225  0.00  0.00    -0.204 F 
ATOM     24  C   UNL     1      35.492 -20.513 -19.871  0.00  0.00    +0.127 C 
ATOM     25  C   UNL     1      34.128 -20.655 -20.051  0.00  0.00    +0.050 C 
ATOM     26  C   UNL     1      36.240 -19.642 -20.642  0.00  0.00    +0.020 C 
ATOM     27  C   UNL     1      33.491 -19.900 -21.035  0.00  0.00    +0.141 C 
ATOM     28  C   UNL     1      35.603 -18.887 -21.627  0.00  0.00    +0.004 C 
ATOM     29  C   UNL     1      34.228 -19.016 -21.824  0.00  0.00    +0.030 C 
ENDBRANCH  20  24
ENDBRANCH  18  20
ENDBRANCH   3  18
TORSDOF 5
ENDMDL
MODEL 8
REMARK VINA RESULT:      -9.4      9.638     13.576
REMARK  Name = 2742752
REMARK  5 active torsions:
REMARK  status: ('A' for Active; 'I' for Inactive)
REMARK    1  A    between atoms: N_1  and  C_7
REMARK    2  A    between atoms: C_3  and  N_18
REMARK    3  A    between atoms: C_5  and  C_14
REMARK    4  A    between atoms: N_18  and  S_20
REMARK    5  A    between atoms: S_20  and  C_24
REMARK                            x       y       z     vdW  Elec       q    Type
REMARK                         _______ _______ _______ _____ _____    ______ ____
ROOT
ATOM      1  N   UNL     1      33.651 -13.020 -23.472  0.00  0.00    -0.175 N 
ATOM      2  N   UNL     1      34.415 -14.132 -23.420  0.00  0.00    -0.172 NA
ATOM      3  C   UNL     1      32.460 -13.157 -22.806  0.00  0.00    +0.141 C 
ATOM      4  C   UNL     1      32.451 -14.431 -22.291  0.00  0.00    +0.054 C 
ATOM      5  C   UNL     1      33.679 -14.984 -22.701  0.00  0.00    +0.108 C 
ENDROOT
BRANCH   1   7
ATOM      6  F   UNL     1      35.407  -8.541 -26.161  0.00  0.00    -0.204 F 
ATOM      7  C   UNL     1      34.091 -11.896 -24.147  0.00  0.00    +0.075 C 
ATOM      8  C   UNL     1      34.408 -11.977 -25.503  0.00  0.00    +0.019 C 
ATOM      9  C   UNL     1      34.218 -10.683 -23.472  0.00  0.00    +0.019 C 
ATOM     10  C   UNL     1      34.854 -10.844 -26.183  0.00  0.00    +0.031 C 
ATOM     11  C   UNL     1      34.663  -9.549 -24.151  0.00  0.00    +0.031 C 
ATOM     12  C   UNL     1      34.981  -9.630 -25.508  0.00  0.00    +0.140 C 
ENDBRANCH   1   7
BRANCH   5  14
ATOM     13  S   UNL     1      34.748 -17.433 -23.577  0.00  0.00    -0.085 S 
ATOM     14  C   UNL     1      34.149 -16.347 -22.395  0.00  0.00    +0.049 C 
ATOM     15  C   UNL     1      34.159 -16.902 -21.133  0.00  0.00    +0.009 C 
ATOM     16  C   UNL     1      34.665 -18.234 -21.137  0.00  0.00    +0.008 C 
ATOM     17  C   UNL     1      35.023 -18.648 -22.402  0.00  0.00    +0.035 C 
ENDBRANCH   5  14
BRANCH   3  18
ATOM     18  N   UNL     1      31.413 -12.164 -22.665  0.00  0.00    -0.201 N 
ATOM     19  H   UNL     1      30.797 -11.948 -23.401  0.00  0.00    +0.175 HD
BRANCH  18  20
ATOM     20  S   UNL     1      31.310 -11.382 -21.127  0.00  0.00    +0.075 S 
ATOM     21  O   UNL     1      32.398 -11.841 -20.283  0.00  0.00    -0.150 OA
ATOM     22  O   UNL     1      29.942 -11.422 -20.649  0.00  0.00    -0.150 OA
BRANCH  20  24
ATOM     23  F   UNL     1      31.085  -7.438 -24.339  0.00  0.00    -0.204 F 
ATOM     24  C   UNL     1      31.648  -9.704 -21.573  0.00  0.00    +0.127 C 
ATOM     25  C   UNL     1      31.224  -9.234 -22.802  0.00  0.00    +0.050 C 
ATOM     26  C   UNL     1      32.329  -8.894 -20.681  0.00  0.00    +0.020 C 
ATOM     27  C   UNL     1      31.488  -7.910 -23.152  0.00  0.00    +0.141 C 
ATOM     28  C   UNL     1      32.593  -7.570 -21.031  0.00  0.00    +0.004 C 
ATOM     29  C   UNL     1      32.173  -7.078 -22.266  0.00  0.00    +0.030 C 
ENDBRANCH  20  24
ENDBRANCH  18  20
ENDBRANCH   3  18
TORSDOF 5
ENDMDL
MODEL 9
REMARK VINA RESULT:      -9.2      7.449     12.179
REMARK  Name = 2742752
REMARK  5 active torsions:
REMARK  status: ('A' for Active; 'I' for Inactive)
REMARK    1  A    between atoms: N_1  and  C_7
REMARK    2  A    between atoms: C_3  and  N_18
REMARK    3  A    between atoms: C_5  and  C_14
REMARK    4  A    between atoms: N_18  and  S_20
REMARK    5  A    between atoms: S_20  and  C_24
REMARK                            x       y       z     vdW  Elec       q    Type
REMARK                         _______ _______ _______ _____ _____    ______ ____
ROOT
ATOM      1  N   UNL     1      32.760 -13.209 -23.055  0.00  0.00    -0.175 N 
ATOM      2  N   UNL     1      32.442 -11.977 -22.602  0.00  0.00    -0.172 NA
ATOM      3  C   UNL     1      32.747 -14.163 -22.071  0.00  0.00    +0.141 C 
ATOM      4  C   UNL     1      32.399 -13.513 -20.911  0.00  0.00    +0.054 C 
ATOM      5  C   UNL     1      32.224 -12.171 -21.298  0.00  0.00    +0.108 C 
ENDROOT
BRANCH   1   7
ATOM      6  F   UNL     1      33.944 -14.008 -28.378  0.00  0.00    -0.204 F 
ATOM      7  C   UNL     1      33.056 -13.409 -24.391  0.00  0.00    +0.075 C 
ATOM      8  C   UNL     1      32.900 -14.674 -24.958  0.00  0.00    +0.019 C 
ATOM      9  C   UNL     1      33.512 -12.347 -25.171  0.00  0.00    +0.019 C 
ATOM     10  C   UNL     1      33.201 -14.877 -26.304  0.00  0.00    +0.031 C 
ATOM     11  C   UNL     1      33.812 -12.548 -26.518  0.00  0.00    +0.031 C 
ATOM     12  C   UNL     1      33.657 -13.814 -27.084  0.00  0.00    +0.140 C 
ENDBRANCH   1   7
BRANCH   5  14
ATOM     13  S   UNL     1      31.933  -9.411 -20.842  0.00  0.00    -0.085 S 
ATOM     14  C   UNL     1      31.842 -11.064 -20.402  0.00  0.00    +0.049 C 
ATOM     15  C   UNL     1      31.372 -11.231 -19.117  0.00  0.00    +0.009 C 
ATOM     16  C   UNL     1      31.083  -9.986 -18.487  0.00  0.00    +0.008 C 
ATOM     17  C   UNL     1      31.343  -8.914 -19.313  0.00  0.00    +0.035 C 
ENDBRANCH   5  14
BRANCH   3  18
ATOM     18  N   UNL     1      33.038 -15.576 -22.212  0.00  0.00    -0.201 N 
ATOM     19  H   UNL     1      32.363 -16.218 -22.529  0.00  0.00    +0.175 HD
BRANCH  18  20
ATOM     20  S   UNL     1      34.640 -16.066 -21.791  0.00  0.00    +0.075 S 
ATOM     21  O   UNL     1      35.074 -15.330 -20.618  0.00  0.00    -0.150 OA
ATOM     22  O   UNL     1      35.468 -16.107 -22.981  0.00  0.00    -0.150 OA
BRANCH  20  24
ATOM     23  F   UNL     1      36.275 -20.743 -20.617  0.00  0.00    -0.204 F 
ATOM     24  C   UNL     1      34.367 -17.744 -21.299  0.00  0.00    +0.127 C 
ATOM     25  C   UNL     1      35.452 -18.589 -21.153  0.00  0.00    +0.050 C 
ATOM     26  C   UNL     1      33.074 -18.176 -21.069  0.00  0.00    +0.020 C 
ATOM     27  C   UNL     1      35.237 -19.910 -20.762  0.00  0.00    +0.141 C 
ATOM     28  C   UNL     1      32.857 -19.498 -20.679  0.00  0.00    +0.004 C 
ATOM     29  C   UNL     1      33.939 -20.365 -20.525  0.00  0.00    +0.030 C 
ENDBRANCH  20  24
ENDBRANCH  18  20
ENDBRANCH   3  18
TORSDOF 5
ENDMDL
