MODEL 1
REMARK VINA RESULT:      -9.6      0.000      0.000
REMARK  Name = 46937126
REMARK  15 active torsions:
REMARK  status: ('A' for Active; 'I' for Inactive)
REMARK    1  A    between atoms: C_1  and  S_3
REMARK    2  A    between atoms: C_1  and  CA_7
REMARK    3  A    between atoms: C_1  and  C_25
REMARK    4  A    between atoms: S_3  and  O_5
REMARK    5  A    between atoms: CA_7  and  C_9
REMARK    6  A    between atoms: CA_7  and  N_12
REMARK    7  A    between atoms: C_9  and  O_10
REMARK    8  A    between atoms: N_12  and  C_15
REMARK    9  A    between atoms: C_16  and  C_24
REMARK   10  A    between atoms: C_25  and  O_26
REMARK   11  A    between atoms: O_26  and  C_28
REMARK   12  A    between atoms: C_28  and  C_29
REMARK   13  A    between atoms: C_29  and  C_30
REMARK   14  A    between atoms: C_33  and  O_36
REMARK   15  A    between atoms: C_35  and  O_38
REMARK                            x       y       z     vdW  Elec       q    Type
REMARK                         _______ _______ _______ _____ _____    ______ ____
ROOT
ATOM      1  C   UNL     1      37.897 -24.339 -14.551  0.00  0.00    +0.172 C 
ATOM      2  C   UNL     1      38.056 -23.440 -13.306  0.00  0.00    +0.029 C 
ENDROOT
BRANCH   1   3
ATOM      3  S   UNL     1      39.400 -25.460 -14.560  0.00  0.00    -0.052 S 
ATOM      4  O   UNL     1      40.567 -24.550 -14.601  0.00  0.00    -0.081 OA
BRANCH   3   5
ATOM      5  O   UNL     1      39.124 -25.873 -13.032  0.00  0.00    -0.278 OA
ATOM      6  H   UNL     1      38.719 -25.127 -12.563  0.00  0.00    +0.242 HD
ENDBRANCH   3   5
ENDBRANCH   1   3
BRANCH   1   7
ATOM      7  CA  UNL     1      36.608 -25.206 -14.432  0.00  0.00    +0.194 C 
BRANCH   7   9
ATOM      8  OXT UNL     1      36.697 -26.934 -16.148  0.00  0.00    -0.248 OA
ATOM      9  C   UNL     1      36.750 -26.626 -14.964  0.00  0.00    +0.334 C 
BRANCH   9  10
ATOM     10  O   UNL     1      36.944 -27.539 -13.978  0.00  0.00    -0.479 OA
ATOM     11  H   UNL     1      37.635 -27.419 -13.356  0.00  0.00    +0.295 HD
ENDBRANCH   9  10
ENDBRANCH   7   9
BRANCH   7  12
ATOM     12  N   UNL     1      35.514 -24.598 -15.172  0.00  0.00    -0.312 N 
ATOM     13  H   UNL     1      35.622 -24.466 -16.141  0.00  0.00    +0.148 HD
BRANCH  12  15
ATOM     14  N   UNL     1      33.283 -23.727 -15.342  0.00  0.00    -0.253 N 
ATOM     15  C   UNL     1      34.331 -24.198 -14.585  0.00  0.00    +0.108 C 
ATOM     16  C   UNL     1      33.954 -24.174 -13.259  0.00  0.00    +0.071 C 
ATOM     17  C   UNL     1      32.233 -23.402 -14.489  0.00  0.00    +0.057 C 
ATOM     18  C   UNL     1      32.631 -23.672 -13.197  0.00  0.00    +0.021 C 
ATOM     19  C   UNL     1      33.213 -23.573 -16.728  0.00  0.00    +0.071 C 
ATOM     20  C   UNL     1      31.040 -22.891 -15.078  0.00  0.00    +0.015 C 
ATOM     21  C   UNL     1      32.086 -23.091 -17.278  0.00  0.00    +0.016 C 
ATOM     22  C   UNL     1      30.970 -22.742 -16.415  0.00  0.00    +0.003 C 
BRANCH  16  24
ATOM     23  O   UNL     1      35.125 -23.838 -11.231  0.00  0.00    -0.283 OA
ATOM     24  C   UNL     1      34.778 -24.591 -12.160  0.00  0.00    +0.237 C 
ENDBRANCH  16  24
ENDBRANCH  12  15
ENDBRANCH   7  12
ENDBRANCH   1   7
BRANCH   1  25
ATOM     25  C   UNL     1      37.929 -23.492 -15.845  0.00  0.00    +0.232 C 
BRANCH  25  26
ATOM     26  O   UNL     1      37.102 -22.335 -15.757  0.00  0.00    -0.446 OA
BRANCH  26  28
ATOM     27  O   UNL     1      37.503 -20.439 -17.008  0.00  0.00    -0.250 OA
ATOM     28  C   UNL     1      37.036 -21.563 -16.887  0.00  0.00    +0.322 C 
BRANCH  28  29
ATOM     29  C   UNL     1      36.291 -22.322 -17.959  0.00  0.00    +0.136 C 
BRANCH  29  30
ATOM     30  C   UNL     1      35.765 -21.429 -19.053  0.00  0.00    -0.008 C 
ATOM     31  C   UNL     1      34.397 -21.386 -19.320  0.00  0.00    +0.036 C 
ATOM     32  C   UNL     1      36.646 -20.646 -19.799  0.00  0.00    -0.000 C 
ATOM     33  C   UNL     1      33.909 -20.560 -20.332  0.00  0.00    +0.167 C 
ATOM     34  C   UNL     1      36.158 -19.820 -20.812  0.00  0.00    +0.039 C 
ATOM     35  C   UNL     1      34.790 -19.777 -21.079  0.00  0.00    +0.167 C 
BRANCH  33  36
ATOM     36  O   UNL     1      32.570 -20.525 -20.581  0.00  0.00    -0.503 OA
ATOM     37  H   UNL     1      32.104 -19.714 -20.524  0.00  0.00    +0.292 HD
ENDBRANCH  33  36
BRANCH  35  38
ATOM     38  O   UNL     1      34.325 -18.966 -22.069  0.00  0.00    -0.503 OA
ATOM     39  H   UNL     1      34.143 -19.319 -22.917  0.00  0.00    +0.292 HD
ENDBRANCH  35  38
ENDBRANCH  29  30
ENDBRANCH  28  29
ENDBRANCH  26  28
ENDBRANCH  25  26
ENDBRANCH   1  25
TORSDOF 15
ENDMDL
MODEL 2
REMARK VINA RESULT:      -9.1      8.104     13.177
REMARK  Name = 46937126
REMARK  15 active torsions:
REMARK  status: ('A' for Active; 'I' for Inactive)
REMARK    1  A    between atoms: C_1  and  S_3
REMARK    2  A    between atoms: C_1  and  CA_7
REMARK    3  A    between atoms: C_1  and  C_25
REMARK    4  A    between atoms: S_3  and  O_5
REMARK    5  A    between atoms: CA_7  and  C_9
REMARK    6  A    between atoms: CA_7  and  N_12
REMARK    7  A    between atoms: C_9  and  O_10
REMARK    8  A    between atoms: N_12  and  C_15
REMARK    9  A    between atoms: C_16  and  C_24
REMARK   10  A    between atoms: C_25  and  O_26
REMARK   11  A    between atoms: O_26  and  C_28
REMARK   12  A    between atoms: C_28  and  C_29
REMARK   13  A    between atoms: C_29  and  C_30
REMARK   14  A    between atoms: C_33  and  O_36
REMARK   15  A    between atoms: C_35  and  O_38
REMARK                            x       y       z     vdW  Elec       q    Type
REMARK                         _______ _______ _______ _____ _____    ______ ____
ROOT
ATOM      1  C   UNL     1      33.511 -14.510 -22.648  0.00  0.00    +0.172 C 
ATOM      2  C   UNL     1      34.783 -14.087 -21.883  0.00  0.00    +0.029 C 
ENDROOT
BRANCH   1   3
ATOM      3  S   UNL     1      32.273 -15.015 -21.333  0.00  0.00    -0.052 S 
ATOM      4  O   UNL     1      32.857 -16.211 -20.684  0.00  0.00    -0.081 OA
BRANCH   3   5
ATOM      5  O   UNL     1      32.649 -13.722 -20.457  0.00  0.00    -0.278 OA
ATOM      6  H   UNL     1      32.796 -13.987 -19.535  0.00  0.00    +0.242 HD
ENDBRANCH   3   5
ENDBRANCH   1   3
BRANCH   1   7
ATOM      7  CA  UNL     1      32.940 -13.308 -23.457  0.00  0.00    +0.194 C 
BRANCH   7   9
ATOM      8  OXT UNL     1      34.043 -12.772 -25.563  0.00  0.00    -0.248 OA
ATOM      9  C   UNL     1      33.173 -13.388 -24.960  0.00  0.00    +0.334 C 
BRANCH   9  10
ATOM     10  O   UNL     1      32.305 -14.227 -25.582  0.00  0.00    -0.479 OA
ATOM     11  H   UNL     1      31.637 -13.881 -26.140  0.00  0.00    +0.295 HD
ENDBRANCH   9  10
ENDBRANCH   7   9
BRANCH   7  12
ATOM     12  N   UNL     1      33.545 -12.062 -23.015  0.00  0.00    -0.312 N 
ATOM     13  H   UNL     1      34.489 -12.074 -22.737  0.00  0.00    +0.148 HD
BRANCH  12  15
ATOM     14  N   UNL     1      33.409  -9.710 -23.482  0.00  0.00    -0.253 N 
ATOM     15  C   UNL     1      32.864 -10.863 -22.965  0.00  0.00    +0.108 C 
ATOM     16  C   UNL     1      31.621 -10.562 -22.448  0.00  0.00    +0.071 C 
ATOM     17  C   UNL     1      32.505  -8.670 -23.291  0.00  0.00    +0.057 C 
ATOM     18  C   UNL     1      31.394  -9.179 -22.653  0.00  0.00    +0.021 C 
ATOM     19  C   UNL     1      34.647  -9.538 -24.103  0.00  0.00    +0.071 C 
ATOM     20  C   UNL     1      32.881  -7.377 -23.760  0.00  0.00    +0.015 C 
ATOM     21  C   UNL     1      34.996  -8.318 -24.542  0.00  0.00    +0.016 C 
ATOM     22  C   UNL     1      34.075  -7.208 -24.360  0.00  0.00    +0.003 C 
BRANCH  16  24
ATOM     23  O   UNL     1      30.563 -11.574 -20.590  0.00  0.00    -0.283 OA
ATOM     24  C   UNL     1      30.739 -11.504 -21.821  0.00  0.00    +0.237 C 
ENDBRANCH  16  24
ENDBRANCH  12  15
ENDBRANCH   7  12
ENDBRANCH   1   7
BRANCH   1  25
ATOM     25  C   UNL     1      33.791 -15.746 -23.535  0.00  0.00    +0.232 C 
BRANCH  25  26
ATOM     26  O   UNL     1      35.029 -16.375 -23.213  0.00  0.00    -0.446 OA
BRANCH  26  28
ATOM     27  O   UNL     1      34.491 -18.444 -24.081  0.00  0.00    -0.250 OA
ATOM     28  C   UNL     1      35.022 -17.745 -23.228  0.00  0.00    +0.322 C 
BRANCH  28  29
ATOM     29  C   UNL     1      35.771 -18.255 -22.021  0.00  0.00    +0.136 C 
BRANCH  29  30
ATOM     30  C   UNL     1      34.992 -19.275 -21.231  0.00  0.00    -0.008 C 
ATOM     31  C   UNL     1      35.664 -20.275 -20.530  0.00  0.00    +0.036 C 
ATOM     32  C   UNL     1      33.598 -19.217 -21.202  0.00  0.00    -0.000 C 
ATOM     33  C   UNL     1      34.942 -21.218 -19.798  0.00  0.00    +0.167 C 
ATOM     34  C   UNL     1      32.877 -20.162 -20.470  0.00  0.00    +0.039 C 
ATOM     35  C   UNL     1      33.549 -21.162 -19.769  0.00  0.00    +0.167 C 
BRANCH  33  36
ATOM     36  O   UNL     1      35.611 -22.190 -19.115  0.00  0.00    -0.503 OA
ATOM     37  H   UNL     1      35.244 -22.548 -18.331  0.00  0.00    +0.292 HD
ENDBRANCH  33  36
BRANCH  35  38
ATOM     38  O   UNL     1      32.835 -22.078 -19.058  0.00  0.00    -0.503 OA
ATOM     39  H   UNL     1      32.156 -21.795 -18.478  0.00  0.00    +0.292 HD
ENDBRANCH  35  38
ENDBRANCH  29  30
ENDBRANCH  28  29
ENDBRANCH  26  28
ENDBRANCH  25  26
ENDBRANCH   1  25
TORSDOF 15
ENDMDL
MODEL 3
REMARK VINA RESULT:      -9.0      2.615      5.534
REMARK  Name = 46937126
REMARK  15 active torsions:
REMARK  status: ('A' for Active; 'I' for Inactive)
REMARK    1  A    between atoms: C_1  and  S_3
REMARK    2  A    between atoms: C_1  and  CA_7
REMARK    3  A    between atoms: C_1  and  C_25
REMARK    4  A    between atoms: S_3  and  O_5
REMARK    5  A    between atoms: CA_7  and  C_9
REMARK    6  A    between atoms: CA_7  and  N_12
REMARK    7  A    between atoms: C_9  and  O_10
REMARK    8  A    between atoms: N_12  and  C_15
REMARK    9  A    between atoms: C_16  and  C_24
REMARK   10  A    between atoms: C_25  and  O_26
REMARK   11  A    between atoms: O_26  and  C_28
REMARK   12  A    between atoms: C_28  and  C_29
REMARK   13  A    between atoms: C_29  and  C_30
REMARK   14  A    between atoms: C_33  and  O_36
REMARK   15  A    between atoms: C_35  and  O_38
REMARK                            x       y       z     vdW  Elec       q    Type
REMARK                         _______ _______ _______ _____ _____    ______ ____
ROOT
ATOM      1  C   UNL     1      35.858 -24.588 -12.848  0.00  0.00    +0.172 C 
ATOM      2  C   UNL     1      36.656 -25.860 -12.491  0.00  0.00    +0.029 C 
ENDROOT
BRANCH   1   3
ATOM      3  S   UNL     1      36.882 -23.153 -12.207  0.00  0.00    -0.052 S 
ATOM      4  O   UNL     1      36.989 -23.371 -10.746  0.00  0.00    -0.081 OA
BRANCH   3   5
ATOM      5  O   UNL     1      38.196 -23.751 -12.912  0.00  0.00    -0.278 OA
ATOM      6  H   UNL     1      38.986 -23.373 -12.497  0.00  0.00    +0.242 HD
ENDBRANCH   3   5
ENDBRANCH   1   3
BRANCH   1   7
ATOM      7  CA  UNL     1      35.705 -24.460 -14.393  0.00  0.00    +0.194 C 
BRANCH   7   9
ATOM      8  OXT UNL     1      36.049 -26.412 -15.810  0.00  0.00    -0.248 OA
ATOM      9  C   UNL     1      36.521 -25.465 -15.195  0.00  0.00    +0.334 C 
BRANCH   9  10
ATOM     10  O   UNL     1      37.854 -25.204 -15.162  0.00  0.00    -0.479 OA
ATOM     11  H   UNL     1      38.313 -25.207 -14.345  0.00  0.00    +0.295 HD
ENDBRANCH   9  10
ENDBRANCH   7   9
BRANCH   7  12
ATOM     12  N   UNL     1      36.121 -23.142 -14.841  0.00  0.00    -0.312 N 
ATOM     13  H   UNL     1      36.497 -22.520 -14.177  0.00  0.00    +0.148 HD
BRANCH  12  15
ATOM     14  N   UNL     1      34.807 -22.708 -16.803  0.00  0.00    -0.253 N 
ATOM     15  C   UNL     1      36.018 -22.716 -16.149  0.00  0.00    +0.108 C 
ATOM     16  C   UNL     1      36.983 -22.250 -17.016  0.00  0.00    +0.071 C 
ATOM     17  C   UNL     1      35.007 -22.233 -18.096  0.00  0.00    +0.057 C 
ATOM     18  C   UNL     1      36.347 -21.946 -18.245  0.00  0.00    +0.021 C 
ATOM     19  C   UNL     1      33.556 -23.094 -16.319  0.00  0.00    +0.071 C 
ATOM     20  C   UNL     1      33.867 -22.145 -18.948  0.00  0.00    +0.015 C 
ATOM     21  C   UNL     1      32.486 -23.010 -17.126  0.00  0.00    +0.016 C 
ATOM     22  C   UNL     1      32.659 -22.518 -18.483  0.00  0.00    +0.003 C 
BRANCH  16  24
ATOM     23  O   UNL     1      39.009 -22.913 -15.991  0.00  0.00    -0.283 OA
ATOM     24  C   UNL     1      38.376 -22.111 -16.701  0.00  0.00    +0.237 C 
ENDBRANCH  16  24
ENDBRANCH  12  15
ENDBRANCH   7  12
ENDBRANCH   1   7
BRANCH   1  25
ATOM     25  C   UNL     1      34.499 -24.568 -12.110  0.00  0.00    +0.232 C 
BRANCH  25  26
ATOM     26  O   UNL     1      33.542 -23.735 -12.757  0.00  0.00    -0.446 OA
BRANCH  26  28
ATOM     27  O   UNL     1      32.491 -25.509 -13.790  0.00  0.00    -0.250 OA
ATOM     28  C   UNL     1      32.472 -24.381 -13.316  0.00  0.00    +0.322 C 
BRANCH  28  29
ATOM     29  C   UNL     1      31.264 -23.477 -13.257  0.00  0.00    +0.136 C 
BRANCH  29  30
ATOM     30  C   UNL     1      30.308 -23.696 -14.402  0.00  0.00    -0.008 C 
ATOM     31  C   UNL     1      29.684 -22.606 -15.006  0.00  0.00    +0.036 C 
ATOM     32  C   UNL     1      30.050 -24.989 -14.858  0.00  0.00    -0.000 C 
ATOM     33  C   UNL     1      28.800 -22.808 -16.066  0.00  0.00    +0.167 C 
ATOM     34  C   UNL     1      29.165 -25.190 -15.918  0.00  0.00    +0.039 C 
ATOM     35  C   UNL     1      28.541 -24.100 -16.522  0.00  0.00    +0.167 C 
BRANCH  33  36
ATOM     36  O   UNL     1      28.197 -21.733 -16.650  0.00  0.00    -0.503 OA
ATOM     37  H   UNL     1      28.717 -21.024 -16.973  0.00  0.00    +0.292 HD
ENDBRANCH  33  36
BRANCH  35  38
ATOM     38  O   UNL     1      27.680 -24.309 -17.557  0.00  0.00    -0.503 OA
ATOM     39  H   UNL     1      27.830 -25.012 -18.156  0.00  0.00    +0.292 HD
ENDBRANCH  35  38
ENDBRANCH  29  30
ENDBRANCH  28  29
ENDBRANCH  26  28
ENDBRANCH  25  26
ENDBRANCH   1  25
TORSDOF 15
ENDMDL
MODEL 4
REMARK VINA RESULT:      -9.0      7.651     12.686
REMARK  Name = 46937126
REMARK  15 active torsions:
REMARK  status: ('A' for Active; 'I' for Inactive)
REMARK    1  A    between atoms: C_1  and  S_3
REMARK    2  A    between atoms: C_1  and  CA_7
REMARK    3  A    between atoms: C_1  and  C_25
REMARK    4  A    between atoms: S_3  and  O_5
REMARK    5  A    between atoms: CA_7  and  C_9
REMARK    6  A    between atoms: CA_7  and  N_12
REMARK    7  A    between atoms: C_9  and  O_10
REMARK    8  A    between atoms: N_12  and  C_15
REMARK    9  A    between atoms: C_16  and  C_24
REMARK   10  A    between atoms: C_25  and  O_26
REMARK   11  A    between atoms: O_26  and  C_28
REMARK   12  A    between atoms: C_28  and  C_29
REMARK   13  A    between atoms: C_29  and  C_30
REMARK   14  A    between atoms: C_33  and  O_36
REMARK   15  A    between atoms: C_35  and  O_38
REMARK                            x       y       z     vdW  Elec       q    Type
REMARK                         _______ _______ _______ _____ _____    ______ ____
ROOT
ATOM      1  C   UNL     1      33.777 -15.205 -23.434  0.00  0.00    +0.172 C 
ATOM      2  C   UNL     1      32.902 -16.233 -22.684  0.00  0.00    +0.029 C 
ENDROOT
BRANCH   1   3
ATOM      3  S   UNL     1      32.958 -14.967 -25.104  0.00  0.00    -0.052 S 
ATOM      4  O   UNL     1      33.601 -13.767 -25.688  0.00  0.00    -0.081 OA
BRANCH   3   5
ATOM      5  O   UNL     1      33.699 -16.274 -25.674  0.00  0.00    -0.278 OA
ATOM      6  H   UNL     1      34.027 -16.809 -24.935  0.00  0.00    +0.242 HD
ENDBRANCH   3   5
ENDBRANCH   1   3
BRANCH   1   7
ATOM      7  CA  UNL     1      33.793 -13.848 -22.670  0.00  0.00    +0.194 C 
BRANCH   7   9
ATOM      8  OXT UNL     1      32.737 -13.777 -20.475  0.00  0.00    -0.248 OA
ATOM      9  C   UNL     1      33.737 -13.974 -21.154  0.00  0.00    +0.334 C 
BRANCH   9  10
ATOM     10  O   UNL     1      34.929 -14.335 -20.613  0.00  0.00    -0.479 OA
ATOM     11  H   UNL     1      35.617 -14.654 -21.164  0.00  0.00    +0.295 HD
ENDBRANCH   9  10
ENDBRANCH   7   9
BRANCH   7  12
ATOM     12  N   UNL     1      32.653 -13.031 -23.056  0.00  0.00    -0.312 N 
ATOM     13  H   UNL     1      31.877 -13.477 -23.465  0.00  0.00    +0.148 HD
BRANCH  12  15
ATOM     14  N   UNL     1      33.459 -10.825 -23.554  0.00  0.00    -0.253 N 
ATOM     15  C   UNL     1      32.603 -11.664 -22.878  0.00  0.00    +0.108 C 
ATOM     16  C   UNL     1      31.785 -10.897 -22.077  0.00  0.00    +0.071 C 
ATOM     17  C   UNL     1      33.179  -9.514 -23.179  0.00  0.00    +0.057 C 
ATOM     18  C   UNL     1      32.147  -9.540 -22.265  0.00  0.00    +0.021 C 
ATOM     19  C   UNL     1      34.456 -11.157 -24.472  0.00  0.00    +0.071 C 
ATOM     20  C   UNL     1      33.960  -8.479 -23.771  0.00  0.00    +0.015 C 
ATOM     21  C   UNL     1      35.190 -10.178 -25.027  0.00  0.00    +0.016 C 
ATOM     22  C   UNL     1      34.924  -8.798 -24.657  0.00  0.00    +0.003 C 
BRANCH  16  24
ATOM     23  O   UNL     1      30.643 -11.102 -20.015  0.00  0.00    -0.283 OA
ATOM     24  C   UNL     1      30.757 -11.410 -21.216  0.00  0.00    +0.237 C 
ENDBRANCH  16  24
ENDBRANCH  12  15
ENDBRANCH   7  12
ENDBRANCH   1   7
BRANCH   1  25
ATOM     25  C   UNL     1      35.196 -15.769 -23.677  0.00  0.00    +0.232 C 
BRANCH  25  26
ATOM     26  O   UNL     1      35.632 -16.618 -22.619  0.00  0.00    -0.446 OA
BRANCH  26  28
ATOM     27  O   UNL     1      35.292 -18.472 -23.947  0.00  0.00    -0.250 OA
ATOM     28  C   UNL     1      35.687 -17.954 -22.911  0.00  0.00    +0.322 C 
BRANCH  28  29
ATOM     29  C   UNL     1      36.309 -18.689 -21.748  0.00  0.00    +0.136 C 
BRANCH  29  30
ATOM     30  C   UNL     1      35.329 -19.569 -21.016  0.00  0.00    -0.008 C 
ATOM     31  C   UNL     1      35.792 -20.631 -20.240  0.00  0.00    +0.036 C 
ATOM     32  C   UNL     1      33.960 -19.321 -21.114  0.00  0.00    -0.000 C 
ATOM     33  C   UNL     1      34.885 -21.446 -19.561  0.00  0.00    +0.167 C 
ATOM     34  C   UNL     1      33.054 -20.136 -20.436  0.00  0.00    +0.039 C 
ATOM     35  C   UNL     1      33.516 -21.198 -19.659  0.00  0.00    +0.167 C 
BRANCH  33  36
ATOM     36  O   UNL     1      35.350 -22.479 -18.804  0.00  0.00    -0.503 OA
ATOM     37  H   UNL     1      34.904 -23.303 -18.813  0.00  0.00    +0.292 HD
ENDBRANCH  33  36
BRANCH  35  38
ATOM     38  O   UNL     1      32.622 -21.987 -19.001  0.00  0.00    -0.503 OA
ATOM     39  H   UNL     1      32.046 -21.612 -18.364  0.00  0.00    +0.292 HD
ENDBRANCH  35  38
ENDBRANCH  29  30
ENDBRANCH  28  29
ENDBRANCH  26  28
ENDBRANCH  25  26
ENDBRANCH   1  25
TORSDOF 15
ENDMDL
MODEL 5
REMARK VINA RESULT:      -8.9      2.493      6.930
REMARK  Name = 46937126
REMARK  15 active torsions:
REMARK  status: ('A' for Active; 'I' for Inactive)
REMARK    1  A    between atoms: C_1  and  S_3
REMARK    2  A    between atoms: C_1  and  CA_7
REMARK    3  A    between atoms: C_1  and  C_25
REMARK    4  A    between atoms: S_3  and  O_5
REMARK    5  A    between atoms: CA_7  and  C_9
REMARK    6  A    between atoms: CA_7  and  N_12
REMARK    7  A    between atoms: C_9  and  O_10
REMARK    8  A    between atoms: N_12  and  C_15
REMARK    9  A    between atoms: C_16  and  C_24
REMARK   10  A    between atoms: C_25  and  O_26
REMARK   11  A    between atoms: O_26  and  C_28
REMARK   12  A    between atoms: C_28  and  C_29
REMARK   13  A    between atoms: C_29  and  C_30
REMARK   14  A    between atoms: C_33  and  O_36
REMARK   15  A    between atoms: C_35  and  O_38
REMARK                            x       y       z     vdW  Elec       q    Type
REMARK                         _______ _______ _______ _____ _____    ______ ____
ROOT
ATOM      1  C   UNL     1      33.996 -23.623 -15.123  0.00  0.00    +0.172 C 
ATOM      2  C   UNL     1      35.048 -22.751 -14.405  0.00  0.00    +0.029 C 
ENDROOT
BRANCH   1   3
ATOM      3  S   UNL     1      32.642 -23.923 -13.861  0.00  0.00    -0.052 S 
ATOM      4  O   UNL     1      32.457 -25.392 -13.826  0.00  0.00    -0.081 OA
BRANCH   3   5
ATOM      5  O   UNL     1      33.634 -23.503 -12.669  0.00  0.00    -0.278 OA
ATOM      6  H   UNL     1      34.412 -23.058 -13.037  0.00  0.00    +0.242 HD
ENDBRANCH   3   5
ENDBRANCH   1   3
BRANCH   1   7
ATOM      7  CA  UNL     1      33.402 -22.860 -16.344  0.00  0.00    +0.194 C 
BRANCH   7   9
ATOM      8  OXT UNL     1      31.136 -22.397 -17.114  0.00  0.00    -0.248 OA
ATOM      9  C   UNL     1      31.946 -23.190 -16.649  0.00  0.00    +0.334 C 
BRANCH   9  10
ATOM     10  O   UNL     1      31.625 -24.474 -16.349  0.00  0.00    -0.479 OA
ATOM     11  H   UNL     1      32.033 -25.180 -16.811  0.00  0.00    +0.295 HD
ENDBRANCH   9  10
ENDBRANCH   7   9
BRANCH   7  12
ATOM     12  N   UNL     1      34.153 -23.164 -17.551  0.00  0.00    -0.312 N 
ATOM     13  H   UNL     1      34.106 -24.079 -17.912  0.00  0.00    +0.148 HD
BRANCH  12  15
ATOM     14  N   UNL     1      34.403 -21.460 -19.224  0.00  0.00    -0.253 N 
ATOM     15  C   UNL     1      34.928 -22.237 -18.217  0.00  0.00    +0.108 C 
ATOM     16  C   UNL     1      36.256 -21.903 -18.056  0.00  0.00    +0.071 C 
ATOM     17  C   UNL     1      35.408 -20.626 -19.706  0.00  0.00    +0.057 C 
ATOM     18  C   UNL     1      36.560 -20.887 -18.995  0.00  0.00    +0.021 C 
ATOM     19  C   UNL     1      33.102 -21.454 -19.728  0.00  0.00    +0.071 C 
ATOM     20  C   UNL     1      35.069 -19.732 -20.763  0.00  0.00    +0.015 C 
ATOM     21  C   UNL     1      32.789 -20.610 -20.725  0.00  0.00    +0.016 C 
ATOM     22  C   UNL     1      33.814 -19.724 -21.252  0.00  0.00    +0.003 C 
BRANCH  16  24
ATOM     23  O   UNL     1      37.738 -21.854 -16.213  0.00  0.00    -0.283 OA
ATOM     24  C   UNL     1      37.146 -22.497 -17.100  0.00  0.00    +0.237 C 
ENDBRANCH  16  24
ENDBRANCH  12  15
ENDBRANCH   7  12
ENDBRANCH   1   7
BRANCH   1  25
ATOM     25  C   UNL     1      34.595 -24.995 -15.511  0.00  0.00    +0.232 C 
BRANCH  25  26
ATOM     26  O   UNL     1      36.017 -25.011 -15.423  0.00  0.00    -0.446 OA
BRANCH  26  28
ATOM     27  O   UNL     1      36.272 -27.188 -16.142  0.00  0.00    -0.250 OA
ATOM     28  C   UNL     1      36.600 -26.250 -15.428  0.00  0.00    +0.322 C 
BRANCH  28  29
ATOM     29  C   UNL     1      37.713 -26.275 -14.407  0.00  0.00    +0.136 C 
BRANCH  29  30
ATOM     30  C   UNL     1      37.480 -25.328 -13.258  0.00  0.00    -0.008 C 
ATOM     31  C   UNL     1      36.456 -25.578 -12.345  0.00  0.00    +0.036 C 
ATOM     32  C   UNL     1      38.289 -24.201 -13.109  0.00  0.00    -0.000 C 
ATOM     33  C   UNL     1      36.241 -24.702 -11.281  0.00  0.00    +0.167 C 
ATOM     34  C   UNL     1      38.073 -23.325 -12.045  0.00  0.00    +0.039 C 
ATOM     35  C   UNL     1      37.049 -23.575 -11.132  0.00  0.00    +0.167 C 
BRANCH  33  36
ATOM     36  O   UNL     1      35.239 -24.959 -10.394  0.00  0.00    -0.503 OA
ATOM     37  H   UNL     1      35.444 -25.253  -9.528  0.00  0.00    +0.292 HD
ENDBRANCH  33  36
BRANCH  35  38
ATOM     38  O   UNL     1      36.848 -22.713 -10.096  0.00  0.00    -0.503 OA
ATOM     39  H   UNL     1      36.266 -21.987 -10.197  0.00  0.00    +0.292 HD
ENDBRANCH  35  38
ENDBRANCH  29  30
ENDBRANCH  28  29
ENDBRANCH  26  28
ENDBRANCH  25  26
ENDBRANCH   1  25
TORSDOF 15
ENDMDL
MODEL 6
REMARK VINA RESULT:      -8.8      8.447     13.559
REMARK  Name = 46937126
REMARK  15 active torsions:
REMARK  status: ('A' for Active; 'I' for Inactive)
REMARK    1  A    between atoms: C_1  and  S_3
REMARK    2  A    between atoms: C_1  and  CA_7
REMARK    3  A    between atoms: C_1  and  C_25
REMARK    4  A    between atoms: S_3  and  O_5
REMARK    5  A    between atoms: CA_7  and  C_9
REMARK    6  A    between atoms: CA_7  and  N_12
REMARK    7  A    between atoms: C_9  and  O_10
REMARK    8  A    between atoms: N_12  and  C_15
REMARK    9  A    between atoms: C_16  and  C_24
REMARK   10  A    between atoms: C_25  and  O_26
REMARK   11  A    between atoms: O_26  and  C_28
REMARK   12  A    between atoms: C_28  and  C_29
REMARK   13  A    between atoms: C_29  and  C_30
REMARK   14  A    between atoms: C_33  and  O_36
REMARK   15  A    between atoms: C_35  and  O_38
REMARK                            x       y       z     vdW  Elec       q    Type
REMARK                         _______ _______ _______ _____ _____    ______ ____
ROOT
ATOM      1  C   UNL     1      33.364 -13.930 -22.457  0.00  0.00    +0.172 C 
ATOM      2  C   UNL     1      32.283 -14.857 -21.861  0.00  0.00    +0.029 C 
ENDROOT
BRANCH   1   3
ATOM      3  S   UNL     1      33.251 -14.151 -24.315  0.00  0.00    -0.052 S 
ATOM      4  O   UNL     1      33.545 -15.581 -24.558  0.00  0.00    -0.081 OA
BRANCH   3   5
ATOM      5  O   UNL     1      31.657 -13.957 -24.260  0.00  0.00    -0.278 OA
ATOM      6  H   UNL     1      31.448 -13.118 -23.821  0.00  0.00    +0.242 HD
ENDBRANCH   3   5
ENDBRANCH   1   3
BRANCH   1   7
ATOM      7  CA  UNL     1      33.064 -12.445 -22.095  0.00  0.00    +0.194 C 
BRANCH   7   9
ATOM      8  OXT UNL     1      31.897 -12.287 -19.961  0.00  0.00    -0.248 OA
ATOM      9  C   UNL     1      31.859 -12.247 -21.185  0.00  0.00    +0.334 C 
BRANCH   9  10
ATOM     10  O   UNL     1      30.712 -12.016 -21.874  0.00  0.00    -0.479 OA
ATOM     11  H   UNL     1      30.590 -12.395 -22.723  0.00  0.00    +0.295 HD
ENDBRANCH   9  10
ENDBRANCH   7   9
BRANCH   7  12
ATOM     12  N   UNL     1      32.802 -11.670 -23.297  0.00  0.00    -0.312 N 
ATOM     13  H   UNL     1      32.183 -12.041 -23.966  0.00  0.00    +0.148 HD
BRANCH  12  15
ATOM     14  N   UNL     1      33.021  -9.326 -22.821  0.00  0.00    -0.253 N 
ATOM     15  C   UNL     1      33.376 -10.440 -23.547  0.00  0.00    +0.108 C 
ATOM     16  C   UNL     1      34.329 -10.071 -24.472  0.00  0.00    +0.071 C 
ATOM     17  C   UNL     1      33.756  -8.242 -23.291  0.00  0.00    +0.057 C 
ATOM     18  C   UNL     1      34.569  -8.684 -24.312  0.00  0.00    +0.021 C 
ATOM     19  C   UNL     1      32.095  -9.225 -21.782  0.00  0.00    +0.071 C 
ATOM     20  C   UNL     1      33.537  -6.979 -22.667  0.00  0.00    +0.015 C 
ATOM     21  C   UNL     1      31.892  -8.033 -21.198  0.00  0.00    +0.016 C 
ATOM     22  C   UNL     1      32.644  -6.879 -21.664  0.00  0.00    +0.003 C 
BRANCH  16  24
ATOM     23  O   UNL     1      34.318 -11.608 -26.271  0.00  0.00    -0.283 OA
ATOM     24  C   UNL     1      34.948 -10.957 -25.417  0.00  0.00    +0.237 C 
ENDBRANCH  16  24
ENDBRANCH  12  15
ENDBRANCH   7  12
ENDBRANCH   1   7
BRANCH   1  25
ATOM     25  C   UNL     1      34.776 -14.379 -22.010  0.00  0.00    +0.232 C 
BRANCH  25  26
ATOM     26  O   UNL     1      35.084 -15.703 -22.436  0.00  0.00    -0.446 OA
BRANCH  26  28
ATOM     27  O   UNL     1      35.149 -16.513 -20.278  0.00  0.00    -0.250 OA
ATOM     28  C   UNL     1      34.979 -16.676 -21.478  0.00  0.00    +0.322 C 
BRANCH  28  29
ATOM     29  C   UNL     1      34.621 -17.984 -22.142  0.00  0.00    +0.136 C 
BRANCH  29  30
ATOM     30  C   UNL     1      34.789 -19.172 -21.229  0.00  0.00    -0.008 C 
ATOM     31  C   UNL     1      33.670 -19.871 -20.781  0.00  0.00    +0.036 C 
ATOM     32  C   UNL     1      36.066 -19.573 -20.834  0.00  0.00    -0.000 C 
ATOM     33  C   UNL     1      33.825 -20.971 -19.938  0.00  0.00    +0.167 C 
ATOM     34  C   UNL     1      36.221 -20.672 -19.990  0.00  0.00    +0.039 C 
ATOM     35  C   UNL     1      35.101 -21.371 -19.541  0.00  0.00    +0.167 C 
BRANCH  33  36
ATOM     36  O   UNL     1      32.723 -21.647 -19.508  0.00  0.00    -0.503 OA
ATOM     37  H   UNL     1      32.370 -22.345 -20.025  0.00  0.00    +0.292 HD
ENDBRANCH  33  36
BRANCH  35  38
ATOM     38  O   UNL     1      35.265 -22.444 -18.718  0.00  0.00    -0.503 OA
ATOM     39  H   UNL     1      36.111 -22.641 -18.367  0.00  0.00    +0.292 HD
ENDBRANCH  35  38
ENDBRANCH  29  30
ENDBRANCH  28  29
ENDBRANCH  26  28
ENDBRANCH  25  26
ENDBRANCH   1  25
TORSDOF 15
ENDMDL
MODEL 7
REMARK VINA RESULT:      -8.8      5.207     10.642
REMARK  Name = 46937126
REMARK  15 active torsions:
REMARK  status: ('A' for Active; 'I' for Inactive)
REMARK    1  A    between atoms: C_1  and  S_3
REMARK    2  A    between atoms: C_1  and  CA_7
REMARK    3  A    between atoms: C_1  and  C_25
REMARK    4  A    between atoms: S_3  and  O_5
REMARK    5  A    between atoms: CA_7  and  C_9
REMARK    6  A    between atoms: CA_7  and  N_12
REMARK    7  A    between atoms: C_9  and  O_10
REMARK    8  A    between atoms: N_12  and  C_15
REMARK    9  A    between atoms: C_16  and  C_24
REMARK   10  A    between atoms: C_25  and  O_26
REMARK   11  A    between atoms: O_26  and  C_28
REMARK   12  A    between atoms: C_28  and  C_29
REMARK   13  A    between atoms: C_29  and  C_30
REMARK   14  A    between atoms: C_33  and  O_36
REMARK   15  A    between atoms: C_35  and  O_38
REMARK                            x       y       z     vdW  Elec       q    Type
REMARK                         _______ _______ _______ _____ _____    ______ ____
ROOT
ATOM      1  C   UNL     1      34.669 -18.593 -22.529  0.00  0.00    +0.172 C 
ATOM      2  C   UNL     1      35.375 -19.764 -23.245  0.00  0.00    +0.029 C 
ENDROOT
BRANCH   1   3
ATOM      3  S   UNL     1      36.029 -17.627 -21.675  0.00  0.00    -0.052 S 
ATOM      4  O   UNL     1      35.389 -17.015 -20.488  0.00  0.00    -0.081 OA
BRANCH   3   5
ATOM      5  O   UNL     1      36.743 -18.994 -21.225  0.00  0.00    -0.278 OA
ATOM      6  H   UNL     1      36.117 -19.730 -21.312  0.00  0.00    +0.242 HD
ENDBRANCH   3   5
ENDBRANCH   1   3
BRANCH   1   7
ATOM      7  CA  UNL     1      33.959 -17.673 -23.567  0.00  0.00    +0.194 C 
BRANCH   7   9
ATOM      8  OXT UNL     1      33.374 -19.033 -25.503  0.00  0.00    -0.248 OA
ATOM      9  C   UNL     1      34.064 -18.149 -25.010  0.00  0.00    +0.334 C 
BRANCH   9  10
ATOM     10  O   UNL     1      35.016 -17.485 -25.714  0.00  0.00    -0.479 OA
ATOM     11  H   UNL     1      35.390 -16.697 -25.371  0.00  0.00    +0.295 HD
ENDBRANCH   9  10
ENDBRANCH   7   9
BRANCH   7  12
ATOM     12  N   UNL     1      34.524 -16.335 -23.535  0.00  0.00    -0.312 N 
ATOM     13  H   UNL     1      35.500 -16.242 -23.449  0.00  0.00    +0.148 HD
BRANCH  12  15
ATOM     14  N   UNL     1      33.250 -14.586 -22.492  0.00  0.00    -0.253 N 
ATOM     15  C   UNL     1      33.764 -15.187 -23.619  0.00  0.00    +0.108 C 
ATOM     16  C   UNL     1      33.378 -14.448 -24.717  0.00  0.00    +0.071 C 
ATOM     17  C   UNL     1      32.534 -13.459 -22.880  0.00  0.00    +0.057 C 
ATOM     18  C   UNL     1      32.602 -13.358 -24.253  0.00  0.00    +0.021 C 
ATOM     19  C   UNL     1      33.384 -14.983 -21.160  0.00  0.00    +0.071 C 
ATOM     20  C   UNL     1      31.916 -12.686 -21.853  0.00  0.00    +0.015 C 
ATOM     21  C   UNL     1      32.799 -14.252 -20.197  0.00  0.00    +0.016 C 
ATOM     22  C   UNL     1      32.043 -13.067 -20.567  0.00  0.00    +0.003 C 
BRANCH  16  24
ATOM     23  O   UNL     1      33.025 -15.477 -26.819  0.00  0.00    -0.283 OA
ATOM     24  C   UNL     1      33.718 -14.756 -26.078  0.00  0.00    +0.237 C 
ENDBRANCH  16  24
ENDBRANCH  12  15
ENDBRANCH   7  12
ENDBRANCH   1   7
BRANCH   1  25
ATOM     25  C   UNL     1      33.704 -19.119 -21.441  0.00  0.00    +0.232 C 
BRANCH  25  26
ATOM     26  O   UNL     1      34.333 -20.047 -20.561  0.00  0.00    -0.446 OA
BRANCH  26  28
ATOM     27  O   UNL     1      32.369 -20.598 -19.484  0.00  0.00    -0.250 OA
ATOM     28  C   UNL     1      33.491 -20.884 -19.879  0.00  0.00    +0.322 C 
BRANCH  28  29
ATOM     29  C   UNL     1      34.171 -22.219 -19.690  0.00  0.00    +0.136 C 
BRANCH  29  30
ATOM     30  C   UNL     1      34.657 -22.438 -18.281  0.00  0.00    -0.008 C 
ATOM     31  C   UNL     1      35.931 -22.011 -17.909  0.00  0.00    +0.036 C 
ATOM     32  C   UNL     1      33.833 -23.068 -17.348  0.00  0.00    -0.000 C 
ATOM     33  C   UNL     1      36.382 -22.213 -16.604  0.00  0.00    +0.167 C 
ATOM     34  C   UNL     1      34.284 -23.270 -16.044  0.00  0.00    +0.039 C 
ATOM     35  C   UNL     1      35.558 -22.843 -15.672  0.00  0.00    +0.167 C 
BRANCH  33  36
ATOM     36  O   UNL     1      37.628 -21.789 -16.253  0.00  0.00    -0.503 OA
ATOM     37  H   UNL     1      38.209 -21.450 -16.905  0.00  0.00    +0.292 HD
ENDBRANCH  33  36
BRANCH  35  38
ATOM     38  O   UNL     1      35.987 -23.045 -14.395  0.00  0.00    -0.503 OA
ATOM     39  H   UNL     1      35.662 -22.507 -13.700  0.00  0.00    +0.292 HD
ENDBRANCH  35  38
ENDBRANCH  29  30
ENDBRANCH  28  29
ENDBRANCH  26  28
ENDBRANCH  25  26
ENDBRANCH   1  25
TORSDOF 15
ENDMDL
MODEL 8
REMARK VINA RESULT:      -8.8      5.552     10.613
REMARK  Name = 46937126
REMARK  15 active torsions:
REMARK  status: ('A' for Active; 'I' for Inactive)
REMARK    1  A    between atoms: C_1  and  S_3
REMARK    2  A    between atoms: C_1  and  CA_7
REMARK    3  A    between atoms: C_1  and  C_25
REMARK    4  A    between atoms: S_3  and  O_5
REMARK    5  A    between atoms: CA_7  and  C_9
REMARK    6  A    between atoms: CA_7  and  N_12
REMARK    7  A    between atoms: C_9  and  O_10
REMARK    8  A    between atoms: N_12  and  C_15
REMARK    9  A    between atoms: C_16  and  C_24
REMARK   10  A    between atoms: C_25  and  O_26
REMARK   11  A    between atoms: O_26  and  C_28
REMARK   12  A    between atoms: C_28  and  C_29
REMARK   13  A    between atoms: C_29  and  C_30
REMARK   14  A    between atoms: C_33  and  O_36
REMARK   15  A    between atoms: C_35  and  O_38
REMARK                            x       y       z     vdW  Elec       q    Type
REMARK                         _______ _______ _______ _____ _____    ______ ____
ROOT
ATOM      1  C   UNL     1      34.592 -18.155 -22.747  0.00  0.00    +0.172 C 
ATOM      2  C   UNL     1      35.181 -19.155 -23.765  0.00  0.00    +0.029 C 
ENDROOT
BRANCH   1   3
ATOM      3  S   UNL     1      36.053 -17.526 -21.754  0.00  0.00    -0.052 S 
ATOM      4  O   UNL     1      35.496 -17.150 -20.434  0.00  0.00    -0.081 OA
BRANCH   3   5
ATOM      5  O   UNL     1      36.650 -19.014 -21.654  0.00  0.00    -0.278 OA
ATOM      6  H   UNL     1      37.618 -18.978 -21.707  0.00  0.00    +0.242 HD
ENDBRANCH   3   5
ENDBRANCH   1   3
BRANCH   1   7
ATOM      7  CA  UNL     1      33.921 -16.960 -23.488  0.00  0.00    +0.194 C 
BRANCH   7   9
ATOM      8  OXT UNL     1      33.451 -17.405 -25.838  0.00  0.00    -0.248 OA
ATOM      9  C   UNL     1      34.185 -16.917 -24.987  0.00  0.00    +0.334 C 
BRANCH   9  10
ATOM     10  O   UNL     1      35.337 -16.270 -25.299  0.00  0.00    -0.479 OA
ATOM     11  H   UNL     1      35.705 -16.354 -26.157  0.00  0.00    +0.295 HD
ENDBRANCH   9  10
ENDBRANCH   7   9
BRANCH   7  12
ATOM     12  N   UNL     1      34.394 -15.695 -22.952  0.00  0.00    -0.312 N 
ATOM     13  H   UNL     1      35.365 -15.536 -22.917  0.00  0.00    +0.148 HD
BRANCH  12  15
ATOM     14  N   UNL     1      33.487 -13.477 -23.107  0.00  0.00    -0.253 N 
ATOM     15  C   UNL     1      33.553 -14.704 -22.488  0.00  0.00    +0.108 C 
ATOM     16  C   UNL     1      32.679 -14.701 -21.422  0.00  0.00    +0.071 C 
ATOM     17  C   UNL     1      32.563 -12.689 -22.427  0.00  0.00    +0.057 C 
ATOM     18  C   UNL     1      32.054 -13.430 -21.382  0.00  0.00    +0.021 C 
ATOM     19  C   UNL     1      34.193 -13.029 -24.224  0.00  0.00    +0.071 C 
ATOM     20  C   UNL     1      32.343 -11.367 -22.912  0.00  0.00    +0.015 C 
ATOM     21  C   UNL     1      33.981 -11.782 -24.677  0.00  0.00    +0.016 C 
ATOM     22  C   UNL     1      33.023 -10.932 -23.990  0.00  0.00    +0.003 C 
BRANCH  16  24
ATOM     23  O   UNL     1      31.497 -16.585 -20.615  0.00  0.00    -0.283 OA
ATOM     24  C   UNL     1      32.463 -15.804 -20.529  0.00  0.00    +0.237 C 
ENDBRANCH  16  24
ENDBRANCH  12  15
ENDBRANCH   7  12
ENDBRANCH   1   7
BRANCH   1  25
ATOM     25  C   UNL     1      33.628 -18.870 -21.772  0.00  0.00    +0.232 C 
BRANCH  25  26
ATOM     26  O   UNL     1      34.204 -20.041 -21.200  0.00  0.00    -0.446 OA
BRANCH  26  28
ATOM     27  O   UNL     1      32.481 -20.199 -19.676  0.00  0.00    -0.250 OA
ATOM     28  C   UNL     1      33.442 -20.681 -20.260  0.00  0.00    +0.322 C 
BRANCH  28  29
ATOM     29  C   UNL     1      33.980 -22.076 -20.055  0.00  0.00    +0.136 C 
BRANCH  29  30
ATOM     30  C   UNL     1      34.700 -22.243 -18.742  0.00  0.00    -0.008 C 
ATOM     31  C   UNL     1      34.070 -22.889 -17.678  0.00  0.00    +0.036 C 
ATOM     32  C   UNL     1      35.997 -21.752 -18.590  0.00  0.00    -0.000 C 
ATOM     33  C   UNL     1      34.737 -23.044 -16.463  0.00  0.00    +0.167 C 
ATOM     34  C   UNL     1      36.663 -21.907 -17.374  0.00  0.00    +0.039 C 
ATOM     35  C   UNL     1      36.033 -22.552 -16.311  0.00  0.00    +0.167 C 
BRANCH  33  36
ATOM     36  O   UNL     1      34.111 -23.678 -15.432  0.00  0.00    -0.503 OA
ATOM     37  H   UNL     1      34.612 -24.011 -14.713  0.00  0.00    +0.292 HD
ENDBRANCH  33  36
BRANCH  35  38
ATOM     38  O   UNL     1      36.694 -22.699 -15.129  0.00  0.00    -0.503 OA
ATOM     39  H   UNL     1      37.418 -23.289 -15.066  0.00  0.00    +0.292 HD
ENDBRANCH  35  38
ENDBRANCH  29  30
ENDBRANCH  28  29
ENDBRANCH  26  28
ENDBRANCH  25  26
ENDBRANCH   1  25
TORSDOF 15
ENDMDL
MODEL 9
REMARK VINA RESULT:      -8.7      2.864      5.174
REMARK  Name = 46937126
REMARK  15 active torsions:
REMARK  status: ('A' for Active; 'I' for Inactive)
REMARK    1  A    between atoms: C_1  and  S_3
REMARK    2  A    between atoms: C_1  and  CA_7
REMARK    3  A    between atoms: C_1  and  C_25
REMARK    4  A    between atoms: S_3  and  O_5
REMARK    5  A    between atoms: CA_7  and  C_9
REMARK    6  A    between atoms: CA_7  and  N_12
REMARK    7  A    between atoms: C_9  and  O_10
REMARK    8  A    between atoms: N_12  and  C_15
REMARK    9  A    between atoms: C_16  and  C_24
REMARK   10  A    between atoms: C_25  and  O_26
REMARK   11  A    between atoms: O_26  and  C_28
REMARK   12  A    between atoms: C_28  and  C_29
REMARK   13  A    between atoms: C_29  and  C_30
REMARK   14  A    between atoms: C_33  and  O_36
REMARK   15  A    between atoms: C_35  and  O_38
REMARK                            x       y       z     vdW  Elec       q    Type
REMARK                         _______ _______ _______ _____ _____    ______ ____
ROOT
ATOM      1  C   UNL     1      34.672 -22.071 -19.076  0.00  0.00    +0.172 C 
ATOM      2  C   UNL     1      34.305 -23.474 -19.605  0.00  0.00    +0.029 C 
ENDROOT
BRANCH   1   3
ATOM      3  S   UNL     1      33.131 -21.027 -19.300  0.00  0.00    -0.052 S 
ATOM      4  O   UNL     1      32.798 -21.124 -20.739  0.00  0.00    -0.081 OA
BRANCH   3   5
ATOM      5  O   UNL     1      32.257 -22.111 -18.498  0.00  0.00    -0.278 OA
ATOM      6  H   UNL     1      31.490 -21.675 -18.095  0.00  0.00    +0.242 HD
ENDBRANCH   3   5
ENDBRANCH   1   3
BRANCH   1   7
ATOM      7  CA  UNL     1      35.032 -22.141 -17.562  0.00  0.00    +0.194 C 
BRANCH   7   9
ATOM      8  OXT UNL     1      36.989 -20.812 -16.974  0.00  0.00    -0.248 OA
ATOM      9  C   UNL     1      36.503 -21.903 -17.250  0.00  0.00    +0.334 C 
BRANCH   9  10
ATOM     10  O   UNL     1      37.243 -23.040 -17.307  0.00  0.00    -0.479 OA
ATOM     11  H   UNL     1      38.109 -23.019 -17.664  0.00  0.00    +0.295 HD
ENDBRANCH   9  10
ENDBRANCH   7   9
BRANCH   7  12
ATOM     12  N   UNL     1      34.703 -23.448 -17.018  0.00  0.00    -0.312 N 
ATOM     13  H   UNL     1      34.799 -24.234 -17.603  0.00  0.00    +0.148 HD
BRANCH  12  15
ATOM     14  N   UNL     1      32.938 -23.491 -15.390  0.00  0.00    -0.253 N 
ATOM     15  C   UNL     1      34.264 -23.645 -15.725  0.00  0.00    +0.108 C 
ATOM     16  C   UNL     1      34.960 -24.000 -14.589  0.00  0.00    +0.071 C 
ATOM     17  C   UNL     1      32.793 -23.751 -14.031  0.00  0.00    +0.057 C 
ATOM     18  C   UNL     1      34.034 -24.067 -13.520  0.00  0.00    +0.021 C 
ATOM     19  C   UNL     1      31.870 -23.138 -16.216  0.00  0.00    +0.071 C 
ATOM     20  C   UNL     1      31.483 -23.647 -13.478  0.00  0.00    +0.015 C 
ATOM     21  C   UNL     1      30.638 -23.040 -15.689  0.00  0.00    +0.016 C 
ATOM     22  C   UNL     1      30.451 -23.306 -14.272  0.00  0.00    +0.003 C 
BRANCH  16  24
ATOM     23  O   UNL     1      36.978 -24.985 -15.334  0.00  0.00    -0.283 OA
ATOM     24  C   UNL     1      36.373 -24.250 -14.532  0.00  0.00    +0.237 C 
ENDBRANCH  16  24
ENDBRANCH  12  15
ENDBRANCH   7  12
ENDBRANCH   1   7
BRANCH   1  25
ATOM     25  C   UNL     1      35.799 -21.443 -19.929  0.00  0.00    +0.232 C 
BRANCH  25  26
ATOM     26  O   UNL     1      35.724 -20.020 -19.965  0.00  0.00    -0.446 OA
BRANCH  26  28
ATOM     27  O   UNL     1      37.370 -18.979 -21.200  0.00  0.00    -0.250 OA
ATOM     28  C   UNL     1      36.237 -19.426 -21.087  0.00  0.00    +0.322 C 
BRANCH  28  29
ATOM     29  C   UNL     1      35.177 -19.406 -22.162  0.00  0.00    +0.136 C 
BRANCH  29  30
ATOM     30  C   UNL     1      34.893 -18.020 -22.683  0.00  0.00    -0.008 C 
ATOM     31  C   UNL     1      34.811 -17.795 -24.056  0.00  0.00    +0.036 C 
ATOM     32  C   UNL     1      34.711 -16.963 -21.790  0.00  0.00    -0.000 C 
ATOM     33  C   UNL     1      34.547 -16.512 -24.538  0.00  0.00    +0.167 C 
ATOM     34  C   UNL     1      34.447 -15.681 -22.272  0.00  0.00    +0.039 C 
ATOM     35  C   UNL     1      34.365 -15.456 -23.646  0.00  0.00    +0.167 C 
BRANCH  33  36
ATOM     36  O   UNL     1      34.467 -16.306 -25.882  0.00  0.00    -0.503 OA
ATOM     37  H   UNL     1      34.125 -16.977 -26.440  0.00  0.00    +0.292 HD
ENDBRANCH  33  36
BRANCH  35  38
ATOM     38  O   UNL     1      34.107 -14.200 -24.105  0.00  0.00    -0.503 OA
ATOM     39  H   UNL     1      33.385 -13.714 -23.759  0.00  0.00    +0.292 HD
ENDBRANCH  35  38
ENDBRANCH  29  30
ENDBRANCH  28  29
ENDBRANCH  26  28
ENDBRANCH  25  26
ENDBRANCH   1  25
TORSDOF 15
ENDMDL
