MODEL 1
REMARK VINA RESULT:      -6.0      0.000      0.000
REMARK  Name = 71158
REMARK  4 active torsions:
REMARK  status: ('A' for Active; 'I' for Inactive)
REMARK    1  A    between atoms: C_1  and  C_2
REMARK    2  A    between atoms: C_1  and  C_7
REMARK    3  A    between atoms: C_2  and  S_3
REMARK    4  A    between atoms: C_7  and  N_9
REMARK                            x       y       z     vdW  Elec       q    Type
REMARK                         _______ _______ _______ _____ _____    ______ ____
ROOT
ATOM      1  C   UNL     1      30.374 -23.234 -14.945  0.00  0.00    +0.047 C 
ENDROOT
BRANCH   1   2
ATOM      2  C   UNL     1      29.139 -24.025 -15.354  0.00  0.00    +0.160 C 
BRANCH   2   3
ATOM      3  S   UNL     1      28.142 -23.114 -16.491  0.00  0.00    +0.023 S 
ATOM      4  O   UNL     1      27.761 -24.353 -17.480  0.00  0.00    -0.069 OA
ATOM      5  O   UNL     1      28.987 -22.181 -17.215  0.00  0.00    -0.069 OA
ATOM      6  O   UNL     1      26.939 -22.673 -15.809  0.00  0.00    -0.069 OA
ENDBRANCH   2   3
ENDBRANCH   1   2
BRANCH   1   7
ATOM      7  C   UNL     1      31.652 -23.791 -15.560  0.00  0.00    +0.091 C 
BRANCH   7   9
ATOM      8  O   UNL     1      34.254 -23.768 -16.850  0.00  0.00    -0.275 OA
ATOM      9  N   UNL     1      32.020 -23.112 -16.774  0.00  0.00    -0.304 N 
ATOM     10  C   UNL     1      33.297 -23.158 -17.319  0.00  0.00    +0.223 C 
ATOM     11  C   UNL     1      33.403 -22.382 -18.604  0.00  0.00    +0.095 C 
ATOM     12  H   UNL     1      31.331 -22.589 -17.242  0.00  0.00    +0.149 HD
ENDBRANCH   7   9
ENDBRANCH   1   7
TORSDOF 4
ENDMDL
MODEL 2
REMARK VINA RESULT:      -6.0      7.901      8.436
REMARK  Name = 71158
REMARK  4 active torsions:
REMARK  status: ('A' for Active; 'I' for Inactive)
REMARK    1  A    between atoms: C_1  and  C_2
REMARK    2  A    between atoms: C_1  and  C_7
REMARK    3  A    between atoms: C_2  and  S_3
REMARK    4  A    between atoms: C_7  and  N_9
REMARK                            x       y       z     vdW  Elec       q    Type
REMARK                         _______ _______ _______ _____ _____    ______ ____
ROOT
ATOM      1  C   UNL     1      36.019 -23.541 -13.793  0.00  0.00    +0.047 C 
ENDROOT
BRANCH   1   2
ATOM      2  C   UNL     1      35.616 -24.058 -12.418  0.00  0.00    +0.160 C 
BRANCH   2   3
ATOM      3  S   UNL     1      36.908 -23.816 -11.239  0.00  0.00    +0.023 S 
ATOM      4  O   UNL     1      36.038 -24.147  -9.901  0.00  0.00    -0.069 OA
ATOM      5  O   UNL     1      37.273 -22.411 -11.223  0.00  0.00    -0.069 OA
ATOM      6  O   UNL     1      37.904 -24.856 -11.418  0.00  0.00    -0.069 OA
ENDBRANCH   2   3
ENDBRANCH   1   2
BRANCH   1   7
ATOM      7  C   UNL     1      36.607 -24.635 -14.677  0.00  0.00    +0.091 C 
BRANCH   7   9
ATOM      8  O   UNL     1      38.309 -26.988 -14.662  0.00  0.00    -0.275 OA
ATOM      9  N   UNL     1      38.044 -24.674 -14.623  0.00  0.00    -0.304 N 
ATOM     10  C   UNL     1      38.777 -25.853 -14.620  0.00  0.00    +0.223 C 
ATOM     11  C   UNL     1      40.262 -25.608 -14.584  0.00  0.00    +0.095 C 
ATOM     12  H   UNL     1      38.532 -23.820 -14.587  0.00  0.00    +0.149 HD
ENDBRANCH   7   9
ENDBRANCH   1   7
TORSDOF 4
ENDMDL
MODEL 3
REMARK VINA RESULT:      -5.7      6.935      8.250
REMARK  Name = 71158
REMARK  4 active torsions:
REMARK  status: ('A' for Active; 'I' for Inactive)
REMARK    1  A    between atoms: C_1  and  C_2
REMARK    2  A    between atoms: C_1  and  C_7
REMARK    3  A    between atoms: C_2  and  S_3
REMARK    4  A    between atoms: C_7  and  N_9
REMARK                            x       y       z     vdW  Elec       q    Type
REMARK                         _______ _______ _______ _____ _____    ______ ____
ROOT
ATOM      1  C   UNL     1      38.624 -25.403 -13.240  0.00  0.00    +0.047 C 
ENDROOT
BRANCH   1   2
ATOM      2  C   UNL     1      37.428 -25.436 -12.299  0.00  0.00    +0.160 C 
BRANCH   2   3
ATOM      3  S   UNL     1      37.078 -23.832 -11.650  0.00  0.00    +0.023 S 
ATOM      4  O   UNL     1      38.606 -23.263 -11.657  0.00  0.00    -0.069 OA
ATOM      5  O   UNL     1      36.636 -23.966 -10.274  0.00  0.00    -0.069 OA
ATOM      6  O   UNL     1      36.300 -23.092 -12.627  0.00  0.00    -0.069 OA
ENDBRANCH   2   3
ENDBRANCH   1   2
BRANCH   1   7
ATOM      7  C   UNL     1      38.211 -25.365 -14.707  0.00  0.00    +0.091 C 
BRANCH   7   9
ATOM      8  O   UNL     1      35.934 -23.966 -15.843  0.00  0.00    -0.275 OA
ATOM      9  N   UNL     1      38.182 -24.028 -15.236  0.00  0.00    -0.304 N 
ATOM     10  C   UNL     1      37.040 -23.438 -15.762  0.00  0.00    +0.223 C 
ATOM     11  C   UNL     1      37.280 -22.026 -16.223  0.00  0.00    +0.095 C 
ATOM     12  H   UNL     1      39.014 -23.504 -15.224  0.00  0.00    +0.149 HD
ENDBRANCH   7   9
ENDBRANCH   1   7
TORSDOF 4
ENDMDL
MODEL 4
REMARK VINA RESULT:      -5.6      6.943      8.965
REMARK  Name = 71158
REMARK  4 active torsions:
REMARK  status: ('A' for Active; 'I' for Inactive)
REMARK    1  A    between atoms: C_1  and  C_2
REMARK    2  A    between atoms: C_1  and  C_7
REMARK    3  A    between atoms: C_2  and  S_3
REMARK    4  A    between atoms: C_7  and  N_9
REMARK                            x       y       z     vdW  Elec       q    Type
REMARK                         _______ _______ _______ _____ _____    ______ ____
ROOT
ATOM      1  C   UNL     1      37.406 -25.771 -13.027  0.00  0.00    +0.047 C 
ENDROOT
BRANCH   1   2
ATOM      2  C   UNL     1      38.833 -25.248 -12.931  0.00  0.00    +0.160 C 
BRANCH   2   3
ATOM      3  S   UNL     1      39.790 -25.736 -14.332  0.00  0.00    +0.023 S 
ATOM      4  O   UNL     1      38.746 -26.838 -14.928  0.00  0.00    -0.069 OA
ATOM      5  O   UNL     1      40.982 -26.424 -13.871  0.00  0.00    -0.069 OA
ATOM      6  O   UNL     1      39.868 -24.620 -15.256  0.00  0.00    -0.069 OA
ENDBRANCH   2   3
ENDBRANCH   1   2
BRANCH   1   7
ATOM      7  C   UNL     1      36.400 -24.666 -13.327  0.00  0.00    +0.091 C 
BRANCH   7   9
ATOM      8  O   UNL     1      35.727 -24.034 -16.081  0.00  0.00    -0.275 OA
ATOM      9  N   UNL     1      36.956 -23.621 -14.145  0.00  0.00    -0.304 N 
ATOM     10  C   UNL     1      36.571 -23.393 -15.459  0.00  0.00    +0.223 C 
ATOM     11  C   UNL     1      37.291 -22.223 -16.076  0.00  0.00    +0.095 C 
ATOM     12  H   UNL     1      37.645 -23.039 -13.752  0.00  0.00    +0.149 HD
ENDBRANCH   7   9
ENDBRANCH   1   7
TORSDOF 4
ENDMDL
MODEL 5
REMARK VINA RESULT:      -5.6      5.270      6.769
REMARK  Name = 71158
REMARK  4 active torsions:
REMARK  status: ('A' for Active; 'I' for Inactive)
REMARK    1  A    between atoms: C_1  and  C_2
REMARK    2  A    between atoms: C_1  and  C_7
REMARK    3  A    between atoms: C_2  and  S_3
REMARK    4  A    between atoms: C_7  and  N_9
REMARK                            x       y       z     vdW  Elec       q    Type
REMARK                         _______ _______ _______ _____ _____    ______ ____
ROOT
ATOM      1  C   UNL     1      33.382 -20.475 -20.066  0.00  0.00    +0.047 C 
ENDROOT
BRANCH   1   2
ATOM      2  C   UNL     1      34.549 -21.348 -19.624  0.00  0.00    +0.160 C 
BRANCH   2   3
ATOM      3  S   UNL     1      33.987 -22.764 -18.732  0.00  0.00    +0.023 S 
ATOM      4  O   UNL     1      32.461 -22.256 -18.466  0.00  0.00    -0.069 OA
ATOM      5  O   UNL     1      34.687 -22.827 -17.461  0.00  0.00    -0.069 OA
ATOM      6  O   UNL     1      33.951 -23.900 -19.634  0.00  0.00    -0.069 OA
ENDBRANCH   2   3
ENDBRANCH   1   2
BRANCH   1   7
ATOM      7  C   UNL     1      33.645 -19.781 -21.397  0.00  0.00    +0.091 C 
BRANCH   7   9
ATOM      8  O   UNL     1      36.043 -18.236 -20.854  0.00  0.00    -0.275 OA
ATOM      9  N   UNL     1      33.753 -18.353 -21.263  0.00  0.00    -0.304 N 
ATOM     10  C   UNL     1      34.948 -17.698 -21.001  0.00  0.00    +0.223 C 
ATOM     11  C   UNL     1      34.784 -16.203 -20.934  0.00  0.00    +0.095 C 
ATOM     12  H   UNL     1      32.936 -17.813 -21.362  0.00  0.00    +0.149 HD
ENDBRANCH   7   9
ENDBRANCH   1   7
TORSDOF 4
ENDMDL
MODEL 6
REMARK VINA RESULT:      -5.6      5.580      7.199
REMARK  Name = 71158
REMARK  4 active torsions:
REMARK  status: ('A' for Active; 'I' for Inactive)
REMARK    1  A    between atoms: C_1  and  C_2
REMARK    2  A    between atoms: C_1  and  C_7
REMARK    3  A    between atoms: C_2  and  S_3
REMARK    4  A    between atoms: C_7  and  N_9
REMARK                            x       y       z     vdW  Elec       q    Type
REMARK                         _______ _______ _______ _____ _____    ______ ____
ROOT
ATOM      1  C   UNL     1      34.564 -20.482 -20.450  0.00  0.00    +0.047 C 
ENDROOT
BRANCH   1   2
ATOM      2  C   UNL     1      35.198 -21.579 -19.605  0.00  0.00    +0.160 C 
BRANCH   2   3
ATOM      3  S   UNL     1      33.971 -22.543 -18.780  0.00  0.00    +0.023 S 
ATOM      4  O   UNL     1      34.048 -23.856 -19.745  0.00  0.00    -0.069 OA
ATOM      5  O   UNL     1      32.677 -21.909 -18.958  0.00  0.00    -0.069 OA
ATOM      6  O   UNL     1      34.464 -22.901 -17.464  0.00  0.00    -0.069 OA
ENDBRANCH   2   3
ENDBRANCH   1   2
BRANCH   1   7
ATOM      7  C   UNL     1      35.598 -19.529 -21.038  0.00  0.00    +0.091 C 
BRANCH   7   9
ATOM      8  O   UNL     1      34.497 -17.384 -22.656  0.00  0.00    -0.275 OA
ATOM      9  N   UNL     1      35.376 -18.164 -20.645  0.00  0.00    -0.304 N 
ATOM     10  C   UNL     1      34.841 -17.202 -21.491  0.00  0.00    +0.223 C 
ATOM     11  C   UNL     1      34.691 -15.863 -20.820  0.00  0.00    +0.095 C 
ATOM     12  H   UNL     1      35.614 -17.899 -19.728  0.00  0.00    +0.149 HD
ENDBRANCH   7   9
ENDBRANCH   1   7
TORSDOF 4
ENDMDL
MODEL 7
REMARK VINA RESULT:      -5.6      5.457      7.238
REMARK  Name = 71158
REMARK  4 active torsions:
REMARK  status: ('A' for Active; 'I' for Inactive)
REMARK    1  A    between atoms: C_1  and  C_2
REMARK    2  A    between atoms: C_1  and  C_7
REMARK    3  A    between atoms: C_2  and  S_3
REMARK    4  A    between atoms: C_7  and  N_9
REMARK                            x       y       z     vdW  Elec       q    Type
REMARK                         _______ _______ _______ _____ _____    ______ ____
ROOT
ATOM      1  C   UNL     1      34.252 -20.519 -20.340  0.00  0.00    +0.047 C 
ENDROOT
BRANCH   1   2
ATOM      2  C   UNL     1      35.015 -21.527 -19.491  0.00  0.00    +0.160 C 
BRANCH   2   3
ATOM      3  S   UNL     1      33.913 -22.623 -18.655  0.00  0.00    +0.023 S 
ATOM      4  O   UNL     1      34.026 -23.873 -19.696  0.00  0.00    -0.069 OA
ATOM      5  O   UNL     1      32.568 -22.080 -18.721  0.00  0.00    -0.069 OA
ATOM      6  O   UNL     1      34.511 -23.013 -17.391  0.00  0.00    -0.069 OA
ENDBRANCH   2   3
ENDBRANCH   1   2
BRANCH   1   7
ATOM      7  C   UNL     1      35.179 -19.619 -21.149  0.00  0.00    +0.091 C 
BRANCH   7   9
ATOM      8  O   UNL     1      35.508 -17.337 -22.914  0.00  0.00    -0.275 OA
ATOM      9  N   UNL     1      34.783 -19.517 -22.528  0.00  0.00    -0.304 N 
ATOM     10  C   UNL     1      34.981 -18.378 -23.298  0.00  0.00    +0.223 C 
ATOM     11  C   UNL     1      34.497 -18.548 -24.713  0.00  0.00    +0.095 C 
ATOM     12  H   UNL     1      34.349 -20.294 -22.947  0.00  0.00    +0.149 HD
ENDBRANCH   7   9
ENDBRANCH   1   7
TORSDOF 4
ENDMDL
MODEL 8
REMARK VINA RESULT:      -5.5      9.182     10.780
REMARK  Name = 71158
REMARK  4 active torsions:
REMARK  status: ('A' for Active; 'I' for Inactive)
REMARK    1  A    between atoms: C_1  and  C_2
REMARK    2  A    between atoms: C_1  and  C_7
REMARK    3  A    between atoms: C_2  and  S_3
REMARK    4  A    between atoms: C_7  and  N_9
REMARK                            x       y       z     vdW  Elec       q    Type
REMARK                         _______ _______ _______ _____ _____    ______ ____
ROOT
ATOM      1  C   UNL     1      34.628 -18.702 -24.204  0.00  0.00    +0.047 C 
ENDROOT
BRANCH   1   2
ATOM      2  C   UNL     1      35.670 -18.446 -23.123  0.00  0.00    +0.160 C 
BRANCH   2   3
ATOM      3  S   UNL     1      34.914 -18.229 -21.543  0.00  0.00    +0.023 S 
ATOM      4  O   UNL     1      33.884 -19.490 -21.625  0.00  0.00    -0.069 OA
ATOM      5  O   UNL     1      34.145 -16.997 -21.555  0.00  0.00    -0.069 OA
ATOM      6  O   UNL     1      35.900 -18.497 -20.512  0.00  0.00    -0.069 OA
ENDBRANCH   2   3
ENDBRANCH   1   2
BRANCH   1   7
ATOM      7  C   UNL     1      34.591 -17.595 -25.251  0.00  0.00    +0.091 C 
BRANCH   7   9
ATOM      8  O   UNL     1      33.340 -15.421 -26.715  0.00  0.00    -0.275 OA
ATOM      9  N   UNL     1      34.103 -16.351 -24.719  0.00  0.00    -0.304 N 
ATOM     10  C   UNL     1      33.515 -15.364 -25.500  0.00  0.00    +0.223 C 
ATOM     11  C   UNL     1      33.071 -14.176 -24.690  0.00  0.00    +0.095 C 
ATOM     12  H   UNL     1      34.189 -16.191 -23.752  0.00  0.00    +0.149 HD
ENDBRANCH   7   9
ENDBRANCH   1   7
TORSDOF 4
ENDMDL
MODEL 9
REMARK VINA RESULT:      -5.4      2.230      2.663
REMARK  Name = 71158
REMARK  4 active torsions:
REMARK  status: ('A' for Active; 'I' for Inactive)
REMARK    1  A    between atoms: C_1  and  C_2
REMARK    2  A    between atoms: C_1  and  C_7
REMARK    3  A    between atoms: C_2  and  S_3
REMARK    4  A    between atoms: C_7  and  N_9
REMARK                            x       y       z     vdW  Elec       q    Type
REMARK                         _______ _______ _______ _____ _____    ______ ____
ROOT
ATOM      1  C   UNL     1      30.549 -23.901 -15.547  0.00  0.00    +0.047 C 
ENDROOT
BRANCH   1   2
ATOM      2  C   UNL     1      29.044 -23.979 -15.329  0.00  0.00    +0.160 C 
BRANCH   2   3
ATOM      3  S   UNL     1      28.164 -23.240 -16.669  0.00  0.00    +0.023 S 
ATOM      4  O   UNL     1      26.902 -22.671 -15.807  0.00  0.00    -0.069 OA
ATOM      5  O   UNL     1      27.689 -24.288 -17.555  0.00  0.00    -0.069 OA
ATOM      6  O   UNL     1      28.932 -22.116 -17.169  0.00  0.00    -0.069 OA
ENDBRANCH   2   3
ENDBRANCH   1   2
BRANCH   1   7
ATOM      7  C   UNL     1      31.249 -23.063 -14.484  0.00  0.00    +0.091 C 
BRANCH   7   9
ATOM      8  O   UNL     1      33.209 -24.615 -13.007  0.00  0.00    -0.275 OA
ATOM      9  N   UNL     1      32.677 -23.047 -14.646  0.00  0.00    -0.304 N 
ATOM     10  C   UNL     1      33.542 -23.828 -13.891  0.00  0.00    +0.223 C 
ATOM     11  C   UNL     1      34.982 -23.638 -14.282  0.00  0.00    +0.095 C 
ATOM     12  H   UNL     1      33.062 -22.452 -15.329  0.00  0.00    +0.149 HD
ENDBRANCH   7   9
ENDBRANCH   1   7
TORSDOF 4
ENDMDL
