MODEL 1
REMARK VINA RESULT:      -7.6      0.000      0.000
REMARK  Name = 4060
REMARK  2 active torsions:
REMARK  status: ('A' for Active; 'I' for Inactive)
REMARK    1  A    between atoms: C_5  and  C_10
REMARK    2  A    between atoms: C_5  and  C_16
REMARK                            x       y       z     vdW  Elec       q    Type
REMARK                         _______ _______ _______ _____ _____    ______ ____
ROOT
ATOM      1  O   UNL     1      30.800  -7.864 -23.774  0.00  0.00    -0.272 OA
ATOM      2  O   UNL     1      32.740  -7.171 -19.656  0.00  0.00    -0.252 OA
ATOM      3  N   UNL     1      32.661  -9.019 -21.075  0.00  0.00    -0.281 N 
ATOM      4  N   UNL     1      31.601  -7.160 -21.699  0.00  0.00    -0.211 N 
ATOM      5  C   UNL     1      32.072  -9.392 -22.352  0.00  0.00    +0.147 C 
ATOM      6  C   UNL     1      31.405  -8.059 -22.727  0.00  0.00    +0.252 C 
ATOM      7  C   UNL     1      32.367  -7.710 -20.691  0.00  0.00    +0.310 C 
ATOM      8  C   UNL     1      31.103  -5.798 -21.697  0.00  0.00    +0.124 C 
ATOM      9  H   UNL     1      33.214  -9.630 -20.537  0.00  0.00    +0.152 HD
ENDROOT
BRANCH   5  10
ATOM     10  C   UNL     1      33.143  -9.790 -23.358  0.00  0.00    +0.002 C 
ATOM     11  C   UNL     1      34.130  -8.874 -23.727  0.00  0.00    -0.002 C 
ATOM     12  C   UNL     1      33.139 -11.071 -23.911  0.00  0.00    -0.002 C 
ATOM     13  C   UNL     1      35.110  -9.240 -24.649  0.00  0.00    -0.000 C 
ATOM     14  C   UNL     1      34.121 -11.436 -24.833  0.00  0.00    -0.000 C 
ATOM     15  C   UNL     1      35.107 -10.520 -25.202  0.00  0.00    -0.000 C 
ENDBRANCH   5  10
BRANCH   5  16
ATOM     16  C   UNL     1      30.952 -10.411 -22.105  0.00  0.00    +0.031 C 
ATOM     17  C   UNL     1      31.137 -11.135 -20.783  0.00  0.00    +0.003 C 
ENDBRANCH   5  16
TORSDOF 2
ENDMDL
MODEL 2
REMARK VINA RESULT:      -7.5      9.089     10.819
REMARK  Name = 4060
REMARK  2 active torsions:
REMARK  status: ('A' for Active; 'I' for Inactive)
REMARK    1  A    between atoms: C_5  and  C_10
REMARK    2  A    between atoms: C_5  and  C_16
REMARK                            x       y       z     vdW  Elec       q    Type
REMARK                         _______ _______ _______ _____ _____    ______ ____
ROOT
ATOM      1  O   UNL     1      32.369 -20.112 -20.928  0.00  0.00    -0.272 OA
ATOM      2  O   UNL     1      36.649 -20.807 -19.380  0.00  0.00    -0.252 OA
ATOM      3  N   UNL     1      35.736 -19.251 -20.856  0.00  0.00    -0.281 N 
ATOM      4  N   UNL     1      34.386 -20.786 -19.967  0.00  0.00    -0.211 N 
ATOM      5  C   UNL     1      34.448 -18.940 -21.456  0.00  0.00    +0.147 C 
ATOM      6  C   UNL     1      33.578 -20.003 -20.766  0.00  0.00    +0.252 C 
ATOM      7  C   UNL     1      35.695 -20.347 -19.993  0.00  0.00    +0.310 C 
ATOM      8  C   UNL     1      33.913 -21.900 -19.169  0.00  0.00    +0.124 C 
ATOM      9  H   UNL     1      36.555 -18.737 -21.039  0.00  0.00    +0.152 HD
ENDROOT
BRANCH   5  10
ATOM     10  C   UNL     1      34.001 -17.528 -21.101  0.00  0.00    +0.002 C 
ATOM     11  C   UNL     1      32.641 -17.222 -21.037  0.00  0.00    -0.002 C 
ATOM     12  C   UNL     1      34.951 -16.540 -20.840  0.00  0.00    -0.002 C 
ATOM     13  C   UNL     1      32.232 -15.929 -20.712  0.00  0.00    -0.000 C 
ATOM     14  C   UNL     1      34.540 -15.246 -20.514  0.00  0.00    -0.000 C 
ATOM     15  C   UNL     1      33.181 -14.941 -20.450  0.00  0.00    -0.000 C 
ENDBRANCH   5  10
BRANCH   5  16
ATOM     16  C   UNL     1      34.497 -19.286 -22.950  0.00  0.00    +0.031 C 
ATOM     17  C   UNL     1      35.439 -18.366 -23.707  0.00  0.00    +0.003 C 
ENDBRANCH   5  16
TORSDOF 2
ENDMDL
MODEL 3
REMARK VINA RESULT:      -7.4     15.966     17.364
REMARK  Name = 4060
REMARK  2 active torsions:
REMARK  status: ('A' for Active; 'I' for Inactive)
REMARK    1  A    between atoms: C_5  and  C_10
REMARK    2  A    between atoms: C_5  and  C_16
REMARK                            x       y       z     vdW  Elec       q    Type
REMARK                         _______ _______ _______ _____ _____    ______ ____
ROOT
ATOM      1  O   UNL     1      35.717 -25.827 -15.647  0.00  0.00    -0.272 OA
ATOM      2  O   UNL     1      36.964 -23.247 -12.043  0.00  0.00    -0.252 OA
ATOM      3  N   UNL     1      35.788 -22.768 -13.998  0.00  0.00    -0.281 N 
ATOM      4  N   UNL     1      36.545 -24.843 -13.700  0.00  0.00    -0.211 N 
ATOM      5  C   UNL     1      35.363 -23.447 -15.212  0.00  0.00    +0.147 C 
ATOM      6  C   UNL     1      35.881 -24.863 -14.909  0.00  0.00    +0.252 C 
ATOM      7  C   UNL     1      36.496 -23.591 -13.121  0.00  0.00    +0.310 C 
ATOM      8  C   UNL     1      37.177 -25.999 -13.095  0.00  0.00    +0.124 C 
ATOM      9  H   UNL     1      35.594 -21.820 -13.814  0.00  0.00    +0.152 HD
ENDROOT
BRANCH   5  10
ATOM     10  C   UNL     1      33.848 -23.420 -15.358  0.00  0.00    +0.002 C 
ATOM     11  C   UNL     1      33.271 -23.225 -16.614  0.00  0.00    -0.002 C 
ATOM     12  C   UNL     1      33.035 -23.588 -14.236  0.00  0.00    -0.002 C 
ATOM     13  C   UNL     1      31.883 -23.200 -16.747  0.00  0.00    -0.000 C 
ATOM     14  C   UNL     1      31.647 -23.563 -14.371  0.00  0.00    -0.000 C 
ATOM     15  C   UNL     1      31.070 -23.369 -15.626  0.00  0.00    -0.000 C 
ENDBRANCH   5  10
BRANCH   5  16
ATOM     16  C   UNL     1      36.175 -22.906 -16.396  0.00  0.00    +0.031 C 
ATOM     17  C   UNL     1      37.339 -22.049 -15.932  0.00  0.00    +0.003 C 
ENDBRANCH   5  16
TORSDOF 2
ENDMDL
MODEL 4
REMARK VINA RESULT:      -7.4     16.231     18.111
REMARK  Name = 4060
REMARK  2 active torsions:
REMARK  status: ('A' for Active; 'I' for Inactive)
REMARK    1  A    between atoms: C_5  and  C_10
REMARK    2  A    between atoms: C_5  and  C_16
REMARK                            x       y       z     vdW  Elec       q    Type
REMARK                         _______ _______ _______ _____ _____    ______ ____
ROOT
ATOM      1  O   UNL     1      37.516 -22.654 -14.759  0.00  0.00    -0.272 OA
ATOM      2  O   UNL     1      37.709 -27.199 -14.046  0.00  0.00    -0.252 OA
ATOM      3  N   UNL     1      36.068 -25.599 -13.614  0.00  0.00    -0.281 N 
ATOM      4  N   UNL     1      37.989 -24.926 -14.523  0.00  0.00    -0.211 N 
ATOM      5  C   UNL     1      35.883 -24.163 -13.743  0.00  0.00    +0.147 C 
ATOM      6  C   UNL     1      37.217 -23.789 -14.408  0.00  0.00    +0.252 C 
ATOM      7  C   UNL     1      37.315 -26.039 -14.061  0.00  0.00    +0.310 C 
ATOM      8  C   UNL     1      39.320 -24.957 -15.096  0.00  0.00    +0.124 C 
ATOM      9  H   UNL     1      35.381 -26.202 -13.249  0.00  0.00    +0.152 HD
ENDROOT
BRANCH   5  10
ATOM     10  C   UNL     1      34.695 -23.839 -14.639  0.00  0.00    +0.002 C 
ATOM     11  C   UNL     1      33.410 -23.769 -14.098  0.00  0.00    -0.002 C 
ATOM     12  C   UNL     1      34.890 -23.611 -16.002  0.00  0.00    -0.002 C 
ATOM     13  C   UNL     1      32.323 -23.472 -14.919  0.00  0.00    -0.000 C 
ATOM     14  C   UNL     1      33.801 -23.313 -16.823  0.00  0.00    -0.000 C 
ATOM     15  C   UNL     1      32.518 -23.243 -16.281  0.00  0.00    -0.000 C 
ENDBRANCH   5  10
BRANCH   5  16
ATOM     16  C   UNL     1      35.875 -23.533 -12.344  0.00  0.00    +0.031 C 
ATOM     17  C   UNL     1      35.671 -24.579 -11.261  0.00  0.00    +0.003 C 
ENDBRANCH   5  16
TORSDOF 2
ENDMDL
MODEL 5
REMARK VINA RESULT:      -7.3      8.776     10.392
REMARK  Name = 4060
REMARK  2 active torsions:
REMARK  status: ('A' for Active; 'I' for Inactive)
REMARK    1  A    between atoms: C_5  and  C_10
REMARK    2  A    between atoms: C_5  and  C_16
REMARK                            x       y       z     vdW  Elec       q    Type
REMARK                         _______ _______ _______ _____ _____    ______ ____
ROOT
ATOM      1  O   UNL     1      36.941 -18.951 -21.251  0.00  0.00    -0.272 OA
ATOM      2  O   UNL     1      32.919 -20.723 -19.877  0.00  0.00    -0.252 OA
ATOM      3  N   UNL     1      33.480 -18.757 -20.998  0.00  0.00    -0.281 N 
ATOM      4  N   UNL     1      35.124 -20.129 -20.382  0.00  0.00    -0.211 N 
ATOM      5  C   UNL     1      34.673 -18.061 -21.453  0.00  0.00    +0.147 C 
ATOM      6  C   UNL     1      35.743 -19.082 -21.033  0.00  0.00    +0.252 C 
ATOM      7  C   UNL     1      33.754 -19.965 -20.355  0.00  0.00    +0.310 C 
ATOM      8  C   UNL     1      35.821 -21.276 -19.833  0.00  0.00    +0.124 C 
ATOM      9  H   UNL     1      32.568 -18.410 -21.132  0.00  0.00    +0.152 HD
ENDROOT
BRANCH   5  10
ATOM     10  C   UNL     1      34.650 -17.857 -22.962  0.00  0.00    +0.002 C 
ATOM     11  C   UNL     1      34.458 -18.947 -23.812  0.00  0.00    -0.002 C 
ATOM     12  C   UNL     1      34.820 -16.579 -23.496  0.00  0.00    -0.002 C 
ATOM     13  C   UNL     1      34.438 -18.759 -25.193  0.00  0.00    -0.000 C 
ATOM     14  C   UNL     1      34.799 -16.392 -24.879  0.00  0.00    -0.000 C 
ATOM     15  C   UNL     1      34.607 -17.482 -25.727  0.00  0.00    -0.000 C 
ENDBRANCH   5  10
BRANCH   5  16
ATOM     16  C   UNL     1      34.876 -16.805 -20.596  0.00  0.00    +0.031 C 
ATOM     17  C   UNL     1      33.628 -15.939 -20.568  0.00  0.00    +0.003 C 
ENDBRANCH   5  16
TORSDOF 2
ENDMDL
MODEL 6
REMARK VINA RESULT:      -7.0      1.913      4.114
REMARK  Name = 4060
REMARK  2 active torsions:
REMARK  status: ('A' for Active; 'I' for Inactive)
REMARK    1  A    between atoms: C_5  and  C_10
REMARK    2  A    between atoms: C_5  and  C_16
REMARK                            x       y       z     vdW  Elec       q    Type
REMARK                         _______ _______ _______ _____ _____    ______ ____
ROOT
ATOM      1  O   UNL     1      32.213  -6.200 -20.454  0.00  0.00    -0.272 OA
ATOM      2  O   UNL     1      30.719  -6.346 -24.807  0.00  0.00    -0.252 OA
ATOM      3  N   UNL     1      32.026  -7.798 -23.535  0.00  0.00    -0.281 N 
ATOM      4  N   UNL     1      31.316  -5.909 -22.589  0.00  0.00    -0.211 N 
ATOM      5  C   UNL     1      32.598  -7.867 -22.200  0.00  0.00    +0.147 C 
ATOM      6  C   UNL     1      32.032  -6.566 -21.609  0.00  0.00    +0.252 C 
ATOM      7  C   UNL     1      31.286  -6.637 -23.762  0.00  0.00    +0.310 C 
ATOM      8  C   UNL     1      30.645  -4.639 -22.398  0.00  0.00    +0.124 C 
ATOM      9  H   UNL     1      32.148  -8.503 -24.212  0.00  0.00    +0.152 HD
ENDROOT
BRANCH   5  10
ATOM     10  C   UNL     1      32.097  -9.093 -21.448  0.00  0.00    +0.002 C 
ATOM     11  C   UNL     1      31.545 -10.166 -22.150  0.00  0.00    -0.002 C 
ATOM     12  C   UNL     1      32.188  -9.145 -20.057  0.00  0.00    -0.002 C 
ATOM     13  C   UNL     1      31.086 -11.288 -21.462  0.00  0.00    -0.000 C 
ATOM     14  C   UNL     1      31.729 -10.269 -19.369  0.00  0.00    -0.000 C 
ATOM     15  C   UNL     1      31.178 -11.340 -20.071  0.00  0.00    -0.000 C 
ENDBRANCH   5  10
BRANCH   5  16
ATOM     16  C   UNL     1      34.120  -7.701 -22.300  0.00  0.00    +0.031 C 
ATOM     17  C   UNL     1      34.631  -8.055 -23.685  0.00  0.00    +0.003 C 
ENDBRANCH   5  16
TORSDOF 2
ENDMDL
MODEL 7
REMARK VINA RESULT:      -7.0      1.952      4.341
REMARK  Name = 4060
REMARK  2 active torsions:
REMARK  status: ('A' for Active; 'I' for Inactive)
REMARK    1  A    between atoms: C_5  and  C_10
REMARK    2  A    between atoms: C_5  and  C_16
REMARK                            x       y       z     vdW  Elec       q    Type
REMARK                         _______ _______ _______ _____ _____    ______ ____
ROOT
ATOM      1  O   UNL     1      32.107  -9.226 -24.056  0.00  0.00    -0.272 OA
ATOM      2  O   UNL     1      32.389  -8.768 -19.483  0.00  0.00    -0.252 OA
ATOM      3  N   UNL     1      33.166  -7.464 -21.253  0.00  0.00    -0.281 N 
ATOM      4  N   UNL     1      32.081  -9.353 -21.727  0.00  0.00    -0.211 N 
ATOM      5  C   UNL     1      33.189  -7.498 -22.707  0.00  0.00    +0.147 C 
ATOM      6  C   UNL     1      32.393  -8.791 -22.947  0.00  0.00    +0.252 C 
ATOM      7  C   UNL     1      32.526  -8.566 -20.683  0.00  0.00    +0.310 C 
ATOM      8  C   UNL     1      31.342 -10.588 -21.560  0.00  0.00    +0.124 C 
ATOM      9  H   UNL     1      33.562  -6.735 -20.724  0.00  0.00    +0.152 HD
ENDROOT
BRANCH   5  10
ATOM     10  C   UNL     1      32.484  -6.284 -23.298  0.00  0.00    +0.002 C 
ATOM     11  C   UNL     1      31.673  -5.485 -22.490  0.00  0.00    -0.002 C 
ATOM     12  C   UNL     1      32.649  -5.969 -24.647  0.00  0.00    -0.002 C 
ATOM     13  C   UNL     1      31.029  -4.374 -23.031  0.00  0.00    -0.000 C 
ATOM     14  C   UNL     1      32.003  -4.857 -25.188  0.00  0.00    -0.000 C 
ATOM     15  C   UNL     1      31.193  -4.058 -24.379  0.00  0.00    -0.000 C 
ENDBRANCH   5  10
BRANCH   5  16
ATOM     16  C   UNL     1      34.627  -7.750 -23.178  0.00  0.00    +0.031 C 
ATOM     17  C   UNL     1      34.720  -8.987 -24.054  0.00  0.00    +0.003 C 
ENDBRANCH   5  16
TORSDOF 2
ENDMDL
MODEL 8
REMARK VINA RESULT:      -6.9     15.252     16.993
REMARK  Name = 4060
REMARK  2 active torsions:
REMARK  status: ('A' for Active; 'I' for Inactive)
REMARK    1  A    between atoms: C_5  and  C_10
REMARK    2  A    between atoms: C_5  and  C_16
REMARK                            x       y       z     vdW  Elec       q    Type
REMARK                         _______ _______ _______ _____ _____    ______ ____
ROOT
ATOM      1  O   UNL     1      37.607 -22.764 -14.413  0.00  0.00    -0.272 OA
ATOM      2  O   UNL     1      36.530 -27.177 -15.161  0.00  0.00    -0.252 OA
ATOM      3  N   UNL     1      35.375 -25.185 -15.524  0.00  0.00    -0.281 N 
ATOM      4  N   UNL     1      37.405 -25.080 -14.609  0.00  0.00    -0.211 N 
ATOM      5  C   UNL     1      35.562 -23.759 -15.309  0.00  0.00    +0.147 C 
ATOM      6  C   UNL     1      36.983 -23.771 -14.723  0.00  0.00    +0.252 C 
ATOM      7  C   UNL     1      36.456 -25.957 -15.096  0.00  0.00    +0.310 C 
ATOM      8  C   UNL     1      38.695 -25.480 -14.084  0.00  0.00    +0.124 C 
ATOM      9  H   UNL     1      34.565 -25.567 -15.933  0.00  0.00    +0.152 HD
ENDROOT
BRANCH   5  10
ATOM     10  C   UNL     1      35.499 -22.990 -16.621  0.00  0.00    +0.002 C 
ATOM     11  C   UNL     1      34.332 -23.008 -17.386  0.00  0.00    -0.002 C 
ATOM     12  C   UNL     1      36.609 -22.267 -17.061  0.00  0.00    -0.002 C 
ATOM     13  C   UNL     1      34.274 -22.303 -18.587  0.00  0.00    -0.000 C 
ATOM     14  C   UNL     1      36.550 -21.562 -18.264  0.00  0.00    -0.000 C 
ATOM     15  C   UNL     1      35.383 -21.580 -19.027  0.00  0.00    -0.000 C 
ENDBRANCH   5  10
BRANCH   5  16
ATOM     16  C   UNL     1      34.612 -23.293 -14.197  0.00  0.00    +0.031 C 
ATOM     17  C   UNL     1      33.364 -24.156 -14.131  0.00  0.00    +0.003 C 
ENDBRANCH   5  16
TORSDOF 2
ENDMDL
MODEL 9
REMARK VINA RESULT:      -6.8      2.067      4.500
REMARK  Name = 4060
REMARK  2 active torsions:
REMARK  status: ('A' for Active; 'I' for Inactive)
REMARK    1  A    between atoms: C_5  and  C_10
REMARK    2  A    between atoms: C_5  and  C_16
REMARK                            x       y       z     vdW  Elec       q    Type
REMARK                         _______ _______ _______ _____ _____    ______ ____
ROOT
ATOM      1  O   UNL     1      32.762 -11.002 -24.097  0.00  0.00    -0.272 OA
ATOM      2  O   UNL     1      35.328  -7.237 -23.432  0.00  0.00    -0.252 OA
ATOM      3  N   UNL     1      33.218  -7.867 -22.667  0.00  0.00    -0.281 N 
ATOM      4  N   UNL     1      34.310  -9.258 -24.024  0.00  0.00    -0.211 N 
ATOM      5  C   UNL     1      32.287  -8.974 -22.818  0.00  0.00    +0.147 C 
ATOM      6  C   UNL     1      33.124  -9.894 -23.721  0.00  0.00    +0.252 C 
ATOM      7  C   UNL     1      34.399  -8.034 -23.391  0.00  0.00    +0.310 C 
ATOM      8  C   UNL     1      35.348  -9.821 -24.865  0.00  0.00    +0.124 C 
ATOM      9  H   UNL     1      33.033  -7.079 -22.107  0.00  0.00    +0.152 HD
ENDROOT
BRANCH   5  10
ATOM     10  C   UNL     1      31.982  -9.625 -21.476  0.00  0.00    +0.002 C 
ATOM     11  C   UNL     1      31.416 -10.901 -21.432  0.00  0.00    -0.002 C 
ATOM     12  C   UNL     1      32.268  -8.948 -20.291  0.00  0.00    -0.002 C 
ATOM     13  C   UNL     1      31.137 -11.497 -20.203  0.00  0.00    -0.000 C 
ATOM     14  C   UNL     1      31.988  -9.546 -19.061  0.00  0.00    -0.000 C 
ATOM     15  C   UNL     1      31.423 -10.821 -19.017  0.00  0.00    -0.000 C 
ENDBRANCH   5  10
BRANCH   5  16
ATOM     16  C   UNL     1      31.079  -8.501 -23.639  0.00  0.00    +0.031 C 
ATOM     17  C   UNL     1      30.843  -7.009 -23.477  0.00  0.00    +0.003 C 
ENDBRANCH   5  16
TORSDOF 2
ENDMDL
