MODEL 1
REMARK VINA RESULT:      -6.0      0.000      0.000
REMARK  Name = 22128
REMARK  7 active torsions:
REMARK  status: ('A' for Active; 'I' for Inactive)
REMARK    1  A    between atoms: CA_1  and  N_2
REMARK    2  A    between atoms: CA_1  and  C_7
REMARK    3  A    between atoms: CA_1  and  C_10
REMARK    4  A    between atoms: C_7  and  O_8
REMARK    5  A    between atoms: C_10  and  N_11
REMARK    6  A    between atoms: N_11  and  O_12
REMARK    7  A    between atoms: N_11  and  N_15
REMARK                            x       y       z     vdW  Elec       q    Type
REMARK                         _______ _______ _______ _____ _____    ______ ____
ROOT
ATOM      1  CA  UNL     1      36.664 -24.740 -13.359  0.00  0.00    +0.056 C 
ENDROOT
BRANCH   1   2
ATOM      2  N   UNL     1      35.658 -25.340 -14.235  0.00  0.00    +0.390 N 
ATOM      3  H1  UNL     1      35.393 -24.670 -14.957  0.00  0.00    -0.088 HD
ATOM      4  H2  UNL     1      34.836 -25.591 -13.686  0.00  0.00    -0.088 HD
ATOM      5  H3  UNL     1      36.043 -26.176 -14.673  0.00  0.00    -0.088 HD
ENDBRANCH   1   2
BRANCH   1   7
ATOM      6  OXT UNL     1      38.662 -26.136 -13.233  0.00  0.00    -0.253 OA
ATOM      7  C   UNL     1      37.526 -25.885 -12.853  0.00  0.00    +0.294 C 
BRANCH   7   8
ATOM      8  O   UNL     1      36.885 -26.627 -11.910  0.00  0.00    -0.482 OA
ATOM      9  H   UNL     1      37.365 -27.241 -11.390  0.00  0.00    +0.295 HD
ENDBRANCH   7   8
ENDBRANCH   1   7
BRANCH   1  10
ATOM     10  C   UNL     1      35.980 -23.962 -12.228  0.00  0.00    +0.112 C 
BRANCH  10  11
ATOM     11  N   UNL     1      36.793 -23.973 -11.014  0.00  0.00    -0.069 NA
BRANCH  11  12
ATOM     12  O   UNL     1      37.385 -22.644 -10.983  0.00  0.00    -0.294 OA
ATOM     13  H   UNL     1      37.700 -22.452 -10.087  0.00  0.00    +0.238 HD
ENDBRANCH  11  12
BRANCH  11  15
ATOM     14  O   UNL     1      35.245 -25.045 -10.092  0.00  0.00    -0.080 OA
ATOM     15  N   UNL     1      36.118 -24.188  -9.912  0.00  0.00    +0.057 NA
ENDBRANCH  11  15
ENDBRANCH  10  11
ENDBRANCH   1  10
TORSDOF 7
ENDMDL
MODEL 2
REMARK VINA RESULT:      -5.9      2.058      2.377
REMARK  Name = 22128
REMARK  7 active torsions:
REMARK  status: ('A' for Active; 'I' for Inactive)
REMARK    1  A    between atoms: CA_1  and  N_2
REMARK    2  A    between atoms: CA_1  and  C_7
REMARK    3  A    between atoms: CA_1  and  C_10
REMARK    4  A    between atoms: C_7  and  O_8
REMARK    5  A    between atoms: C_10  and  N_11
REMARK    6  A    between atoms: N_11  and  O_12
REMARK    7  A    between atoms: N_11  and  N_15
REMARK                            x       y       z     vdW  Elec       q    Type
REMARK                         _______ _______ _______ _____ _____    ______ ____
ROOT
ATOM      1  CA  UNL     1      37.274 -26.333 -13.455  0.00  0.00    +0.056 C 
ENDROOT
BRANCH   1   2
ATOM      2  N   UNL     1      38.675 -26.042 -13.150  0.00  0.00    +0.390 N 
ATOM      3  H1  UNL     1      39.052 -26.777 -12.552  0.00  0.00    -0.088 HD
ATOM      4  H2  UNL     1      38.739 -25.145 -12.668  0.00  0.00    -0.088 HD
ATOM      5  H3  UNL     1      39.211 -26.002 -14.017  0.00  0.00    -0.088 HD
ENDBRANCH   1   2
BRANCH   1   7
ATOM      6  OXT UNL     1      36.157 -26.662 -15.600  0.00  0.00    -0.253 OA
ATOM      7  C   UNL     1      37.170 -26.386 -14.971  0.00  0.00    +0.294 C 
BRANCH   7   8
ATOM      8  O   UNL     1      38.353 -26.092 -15.573  0.00  0.00    -0.482 OA
ATOM      9  H   UNL     1      39.054 -26.714 -15.560  0.00  0.00    +0.295 HD
ENDBRANCH   7   8
ENDBRANCH   1   7
BRANCH   1  10
ATOM     10  C   UNL     1      36.368 -25.264 -12.831  0.00  0.00    +0.112 C 
BRANCH  10  11
ATOM     11  N   UNL     1      36.401 -25.332 -11.372  0.00  0.00    -0.069 NA
BRANCH  11  12
ATOM     12  O   UNL     1      37.376 -24.318 -11.001  0.00  0.00    -0.294 OA
ATOM     13  H   UNL     1      37.543 -23.738 -11.760  0.00  0.00    +0.238 HD
ENDBRANCH  11  12
BRANCH  11  15
ATOM     14  O   UNL     1      35.424 -24.526  -9.701  0.00  0.00    -0.080 OA
ATOM     15  N   UNL     1      35.252 -25.081 -10.793  0.00  0.00    +0.057 NA
ENDBRANCH  11  15
ENDBRANCH  10  11
ENDBRANCH   1  10
TORSDOF 7
ENDMDL
MODEL 3
REMARK VINA RESULT:      -5.8      3.696      4.857
REMARK  Name = 22128
REMARK  7 active torsions:
REMARK  status: ('A' for Active; 'I' for Inactive)
REMARK    1  A    between atoms: CA_1  and  N_2
REMARK    2  A    between atoms: CA_1  and  C_7
REMARK    3  A    between atoms: CA_1  and  C_10
REMARK    4  A    between atoms: C_7  and  O_8
REMARK    5  A    between atoms: C_10  and  N_11
REMARK    6  A    between atoms: N_11  and  O_12
REMARK    7  A    between atoms: N_11  and  N_15
REMARK                            x       y       z     vdW  Elec       q    Type
REMARK                         _______ _______ _______ _____ _____    ______ ____
ROOT
ATOM      1  CA  UNL     1      37.534 -25.477 -14.066  0.00  0.00    +0.056 C 
ENDROOT
BRANCH   1   2
ATOM      2  N   UNL     1      37.638 -26.620 -13.158  0.00  0.00    +0.390 N 
ATOM      3  H1  UNL     1      38.557 -27.049 -13.256  0.00  0.00    -0.088 HD
ATOM      4  H2  UNL     1      36.917 -27.303 -13.388  0.00  0.00    -0.088 HD
ATOM      5  H3  UNL     1      37.512 -26.302 -12.197  0.00  0.00    -0.088 HD
ENDBRANCH   1   2
BRANCH   1   7
ATOM      6  OXT UNL     1      35.561 -25.486 -15.503  0.00  0.00    -0.253 OA
ATOM      7  C   UNL     1      36.667 -25.934 -15.228  0.00  0.00    +0.294 C 
BRANCH   7   8
ATOM      8  O   UNL     1      37.260 -26.922 -15.948  0.00  0.00    -0.482 OA
ATOM      9  H   UNL     1      37.454 -27.745 -15.545  0.00  0.00    +0.295 HD
ENDBRANCH   7   8
ENDBRANCH   1   7
BRANCH   1  10
ATOM     10  C   UNL     1      38.932 -25.026 -14.505  0.00  0.00    +0.112 C 
BRANCH  10  11
ATOM     11  N   UNL     1      39.819 -26.172 -14.697  0.00  0.00    -0.069 NA
BRANCH  11  12
ATOM     12  O   UNL     1      40.374 -25.959 -16.026  0.00  0.00    -0.294 OA
ATOM     13  H   UNL     1      39.846 -26.445 -16.677  0.00  0.00    +0.238 HD
ENDBRANCH  11  12
BRANCH  11  15
ATOM     14  O   UNL     1      41.526 -27.218 -14.073  0.00  0.00    -0.080 OA
ATOM     15  N   UNL     1      40.786 -26.260 -13.817  0.00  0.00    +0.057 NA
ENDBRANCH  11  15
ENDBRANCH  10  11
ENDBRANCH   1  10
TORSDOF 7
ENDMDL
MODEL 4
REMARK VINA RESULT:      -5.7      3.592      4.554
REMARK  Name = 22128
REMARK  7 active torsions:
REMARK  status: ('A' for Active; 'I' for Inactive)
REMARK    1  A    between atoms: CA_1  and  N_2
REMARK    2  A    between atoms: CA_1  and  C_7
REMARK    3  A    between atoms: CA_1  and  C_10
REMARK    4  A    between atoms: C_7  and  O_8
REMARK    5  A    between atoms: C_10  and  N_11
REMARK    6  A    between atoms: N_11  and  O_12
REMARK    7  A    between atoms: N_11  and  N_15
REMARK                            x       y       z     vdW  Elec       q    Type
REMARK                         _______ _______ _______ _____ _____    ______ ____
ROOT
ATOM      1  CA  UNL     1      38.717 -25.744 -13.674  0.00  0.00    +0.056 C 
ENDROOT
BRANCH   1   2
ATOM      2  N   UNL     1      38.119 -24.532 -13.116  0.00  0.00    +0.390 N 
ATOM      3  H1  UNL     1      38.191 -24.555 -12.099  0.00  0.00    -0.088 HD
ATOM      4  H2  UNL     1      37.137 -24.481 -13.387  0.00  0.00    -0.088 HD
ATOM      5  H3  UNL     1      38.614 -23.714 -13.472  0.00  0.00    -0.088 HD
ENDBRANCH   1   2
BRANCH   1   7
ATOM      6  OXT UNL     1      40.844 -25.743 -14.871  0.00  0.00    -0.253 OA
ATOM      7  C   UNL     1      39.720 -25.283 -14.720  0.00  0.00    +0.294 C 
BRANCH   7   8
ATOM      8  O   UNL     1      39.227 -24.276 -15.488  0.00  0.00    -0.482 OA
ATOM      9  H   UNL     1      38.936 -24.451 -16.361  0.00  0.00    +0.295 HD
ENDBRANCH   7   8
ENDBRANCH   1   7
BRANCH   1  10
ATOM     10  C   UNL     1      37.623 -26.650 -14.254  0.00  0.00    +0.112 C 
BRANCH  10  11
ATOM     11  N   UNL     1      37.112 -26.117 -15.515  0.00  0.00    -0.069 NA
BRANCH  11  12
ATOM     12  O   UNL     1      36.767 -27.308 -16.278  0.00  0.00    -0.294 OA
ATOM     13  H   UNL     1      36.453 -27.998 -15.674  0.00  0.00    +0.238 HD
ENDBRANCH  11  12
BRANCH  11  15
ATOM     14  O   UNL     1      36.328 -24.183 -15.710  0.00  0.00    -0.080 OA
ATOM     15  N   UNL     1      36.060 -25.346 -15.390  0.00  0.00    +0.057 NA
ENDBRANCH  11  15
ENDBRANCH  10  11
ENDBRANCH   1  10
TORSDOF 7
ENDMDL
MODEL 5
REMARK VINA RESULT:      -5.6      2.631      4.534
REMARK  Name = 22128
REMARK  7 active torsions:
REMARK  status: ('A' for Active; 'I' for Inactive)
REMARK    1  A    between atoms: CA_1  and  N_2
REMARK    2  A    between atoms: CA_1  and  C_7
REMARK    3  A    between atoms: CA_1  and  C_10
REMARK    4  A    between atoms: C_7  and  O_8
REMARK    5  A    between atoms: C_10  and  N_11
REMARK    6  A    between atoms: N_11  and  O_12
REMARK    7  A    between atoms: N_11  and  N_15
REMARK                            x       y       z     vdW  Elec       q    Type
REMARK                         _______ _______ _______ _____ _____    ______ ____
ROOT
ATOM      1  CA  UNL     1      38.104 -25.449 -12.497  0.00  0.00    +0.056 C 
ENDROOT
BRANCH   1   2
ATOM      2  N   UNL     1      36.803 -25.908 -12.984  0.00  0.00    +0.390 N 
ATOM      3  H1  UNL     1      36.590 -25.449 -13.869  0.00  0.00    -0.088 HD
ATOM      4  H2  UNL     1      36.083 -25.677 -12.299  0.00  0.00    -0.088 HD
ATOM      5  H3  UNL     1      36.829 -26.918 -13.123  0.00  0.00    -0.088 HD
ENDBRANCH   1   2
BRANCH   1   7
ATOM      6  OXT UNL     1      38.485 -23.158 -11.747  0.00  0.00    -0.253 OA
ATOM      7  C   UNL     1      37.836 -24.194 -11.682  0.00  0.00    +0.294 C 
BRANCH   7   8
ATOM      8  O   UNL     1      36.774 -24.346 -10.847  0.00  0.00    -0.482 OA
ATOM      9  H   UNL     1      36.551 -25.195 -10.521  0.00  0.00    +0.295 HD
ENDBRANCH   7   8
ENDBRANCH   1   7
BRANCH   1  10
ATOM     10  C   UNL     1      39.050 -25.203 -13.679  0.00  0.00    +0.112 C 
BRANCH  10  11
ATOM     11  N   UNL     1      39.265 -26.428 -14.446  0.00  0.00    -0.069 NA
BRANCH  11  12
ATOM     12  O   UNL     1      38.276 -26.346 -15.511  0.00  0.00    -0.294 OA
ATOM     13  H   UNL     1      37.939 -27.234 -15.707  0.00  0.00    +0.238 HD
ENDBRANCH  11  12
BRANCH  11  15
ATOM     14  O   UNL     1      41.306 -26.724 -14.070  0.00  0.00    -0.080 OA
ATOM     15  N   UNL     1      40.465 -26.543 -14.958  0.00  0.00    +0.057 NA
ENDBRANCH  11  15
ENDBRANCH  10  11
ENDBRANCH   1  10
TORSDOF 7
ENDMDL
MODEL 6
REMARK VINA RESULT:      -5.6      1.474      1.908
REMARK  Name = 22128
REMARK  7 active torsions:
REMARK  status: ('A' for Active; 'I' for Inactive)
REMARK    1  A    between atoms: CA_1  and  N_2
REMARK    2  A    between atoms: CA_1  and  C_7
REMARK    3  A    between atoms: CA_1  and  C_10
REMARK    4  A    between atoms: C_7  and  O_8
REMARK    5  A    between atoms: C_10  and  N_11
REMARK    6  A    between atoms: N_11  and  O_12
REMARK    7  A    between atoms: N_11  and  N_15
REMARK                            x       y       z     vdW  Elec       q    Type
REMARK                         _______ _______ _______ _____ _____    ______ ____
ROOT
ATOM      1  CA  UNL     1      37.475 -25.483 -13.851  0.00  0.00    +0.056 C 
ENDROOT
BRANCH   1   2
ATOM      2  N   UNL     1      36.989 -26.642 -13.102  0.00  0.00    +0.390 N 
ATOM      3  H1  UNL     1      36.444 -27.241 -13.721  0.00  0.00    -0.088 HD
ATOM      4  H2  UNL     1      36.403 -26.326 -12.329  0.00  0.00    -0.088 HD
ATOM      5  H3  UNL     1      37.784 -27.166 -12.735  0.00  0.00    -0.088 HD
ENDBRANCH   1   2
BRANCH   1   7
ATOM      6  OXT UNL     1      39.393 -26.769 -14.640  0.00  0.00    -0.253 OA
ATOM      7  C   UNL     1      38.944 -25.746 -14.139  0.00  0.00    +0.294 C 
BRANCH   7   8
ATOM      8  O   UNL     1      39.731 -24.700 -13.769  0.00  0.00    -0.482 OA
ATOM      9  H   UNL     1      40.304 -24.301 -14.393  0.00  0.00    +0.295 HD
ENDBRANCH   7   8
ENDBRANCH   1   7
BRANCH   1  10
ATOM     10  C   UNL     1      37.246 -24.201 -13.040  0.00  0.00    +0.112 C 
BRANCH  10  11
ATOM     11  N   UNL     1      37.695 -24.364 -11.659  0.00  0.00    -0.069 NA
BRANCH  11  12
ATOM     12  O   UNL     1      38.706 -23.328 -11.500  0.00  0.00    -0.294 OA
ATOM     13  H   UNL     1      39.585 -23.713 -11.635  0.00  0.00    +0.238 HD
ENDBRANCH  11  12
BRANCH  11  15
ATOM     14  O   UNL     1      35.907 -25.107 -10.854  0.00  0.00    -0.080 OA
ATOM     15  N   UNL     1      36.753 -24.209 -10.762  0.00  0.00    +0.057 NA
ENDBRANCH  11  15
ENDBRANCH  10  11
ENDBRANCH   1  10
TORSDOF 7
ENDMDL
MODEL 7
REMARK VINA RESULT:      -5.5      1.759      2.169
REMARK  Name = 22128
REMARK  7 active torsions:
REMARK  status: ('A' for Active; 'I' for Inactive)
REMARK    1  A    between atoms: CA_1  and  N_2
REMARK    2  A    between atoms: CA_1  and  C_7
REMARK    3  A    between atoms: CA_1  and  C_10
REMARK    4  A    between atoms: C_7  and  O_8
REMARK    5  A    between atoms: C_10  and  N_11
REMARK    6  A    between atoms: N_11  and  O_12
REMARK    7  A    between atoms: N_11  and  N_15
REMARK                            x       y       z     vdW  Elec       q    Type
REMARK                         _______ _______ _______ _____ _____    ______ ____
ROOT
ATOM      1  CA  UNL     1      36.935 -23.749 -13.354  0.00  0.00    +0.056 C 
ENDROOT
BRANCH   1   2
ATOM      2  N   UNL     1      35.557 -23.258 -13.338  0.00  0.00    +0.390 N 
ATOM      3  H1  UNL     1      35.156 -23.401 -12.412  0.00  0.00    -0.088 HD
ATOM      4  H2  UNL     1      35.007 -23.768 -14.029  0.00  0.00    -0.088 HD
ATOM      5  H3  UNL     1      35.548 -22.264 -13.563  0.00  0.00    -0.088 HD
ENDBRANCH   1   2
BRANCH   1   7
ATOM      6  OXT UNL     1      36.411 -25.040 -15.358  0.00  0.00    -0.253 OA
ATOM      7  C   UNL     1      37.175 -24.302 -14.750  0.00  0.00    +0.294 C 
BRANCH   7   8
ATOM      8  O   UNL     1      38.361 -23.884 -15.266  0.00  0.00    -0.482 OA
ATOM      9  H   UNL     1      38.723 -23.060 -15.005  0.00  0.00    +0.295 HD
ENDBRANCH   7   8
ENDBRANCH   1   7
BRANCH   1  10
ATOM     10  C   UNL     1      37.131 -24.800 -12.254  0.00  0.00    +0.112 C 
BRANCH  10  11
ATOM     11  N   UNL     1      37.252 -24.172 -10.941  0.00  0.00    -0.069 NA
BRANCH  11  12
ATOM     12  O   UNL     1      37.638 -22.802 -11.248  0.00  0.00    -0.294 OA
ATOM     13  H   UNL     1      37.652 -22.679 -12.210  0.00  0.00    +0.238 HD
ENDBRANCH  11  12
BRANCH  11  15
ATOM     14  O   UNL     1      35.381 -25.064 -10.626  0.00  0.00    -0.080 OA
ATOM     15  N   UNL     1      36.148 -24.177 -10.234  0.00  0.00    +0.057 NA
ENDBRANCH  11  15
ENDBRANCH  10  11
ENDBRANCH   1  10
TORSDOF 7
ENDMDL
MODEL 8
REMARK VINA RESULT:      -5.4      2.111      2.802
REMARK  Name = 22128
REMARK  7 active torsions:
REMARK  status: ('A' for Active; 'I' for Inactive)
REMARK    1  A    between atoms: CA_1  and  N_2
REMARK    2  A    between atoms: CA_1  and  C_7
REMARK    3  A    between atoms: CA_1  and  C_10
REMARK    4  A    between atoms: C_7  and  O_8
REMARK    5  A    between atoms: C_10  and  N_11
REMARK    6  A    between atoms: N_11  and  O_12
REMARK    7  A    between atoms: N_11  and  N_15
REMARK                            x       y       z     vdW  Elec       q    Type
REMARK                         _______ _______ _______ _____ _____    ______ ____
ROOT
ATOM      1  CA  UNL     1      37.872 -25.995 -14.214  0.00  0.00    +0.056 C 
ENDROOT
BRANCH   1   2
ATOM      2  N   UNL     1      38.114 -24.587 -14.529  0.00  0.00    +0.390 N 
ATOM      3  H1  UNL     1      37.847 -24.010 -13.733  0.00  0.00    -0.088 HD
ATOM      4  H2  UNL     1      37.560 -24.321 -15.343  0.00  0.00    -0.088 HD
ATOM      5  H3  UNL     1      39.104 -24.450 -14.732  0.00  0.00    -0.088 HD
ENDBRANCH   1   2
BRANCH   1   7
ATOM      6  OXT UNL     1      36.712 -27.165 -16.014  0.00  0.00    -0.253 OA
ATOM      7  C   UNL     1      36.671 -26.418 -15.045  0.00  0.00    +0.294 C 
BRANCH   7   8
ATOM      8  O   UNL     1      35.517 -25.861 -14.592  0.00  0.00    -0.482 OA
ATOM      9  H   UNL     1      35.238 -25.028 -14.919  0.00  0.00    +0.295 HD
ENDBRANCH   7   8
ENDBRANCH   1   7
BRANCH   1  10
ATOM     10  C   UNL     1      37.643 -26.163 -12.706  0.00  0.00    +0.112 C 
BRANCH  10  11
ATOM     11  N   UNL     1      37.081 -24.948 -12.120  0.00  0.00    -0.069 NA
BRANCH  11  12
ATOM     12  O   UNL     1      35.842 -25.402 -11.507  0.00  0.00    -0.294 OA
ATOM     13  H   UNL     1      36.036 -25.805 -10.646  0.00  0.00    +0.238 HD
ENDBRANCH  11  12
BRANCH  11  15
ATOM     14  O   UNL     1      38.332 -23.331 -11.654  0.00  0.00    -0.080 OA
ATOM     15  N   UNL     1      37.844 -24.380 -11.218  0.00  0.00    +0.057 NA
ENDBRANCH  11  15
ENDBRANCH  10  11
ENDBRANCH   1  10
TORSDOF 7
ENDMDL
MODEL 9
REMARK VINA RESULT:      -5.4      9.317     10.247
REMARK  Name = 22128
REMARK  7 active torsions:
REMARK  status: ('A' for Active; 'I' for Inactive)
REMARK    1  A    between atoms: CA_1  and  N_2
REMARK    2  A    between atoms: CA_1  and  C_7
REMARK    3  A    between atoms: CA_1  and  C_10
REMARK    4  A    between atoms: C_7  and  O_8
REMARK    5  A    between atoms: C_10  and  N_11
REMARK    6  A    between atoms: N_11  and  O_12
REMARK    7  A    between atoms: N_11  and  N_15
REMARK                            x       y       z     vdW  Elec       q    Type
REMARK                         _______ _______ _______ _____ _____    ______ ____
ROOT
ATOM      1  CA  UNL     1      29.095 -22.663 -15.643  0.00  0.00    +0.056 C 
ENDROOT
BRANCH   1   2
ATOM      2  N   UNL     1      29.746 -22.497 -16.943  0.00  0.00    +0.390 N 
ATOM      3  H1  UNL     1      30.372 -21.693 -16.909  0.00  0.00    -0.088 HD
ATOM      4  H2  UNL     1      29.037 -22.347 -17.661  0.00  0.00    -0.088 HD
ATOM      5  H3  UNL     1      30.282 -23.336 -17.163  0.00  0.00    -0.088 HD
ENDBRANCH   1   2
BRANCH   1   7
ATOM      6  OXT UNL     1      30.003 -24.353 -14.135  0.00  0.00    -0.253 OA
ATOM      7  C   UNL     1      29.425 -24.071 -15.177  0.00  0.00    +0.294 C 
BRANCH   7   8
ATOM      8  O   UNL     1      29.005 -25.013 -16.063  0.00  0.00    -0.482 OA
ATOM      9  H   UNL     1      28.097 -25.074 -16.288  0.00  0.00    +0.295 HD
ENDBRANCH   7   8
ENDBRANCH   1   7
BRANCH   1  10
ATOM     10  C   UNL     1      27.587 -22.415 -15.775  0.00  0.00    +0.112 C 
BRANCH  10  11
ATOM     11  N   UNL     1      27.237 -22.009 -17.135  0.00  0.00    -0.069 NA
BRANCH  11  12
ATOM     12  O   UNL     1      27.214 -23.262 -17.875  0.00  0.00    -0.294 OA
ATOM     13  H   UNL     1      27.674 -23.146 -18.720  0.00  0.00    +0.238 HD
ENDBRANCH  11  12
BRANCH  11  15
ATOM     14  O   UNL     1      26.162 -20.415 -17.972  0.00  0.00    -0.080 OA
ATOM     15  N   UNL     1      26.078 -21.407 -17.239  0.00  0.00    +0.057 NA
ENDBRANCH  11  15
ENDBRANCH  10  11
ENDBRANCH   1  10
TORSDOF 7
ENDMDL
