MODEL 1
REMARK VINA RESULT:      -9.1      0.000      0.000
REMARK  Name = 2797541
REMARK  7 active torsions:
REMARK  status: ('A' for Active; 'I' for Inactive)
REMARK    1  A    between atoms: C_4  and  C_15
REMARK    2  A    between atoms: C_5  and  C_6
REMARK    3  A    between atoms: C_9  and  N_14
REMARK    4  A    between atoms: C_15  and  C_16
REMARK    5  A    between atoms: C_16  and  C_17
REMARK    6  A    between atoms: C_17  and  C_19
REMARK    7  A    between atoms: C_19  and  O_20
REMARK                            x       y       z     vdW  Elec       q    Type
REMARK                         _______ _______ _______ _____ _____    ______ ____
ROOT
ATOM      1  O   UNL     1      35.370 -24.476 -11.767  0.00  0.00    -0.316 OA
ATOM      2  N   UNL     1      35.481 -24.798 -13.981  0.00  0.00    -0.313 NA
ATOM      3  N   UNL     1      34.210 -23.901 -12.302  0.00  0.00    -0.007 NA
ATOM      4  C   UNL     1      36.028 -24.962 -12.831  0.00  0.00    +0.294 C 
ATOM      5  C   UNL     1      34.348 -24.133 -13.611  0.00  0.00    +0.127 C 
ENDROOT
BRANCH   5   6
ATOM      6  C   UNL     1      33.374 -23.712 -14.576  0.00  0.00    +0.079 C 
ATOM      7  C   UNL     1      33.735 -23.564 -15.916  0.00  0.00    +0.035 C 
ATOM      8  C   UNL     1      32.063 -23.450 -14.176  0.00  0.00    +0.011 C 
ATOM      9  C   UNL     1      32.787 -23.154 -16.854  0.00  0.00    +0.144 C 
ATOM     10  C   UNL     1      31.115 -23.040 -15.115  0.00  0.00    +0.002 C 
ATOM     11  C   UNL     1      31.477 -22.892 -16.453  0.00  0.00    +0.024 C 
BRANCH   9  14
ATOM     12  O   UNL     1      33.878 -23.880 -18.751  0.00  0.00    -0.126 OA
ATOM     13  O   UNL     1      32.748 -22.000 -18.851  0.00  0.00    -0.126 OA
ATOM     14  N   UNL     1      33.155 -23.004 -18.218  0.00  0.00    +0.058 N 
ENDBRANCH   9  14
ENDBRANCH   5   6
BRANCH   4  15
ATOM     15  C   UNL     1      37.336 -25.643 -12.514  0.00  0.00    +0.103 C 
BRANCH  15  16
ATOM     16  C   UNL     1      38.081 -26.048 -13.791  0.00  0.00    +0.023 C 
BRANCH  16  17
ATOM     17  C   UNL     1      39.379 -25.264 -13.983  0.00  0.00    +0.110 C 
BRANCH  17  19
ATOM     18  O   UNL     1      41.301 -26.759 -14.065  0.00  0.00    -0.250 OA
ATOM     19  C   UNL     1      40.472 -26.073 -14.646  0.00  0.00    +0.314 C 
BRANCH  19  20
ATOM     20  O   UNL     1      40.442 -25.933 -15.998  0.00  0.00    -0.480 OA
ATOM     21  H   UNL     1      39.634 -26.031 -16.461  0.00  0.00    +0.295 HD
ENDBRANCH  19  20
ENDBRANCH  17  19
ENDBRANCH  16  17
ENDBRANCH  15  16
ENDBRANCH   4  15
TORSDOF 7
ENDMDL
MODEL 2
REMARK VINA RESULT:      -9.1      2.730      8.026
REMARK  Name = 2797541
REMARK  7 active torsions:
REMARK  status: ('A' for Active; 'I' for Inactive)
REMARK    1  A    between atoms: C_4  and  C_15
REMARK    2  A    between atoms: C_5  and  C_6
REMARK    3  A    between atoms: C_9  and  N_14
REMARK    4  A    between atoms: C_15  and  C_16
REMARK    5  A    between atoms: C_16  and  C_17
REMARK    6  A    between atoms: C_17  and  C_19
REMARK    7  A    between atoms: C_19  and  O_20
REMARK                            x       y       z     vdW  Elec       q    Type
REMARK                         _______ _______ _______ _____ _____    ______ ____
ROOT
ATOM      1  O   UNL     1      33.471 -23.178 -17.206  0.00  0.00    -0.316 OA
ATOM      2  N   UNL     1      33.003 -23.857 -15.123  0.00  0.00    -0.313 NA
ATOM      3  N   UNL     1      34.670 -23.676 -16.681  0.00  0.00    -0.007 NA
ATOM      4  C   UNL     1      32.578 -23.333 -16.216  0.00  0.00    +0.294 C 
ATOM      5  C   UNL     1      34.312 -24.058 -15.451  0.00  0.00    +0.127 C 
ENDROOT
BRANCH   5   6
ATOM      6  C   UNL     1      35.238 -24.643 -14.524  0.00  0.00    +0.079 C 
ATOM      7  C   UNL     1      35.194 -24.291 -13.175  0.00  0.00    +0.035 C 
ATOM      8  C   UNL     1      36.185 -25.566 -14.972  0.00  0.00    +0.011 C 
ATOM      9  C   UNL     1      36.095 -24.860 -12.274  0.00  0.00    +0.144 C 
ATOM     10  C   UNL     1      37.087 -26.135 -14.072  0.00  0.00    +0.002 C 
ATOM     11  C   UNL     1      37.041 -25.782 -12.723  0.00  0.00    +0.024 C 
BRANCH   9  14
ATOM     12  O   UNL     1      35.185 -25.033 -10.164  0.00  0.00    -0.126 OA
ATOM     13  O   UNL     1      36.875 -23.665 -10.463  0.00  0.00    -0.126 OA
ATOM     14  N   UNL     1      36.050 -24.502 -10.901  0.00  0.00    +0.058 N 
ENDBRANCH   9  14
ENDBRANCH   5   6
BRANCH   4  15
ATOM     15  C   UNL     1      31.182 -22.862 -16.538  0.00  0.00    +0.103 C 
BRANCH  15  16
ATOM     16  C   UNL     1      30.256 -22.981 -15.322  0.00  0.00    +0.023 C 
BRANCH  16  17
ATOM     17  C   UNL     1      28.949 -23.702 -15.650  0.00  0.00    +0.110 C 
BRANCH  17  19
ATOM     18  O   UNL     1      27.937 -21.830 -16.836  0.00  0.00    -0.250 OA
ATOM     19  C   UNL     1      28.158 -23.029 -16.750  0.00  0.00    +0.314 C 
BRANCH  19  20
ATOM     20  O   UNL     1      27.686 -23.935 -17.647  0.00  0.00    -0.480 OA
ATOM     21  H   UNL     1      28.268 -24.561 -18.031  0.00  0.00    +0.295 HD
ENDBRANCH  19  20
ENDBRANCH  17  19
ENDBRANCH  16  17
ENDBRANCH  15  16
ENDBRANCH   4  15
TORSDOF 7
ENDMDL
MODEL 3
REMARK VINA RESULT:      -9.1      7.607     11.547
REMARK  Name = 2797541
REMARK  7 active torsions:
REMARK  status: ('A' for Active; 'I' for Inactive)
REMARK    1  A    between atoms: C_4  and  C_15
REMARK    2  A    between atoms: C_5  and  C_6
REMARK    3  A    between atoms: C_9  and  N_14
REMARK    4  A    between atoms: C_15  and  C_16
REMARK    5  A    between atoms: C_16  and  C_17
REMARK    6  A    between atoms: C_17  and  C_19
REMARK    7  A    between atoms: C_19  and  O_20
REMARK                            x       y       z     vdW  Elec       q    Type
REMARK                         _______ _______ _______ _____ _____    ______ ____
ROOT
ATOM      1  O   UNL     1      34.673 -17.282 -23.529  0.00  0.00    -0.316 OA
ATOM      2  N   UNL     1      35.045 -17.141 -21.325  0.00  0.00    -0.313 NA
ATOM      3  N   UNL     1      34.912 -18.591 -23.090  0.00  0.00    -0.007 NA
ATOM      4  C   UNL     1      34.777 -16.530 -22.422  0.00  0.00    +0.294 C 
ATOM      5  C   UNL     1      35.122 -18.425 -21.780  0.00  0.00    +0.127 C 
ENDROOT
BRANCH   5   6
ATOM      6  C   UNL     1      35.413 -19.519 -20.900  0.00  0.00    +0.079 C 
ATOM      7  C   UNL     1      34.394 -20.385 -20.500  0.00  0.00    +0.035 C 
ATOM      8  C   UNL     1      36.716 -19.721 -20.443  0.00  0.00    +0.011 C 
ATOM      9  C   UNL     1      34.677 -21.450 -19.644  0.00  0.00    +0.144 C 
ATOM     10  C   UNL     1      37.000 -20.786 -19.587  0.00  0.00    +0.002 C 
ATOM     11  C   UNL     1      35.980 -21.650 -19.188  0.00  0.00    +0.024 C 
BRANCH   9  14
ATOM     12  O   UNL     1      33.837 -23.568 -19.296  0.00  0.00    -0.126 OA
ATOM     13  O   UNL     1      32.556 -21.847 -18.831  0.00  0.00    -0.126 OA
ATOM     14  N   UNL     1      33.640 -22.330 -19.238  0.00  0.00    +0.058 N 
ENDBRANCH   9  14
ENDBRANCH   5   6
BRANCH   4  15
ATOM     15  C   UNL     1      34.558 -15.053 -22.633  0.00  0.00    +0.103 C 
BRANCH  15  16
ATOM     16  C   UNL     1      33.212 -14.778 -23.314  0.00  0.00    +0.023 C 
BRANCH  16  17
ATOM     17  C   UNL     1      33.367 -14.000 -24.621  0.00  0.00    +0.110 C 
BRANCH  17  19
ATOM     18  O   UNL     1      33.904 -15.771 -26.205  0.00  0.00    -0.250 OA
ATOM     19  C   UNL     1      33.173 -14.858 -25.852  0.00  0.00    +0.314 C 
BRANCH  19  20
ATOM     20  O   UNL     1      32.074 -14.475 -26.554  0.00  0.00    -0.480 OA
ATOM     21  H   UNL     1      32.168 -13.936 -27.315  0.00  0.00    +0.295 HD
ENDBRANCH  19  20
ENDBRANCH  17  19
ENDBRANCH  16  17
ENDBRANCH  15  16
ENDBRANCH   4  15
TORSDOF 7
ENDMDL
MODEL 4
REMARK VINA RESULT:      -9.0      3.358      7.319
REMARK  Name = 2797541
REMARK  7 active torsions:
REMARK  status: ('A' for Active; 'I' for Inactive)
REMARK    1  A    between atoms: C_4  and  C_15
REMARK    2  A    between atoms: C_5  and  C_6
REMARK    3  A    between atoms: C_9  and  N_14
REMARK    4  A    between atoms: C_15  and  C_16
REMARK    5  A    between atoms: C_16  and  C_17
REMARK    6  A    between atoms: C_17  and  C_19
REMARK    7  A    between atoms: C_19  and  O_20
REMARK                            x       y       z     vdW  Elec       q    Type
REMARK                         _______ _______ _______ _____ _____    ______ ____
ROOT
ATOM      1  O   UNL     1      34.838 -22.812 -17.412  0.00  0.00    -0.316 OA
ATOM      2  N   UNL     1      36.848 -22.793 -16.424  0.00  0.00    -0.313 NA
ATOM      3  N   UNL     1      34.740 -23.675 -16.314  0.00  0.00    -0.007 NA
ATOM      4  C   UNL     1      36.102 -22.362 -17.375  0.00  0.00    +0.294 C 
ATOM      5  C   UNL     1      35.964 -23.610 -15.781  0.00  0.00    +0.127 C 
ENDROOT
BRANCH   5   6
ATOM      6  C   UNL     1      36.337 -24.349 -14.610  0.00  0.00    +0.079 C 
ATOM      7  C   UNL     1      36.183 -23.781 -13.345  0.00  0.00    +0.035 C 
ATOM      8  C   UNL     1      36.855 -25.640 -14.734  0.00  0.00    +0.011 C 
ATOM      9  C   UNL     1      36.546 -24.500 -12.206  0.00  0.00    +0.144 C 
ATOM     10  C   UNL     1      37.218 -26.359 -13.595  0.00  0.00    +0.002 C 
ATOM     11  C   UNL     1      37.064 -25.789 -12.331  0.00  0.00    +0.024 C 
BRANCH   9  14
ATOM     12  O   UNL     1      37.080 -22.921 -10.614  0.00  0.00    -0.126 OA
ATOM     13  O   UNL     1      35.560 -24.425 -10.123  0.00  0.00    -0.126 OA
ATOM     14  N   UNL     1      36.388 -23.921 -10.919  0.00  0.00    +0.058 N 
ENDBRANCH   9  14
ENDBRANCH   5   6
BRANCH   4  15
ATOM     15  C   UNL     1      36.466 -21.397 -18.476  0.00  0.00    +0.103 C 
BRANCH  15  16
ATOM     16  C   UNL     1      35.697 -21.704 -19.767  0.00  0.00    +0.023 C 
BRANCH  16  17
ATOM     17  C   UNL     1      34.785 -20.553 -20.191  0.00  0.00    +0.110 C 
BRANCH  17  19
ATOM     18  O   UNL     1      32.395 -20.082 -20.219  0.00  0.00    -0.250 OA
ATOM     19  C   UNL     1      33.314 -20.865 -20.026  0.00  0.00    +0.314 C 
BRANCH  19  20
ATOM     20  O   UNL     1      33.123 -22.143 -19.606  0.00  0.00    -0.480 OA
ATOM     21  H   UNL     1      33.076 -22.333 -18.690  0.00  0.00    +0.295 HD
ENDBRANCH  19  20
ENDBRANCH  17  19
ENDBRANCH  16  17
ENDBRANCH  15  16
ENDBRANCH   4  15
TORSDOF 7
ENDMDL
MODEL 5
REMARK VINA RESULT:      -9.0      2.935      4.330
REMARK  Name = 2797541
REMARK  7 active torsions:
REMARK  status: ('A' for Active; 'I' for Inactive)
REMARK    1  A    between atoms: C_4  and  C_15
REMARK    2  A    between atoms: C_5  and  C_6
REMARK    3  A    between atoms: C_9  and  N_14
REMARK    4  A    between atoms: C_15  and  C_16
REMARK    5  A    between atoms: C_16  and  C_17
REMARK    6  A    between atoms: C_17  and  C_19
REMARK    7  A    between atoms: C_19  and  O_20
REMARK                            x       y       z     vdW  Elec       q    Type
REMARK                         _______ _______ _______ _____ _____    ______ ____
ROOT
ATOM      1  O   UNL     1      34.886 -23.018 -16.619  0.00  0.00    -0.316 OA
ATOM      2  N   UNL     1      33.901 -23.543 -14.677  0.00  0.00    -0.313 NA
ATOM      3  N   UNL     1      33.531 -23.220 -16.912  0.00  0.00    -0.007 NA
ATOM      4  C   UNL     1      34.981 -23.234 -15.298  0.00  0.00    +0.294 C 
ATOM      5  C   UNL     1      33.017 -23.525 -15.716  0.00  0.00    +0.127 C 
ENDROOT
BRANCH   5   6
ATOM      6  C   UNL     1      31.625 -23.817 -15.526  0.00  0.00    +0.079 C 
ATOM      7  C   UNL     1      30.665 -23.201 -16.328  0.00  0.00    +0.035 C 
ATOM      8  C   UNL     1      31.231 -24.720 -14.537  0.00  0.00    +0.011 C 
ATOM      9  C   UNL     1      29.311 -23.486 -16.143  0.00  0.00    +0.144 C 
ATOM     10  C   UNL     1      29.877 -25.005 -14.351  0.00  0.00    +0.002 C 
ATOM     11  C   UNL     1      28.918 -24.388 -15.154  0.00  0.00    +0.024 C 
BRANCH   9  14
ATOM     12  O   UNL     1      27.827 -23.507 -17.906  0.00  0.00    -0.126 OA
ATOM     13  O   UNL     1      28.005 -21.673 -16.713  0.00  0.00    -0.126 OA
ATOM     14  N   UNL     1      28.334 -22.859 -16.960  0.00  0.00    +0.058 N 
ENDBRANCH   9  14
ENDBRANCH   5   6
BRANCH   4  15
ATOM     15  C   UNL     1      36.368 -23.077 -14.727  0.00  0.00    +0.103 C 
BRANCH  15  16
ATOM     16  C   UNL     1      36.632 -24.094 -13.610  0.00  0.00    +0.023 C 
BRANCH  16  17
ATOM     17  C   UNL     1      36.639 -23.450 -12.223  0.00  0.00    +0.110 C 
BRANCH  17  19
ATOM     18  O   UNL     1      35.995 -24.221 -10.005  0.00  0.00    -0.250 OA
ATOM     19  C   UNL     1      35.804 -24.203 -11.212  0.00  0.00    +0.314 C 
BRANCH  19  20
ATOM     20  O   UNL     1      34.801 -24.895 -11.814  0.00  0.00    -0.480 OA
ATOM     21  H   UNL     1      34.592 -25.762 -11.527  0.00  0.00    +0.295 HD
ENDBRANCH  19  20
ENDBRANCH  17  19
ENDBRANCH  16  17
ENDBRANCH  15  16
ENDBRANCH   4  15
TORSDOF 7
ENDMDL
MODEL 6
REMARK VINA RESULT:      -8.9      5.843      8.842
REMARK  Name = 2797541
REMARK  7 active torsions:
REMARK  status: ('A' for Active; 'I' for Inactive)
REMARK    1  A    between atoms: C_4  and  C_15
REMARK    2  A    between atoms: C_5  and  C_6
REMARK    3  A    between atoms: C_9  and  N_14
REMARK    4  A    between atoms: C_15  and  C_16
REMARK    5  A    between atoms: C_16  and  C_17
REMARK    6  A    between atoms: C_17  and  C_19
REMARK    7  A    between atoms: C_19  and  O_20
REMARK                            x       y       z     vdW  Elec       q    Type
REMARK                         _______ _______ _______ _____ _____    ______ ____
ROOT
ATOM      1  O   UNL     1      32.843 -21.382 -19.491  0.00  0.00    -0.316 OA
ATOM      2  N   UNL     1      34.922 -20.665 -19.916  0.00  0.00    -0.313 NA
ATOM      3  N   UNL     1      32.717 -20.377 -20.458  0.00  0.00    -0.007 NA
ATOM      4  C   UNL     1      34.161 -21.461 -19.255  0.00  0.00    +0.294 C 
ATOM      5  C   UNL     1      33.986 -20.004 -20.657  0.00  0.00    +0.127 C 
ENDROOT
BRANCH   5   6
ATOM      6  C   UNL     1      34.352 -18.975 -21.587  0.00  0.00    +0.079 C 
ATOM      7  C   UNL     1      34.371 -17.641 -21.182  0.00  0.00    +0.035 C 
ATOM      8  C   UNL     1      34.690 -19.309 -22.900  0.00  0.00    +0.011 C 
ATOM      9  C   UNL     1      34.728 -16.640 -22.087  0.00  0.00    +0.144 C 
ATOM     10  C   UNL     1      35.046 -18.308 -23.805  0.00  0.00    +0.002 C 
ATOM     11  C   UNL     1      35.065 -16.974 -23.398  0.00  0.00    +0.024 C 
BRANCH   9  14
ATOM     12  O   UNL     1      34.736 -14.381 -22.546  0.00  0.00    -0.126 OA
ATOM     13  O   UNL     1      34.776 -15.020 -20.447  0.00  0.00    -0.126 OA
ATOM     14  N   UNL     1      34.748 -15.282 -21.673  0.00  0.00    +0.058 N 
ENDBRANCH   9  14
ENDBRANCH   5   6
BRANCH   4  15
ATOM     15  C   UNL     1      34.563 -22.491 -18.229  0.00  0.00    +0.103 C 
BRANCH  15  16
ATOM     16  C   UNL     1      33.394 -23.420 -17.880  0.00  0.00    +0.023 C 
BRANCH  16  17
ATOM     17  C   UNL     1      32.846 -23.167 -16.476  0.00  0.00    +0.110 C 
BRANCH  17  19
ATOM     18  O   UNL     1      30.651 -23.918 -15.737  0.00  0.00    -0.250 OA
ATOM     19  C   UNL     1      31.335 -23.167 -16.416  0.00  0.00    +0.314 C 
BRANCH  19  20
ATOM     20  O   UNL     1      30.806 -22.227 -17.243  0.00  0.00    -0.480 OA
ATOM     21  H   UNL     1      30.999 -22.247 -18.160  0.00  0.00    +0.295 HD
ENDBRANCH  19  20
ENDBRANCH  17  19
ENDBRANCH  16  17
ENDBRANCH  15  16
ENDBRANCH   4  15
TORSDOF 7
ENDMDL
MODEL 7
REMARK VINA RESULT:      -8.9      2.827      3.791
REMARK  Name = 2797541
REMARK  7 active torsions:
REMARK  status: ('A' for Active; 'I' for Inactive)
REMARK    1  A    between atoms: C_4  and  C_15
REMARK    2  A    between atoms: C_5  and  C_6
REMARK    3  A    between atoms: C_9  and  N_14
REMARK    4  A    between atoms: C_15  and  C_16
REMARK    5  A    between atoms: C_16  and  C_17
REMARK    6  A    between atoms: C_17  and  C_19
REMARK    7  A    between atoms: C_19  and  O_20
REMARK                            x       y       z     vdW  Elec       q    Type
REMARK                         _______ _______ _______ _____ _____    ______ ____
ROOT
ATOM      1  O   UNL     1      35.020 -23.183 -17.035  0.00  0.00    -0.316 OA
ATOM      2  N   UNL     1      34.109 -23.121 -14.989  0.00  0.00    -0.313 NA
ATOM      3  N   UNL     1      33.672 -23.528 -17.199  0.00  0.00    -0.007 NA
ATOM      4  C   UNL     1      35.156 -22.971 -15.717  0.00  0.00    +0.294 C 
ATOM      5  C   UNL     1      33.202 -23.468 -15.949  0.00  0.00    +0.127 C 
ENDROOT
BRANCH   5   6
ATOM      6  C   UNL     1      31.834 -23.751 -15.624  0.00  0.00    +0.079 C 
ATOM      7  C   UNL     1      30.807 -23.254 -16.427  0.00  0.00    +0.035 C 
ATOM      8  C   UNL     1      31.528 -24.526 -14.503  0.00  0.00    +0.011 C 
ATOM      9  C   UNL     1      29.476 -23.529 -16.110  0.00  0.00    +0.144 C 
ATOM     10  C   UNL     1      30.197 -24.801 -14.187  0.00  0.00    +0.002 C 
ATOM     11  C   UNL     1      29.172 -24.303 -14.990  0.00  0.00    +0.024 C 
BRANCH   9  14
ATOM     12  O   UNL     1      27.777 -23.821 -17.640  0.00  0.00    -0.126 OA
ATOM     13  O   UNL     1      28.192 -21.791 -16.915  0.00  0.00    -0.126 OA
ATOM     14  N   UNL     1      28.432 -23.023 -16.928  0.00  0.00    +0.058 N 
ENDBRANCH   9  14
ENDBRANCH   5   6
BRANCH   4  15
ATOM     15  C   UNL     1      36.544 -22.580 -15.276  0.00  0.00    +0.103 C 
BRANCH  15  16
ATOM     16  C   UNL     1      37.526 -23.750 -15.409  0.00  0.00    +0.023 C 
BRANCH  16  17
ATOM     17  C   UNL     1      37.238 -24.870 -14.408  0.00  0.00    +0.110 C 
BRANCH  17  19
ATOM     18  O   UNL     1      36.158 -26.548 -15.805  0.00  0.00    -0.250 OA
ATOM     19  C   UNL     1      37.073 -26.224 -15.061  0.00  0.00    +0.314 C 
BRANCH  19  20
ATOM     20  O   UNL     1      38.071 -27.073 -14.700  0.00  0.00    -0.480 OA
ATOM     21  H   UNL     1      38.964 -26.799 -14.760  0.00  0.00    +0.295 HD
ENDBRANCH  19  20
ENDBRANCH  17  19
ENDBRANCH  16  17
ENDBRANCH  15  16
ENDBRANCH   4  15
TORSDOF 7
ENDMDL
MODEL 8
REMARK VINA RESULT:      -8.9      8.715     11.168
REMARK  Name = 2797541
REMARK  7 active torsions:
REMARK  status: ('A' for Active; 'I' for Inactive)
REMARK    1  A    between atoms: C_4  and  C_15
REMARK    2  A    between atoms: C_5  and  C_6
REMARK    3  A    between atoms: C_9  and  N_14
REMARK    4  A    between atoms: C_15  and  C_16
REMARK    5  A    between atoms: C_16  and  C_17
REMARK    6  A    between atoms: C_17  and  C_19
REMARK    7  A    between atoms: C_19  and  O_20
REMARK                            x       y       z     vdW  Elec       q    Type
REMARK                         _______ _______ _______ _____ _____    ______ ____
ROOT
ATOM      1  O   UNL     1      35.391 -17.186 -20.268  0.00  0.00    -0.316 OA
ATOM      2  N   UNL     1      34.891 -17.507 -22.428  0.00  0.00    -0.313 NA
ATOM      3  N   UNL     1      34.982 -15.940 -20.762  0.00  0.00    -0.007 NA
ATOM      4  C   UNL     1      35.299 -18.013 -21.321  0.00  0.00    +0.294 C 
ATOM      5  C   UNL     1      34.703 -16.212 -22.041  0.00  0.00    +0.127 C 
ENDROOT
BRANCH   5   6
ATOM      6  C   UNL     1      34.236 -15.213 -22.958  0.00  0.00    +0.079 C 
ATOM      7  C   UNL     1      33.952 -15.555 -24.281  0.00  0.00    +0.035 C 
ATOM      8  C   UNL     1      34.066 -13.895 -22.528  0.00  0.00    +0.011 C 
ATOM      9  C   UNL     1      33.498 -14.582 -25.172  0.00  0.00    +0.144 C 
ATOM     10  C   UNL     1      33.612 -12.923 -23.420  0.00  0.00    +0.002 C 
ATOM     11  C   UNL     1      33.328 -13.266 -24.742  0.00  0.00    +0.024 C 
BRANCH   9  14
ATOM     12  O   UNL     1      32.612 -16.010 -26.750  0.00  0.00    -0.126 OA
ATOM     13  O   UNL     1      33.556 -14.151 -27.437  0.00  0.00    -0.126 OA
ATOM     14  N   UNL     1      33.208 -14.931 -26.518  0.00  0.00    +0.058 N 
ENDBRANCH   9  14
ENDBRANCH   5   6
BRANCH   4  15
ATOM     15  C   UNL     1      35.693 -19.442 -21.043  0.00  0.00    +0.103 C 
BRANCH  15  16
ATOM     16  C   UNL     1      34.504 -20.260 -20.524  0.00  0.00    +0.023 C 
BRANCH  16  17
ATOM     17  C   UNL     1      34.930 -21.350 -19.540  0.00  0.00    +0.110 C 
BRANCH  17  19
ATOM     18  O   UNL     1      34.035 -23.615 -19.499  0.00  0.00    -0.250 OA
ATOM     19  C   UNL     1      33.875 -22.414 -19.335  0.00  0.00    +0.314 C 
BRANCH  19  20
ATOM     20  O   UNL     1      32.688 -21.869 -18.959  0.00  0.00    -0.480 OA
ATOM     21  H   UNL     1      31.895 -22.135 -19.381  0.00  0.00    +0.295 HD
ENDBRANCH  19  20
ENDBRANCH  17  19
ENDBRANCH  16  17
ENDBRANCH  15  16
ENDBRANCH   4  15
TORSDOF 7
ENDMDL
MODEL 9
REMARK VINA RESULT:      -8.9      4.724      6.833
REMARK  Name = 2797541
REMARK  7 active torsions:
REMARK  status: ('A' for Active; 'I' for Inactive)
REMARK    1  A    between atoms: C_4  and  C_15
REMARK    2  A    between atoms: C_5  and  C_6
REMARK    3  A    between atoms: C_9  and  N_14
REMARK    4  A    between atoms: C_15  and  C_16
REMARK    5  A    between atoms: C_16  and  C_17
REMARK    6  A    between atoms: C_17  and  C_19
REMARK    7  A    between atoms: C_19  and  O_20
REMARK                            x       y       z     vdW  Elec       q    Type
REMARK                         _______ _______ _______ _____ _____    ______ ____
ROOT
ATOM      1  O   UNL     1      34.935 -22.861 -17.783  0.00  0.00    -0.316 OA
ATOM      2  N   UNL     1      32.816 -22.389 -18.338  0.00  0.00    -0.313 NA
ATOM      3  N   UNL     1      34.140 -23.356 -16.741  0.00  0.00    -0.007 NA
ATOM      4  C   UNL     1      34.060 -22.323 -18.648  0.00  0.00    +0.294 C 
ATOM      5  C   UNL     1      32.904 -23.040 -17.142  0.00  0.00    +0.127 C 
ENDROOT
BRANCH   5   6
ATOM      6  C   UNL     1      31.738 -23.359 -16.371  0.00  0.00    +0.079 C 
ATOM      7  C   UNL     1      30.476 -22.962 -16.814  0.00  0.00    +0.035 C 
ATOM      8  C   UNL     1      31.863 -24.069 -15.175  0.00  0.00    +0.011 C 
ATOM      9  C   UNL     1      29.341 -23.273 -16.064  0.00  0.00    +0.144 C 
ATOM     10  C   UNL     1      30.729 -24.380 -14.425  0.00  0.00    +0.002 C 
ATOM     11  C   UNL     1      29.468 -23.982 -14.869  0.00  0.00    +0.024 C 
BRANCH   9  14
ATOM     12  O   UNL     1      27.580 -23.403 -17.546  0.00  0.00    -0.126 OA
ATOM     13  O   UNL     1      27.435 -21.989 -15.873  0.00  0.00    -0.126 OA
ATOM     14  N   UNL     1      28.057 -22.869 -16.516  0.00  0.00    +0.058 N 
ENDBRANCH   9  14
ENDBRANCH   5   6
BRANCH   4  15
ATOM     15  C   UNL     1      34.679 -21.711 -19.879  0.00  0.00    +0.103 C 
BRANCH  15  16
ATOM     16  C   UNL     1      33.970 -20.410 -20.275  0.00  0.00    +0.023 C 
BRANCH  16  17
ATOM     17  C   UNL     1      34.658 -19.701 -21.442  0.00  0.00    +0.110 C 
BRANCH  17  19
ATOM     18  O   UNL     1      36.972 -19.139 -20.931  0.00  0.00    -0.250 OA
ATOM     19  C   UNL     1      35.798 -18.808 -21.007  0.00  0.00    +0.314 C 
BRANCH  19  20
ATOM     20  O   UNL     1      35.356 -17.565 -20.678  0.00  0.00    -0.480 OA
ATOM     21  H   UNL     1      34.558 -17.463 -20.199  0.00  0.00    +0.295 HD
ENDBRANCH  19  20
ENDBRANCH  17  19
ENDBRANCH  16  17
ENDBRANCH  15  16
ENDBRANCH   4  15
TORSDOF 7
ENDMDL
