MODEL 1
REMARK VINA RESULT:      -9.3      0.000      0.000
REMARK  Name = 5865
REMARK  4 active torsions:
REMARK  status: ('A' for Active; 'I' for Inactive)
REMARK    1  A    between atoms: C_7  and  O_22
REMARK    2  A    between atoms: C_7  and  C_25
REMARK    3  A    between atoms: C_25  and  C_26
REMARK    4  A    between atoms: C_26  and  O_27
REMARK                            x       y       z     vdW  Elec       q    Type
REMARK                         _______ _______ _______ _____ _____    ______ ____
ROOT
ATOM      1  O   UNL     1      34.051 -24.719 -12.170  0.00  0.00    -0.296 OA
ATOM      2  O   UNL     1      39.889 -26.400 -14.673  0.00  0.00    -0.287 OA
ATOM      3  C   UNL     1      32.065 -23.724 -14.840  0.00  0.00    +0.036 C 
ATOM      4  C   UNL     1      33.143 -23.576 -15.941  0.00  0.00    +0.004 C 
ATOM      5  C   UNL     1      34.535 -23.247 -15.379  0.00  0.00    +0.008 C 
ATOM      6  C   UNL     1      34.984 -24.397 -14.420  0.00  0.00    +0.065 C 
ATOM      7  C   UNL     1      30.814 -23.936 -15.731  0.00  0.00    +0.142 C 
ATOM      8  C   UNL     1      32.510 -22.603 -16.933  0.00  0.00    +0.003 C 
ATOM      9  C   UNL     1      32.467 -24.901 -13.946  0.00  0.00    +0.067 C 
ATOM     10  C   UNL     1      31.006 -22.942 -16.898  0.00  0.00    +0.034 C 
ATOM     11  C   UNL     1      36.428 -24.181 -13.844  0.00  0.00    +0.040 C 
ATOM     12  C   UNL     1      35.556 -23.044 -16.509  0.00  0.00    +0.005 C 
ATOM     13  C   UNL     1      33.863 -24.655 -13.383  0.00  0.00    +0.151 C 
ATOM     14  C   UNL     1      31.899 -22.452 -13.963  0.00  0.00    +0.003 C 
ATOM     15  C   UNL     1      36.957 -22.793 -15.963  0.00  0.00    +0.022 C 
ATOM     16  C   UNL     1      37.363 -23.906 -15.030  0.00  0.00    -0.038 C 
ATOM     17  C   UNL     1      36.509 -22.982 -12.871  0.00  0.00    +0.009 C 
ATOM     18  C   UNL     1      36.878 -25.413 -13.070  0.00  0.00    -0.019 C 
ATOM     19  C   UNL     1      38.467 -24.626 -15.293  0.00  0.00    +0.034 C 
ATOM     20  C   UNL     1      37.974 -26.133 -13.329  0.00  0.00    +0.038 C 
ATOM     21  C   UNL     1      38.862 -25.768 -14.447  0.00  0.00    +0.195 C 
ENDROOT
BRANCH   7  22
ATOM     22  O   UNL     1      30.750 -25.248 -16.282  0.00  0.00    -0.380 OA
ATOM     23  H   UNL     1      29.822 -25.510 -16.390  0.00  0.00    +0.211 HD
ENDBRANCH   7  22
BRANCH   7  25
ATOM     24  O   UNL     1      29.074 -24.567 -14.233  0.00  0.00    -0.291 OA
ATOM     25  C   UNL     1      29.494 -23.747 -15.047  0.00  0.00    +0.204 C 
BRANCH  25  26
ATOM     26  C   UNL     1      28.719 -22.500 -15.418  0.00  0.00    +0.204 C 
BRANCH  26  27
ATOM     27  O   UNL     1      27.365 -22.810 -15.668  0.00  0.00    -0.375 OA
ATOM     28  H   UNL     1      27.308 -23.435 -16.409  0.00  0.00    +0.211 HD
ENDBRANCH  26  27
ENDBRANCH  25  26
ENDBRANCH   7  25
TORSDOF 4
ENDMDL
MODEL 2
REMARK VINA RESULT:      -8.8      3.045      6.753
REMARK  Name = 5865
REMARK  4 active torsions:
REMARK  status: ('A' for Active; 'I' for Inactive)
REMARK    1  A    between atoms: C_7  and  O_22
REMARK    2  A    between atoms: C_7  and  C_25
REMARK    3  A    between atoms: C_25  and  C_26
REMARK    4  A    between atoms: C_26  and  O_27
REMARK                            x       y       z     vdW  Elec       q    Type
REMARK                         _______ _______ _______ _____ _____    ______ ____
ROOT
ATOM      1  O   UNL     1      32.747 -23.731 -17.183  0.00  0.00    -0.296 OA
ATOM      2  O   UNL     1      33.439 -18.583 -21.207  0.00  0.00    -0.287 OA
ATOM      3  C   UNL     1      35.540 -23.771 -15.118  0.00  0.00    +0.036 C 
ATOM      4  C   UNL     1      36.452 -22.776 -15.876  0.00  0.00    +0.004 C 
ATOM      5  C   UNL     1      36.158 -22.717 -17.383  0.00  0.00    +0.008 C 
ATOM      6  C   UNL     1      34.675 -22.266 -17.595  0.00  0.00    +0.065 C 
ATOM      7  C   UNL     1      36.160 -23.663 -13.701  0.00  0.00    +0.142 C 
ATOM      8  C   UNL     1      37.858 -23.166 -15.424  0.00  0.00    +0.003 C 
ATOM      9  C   UNL     1      34.095 -23.286 -15.264  0.00  0.00    +0.067 C 
ATOM     10  C   UNL     1      37.682 -23.607 -13.957  0.00  0.00    +0.034 C 
ATOM     11  C   UNL     1      34.298 -22.113 -19.112  0.00  0.00    +0.040 C 
ATOM     12  C   UNL     1      37.129 -21.769 -18.101  0.00  0.00    +0.005 C 
ATOM     13  C   UNL     1      33.747 -23.167 -16.744  0.00  0.00    +0.151 C 
ATOM     14  C   UNL     1      35.642 -25.229 -15.647  0.00  0.00    +0.003 C 
ATOM     15  C   UNL     1      36.798 -21.642 -19.584  0.00  0.00    +0.022 C 
ATOM     16  C   UNL     1      35.361 -21.220 -19.766  0.00  0.00    -0.038 C 
ATOM     17  C   UNL     1      34.270 -23.467 -19.858  0.00  0.00    +0.009 C 
ATOM     18  C   UNL     1      32.911 -21.499 -19.251  0.00  0.00    -0.019 C 
ATOM     19  C   UNL     1      35.078 -20.087 -20.430  0.00  0.00    +0.034 C 
ATOM     20  C   UNL     1      32.626 -20.372 -19.909  0.00  0.00    +0.038 C 
ATOM     21  C   UNL     1      33.693 -19.601 -20.571  0.00  0.00    +0.195 C 
ENDROOT
BRANCH   7  22
ATOM     22  O   UNL     1      35.785 -22.464 -13.030  0.00  0.00    -0.380 OA
ATOM     23  H   UNL     1      36.083 -21.698 -13.546  0.00  0.00    +0.211 HD
ENDBRANCH   7  22
BRANCH   7  25
ATOM     24  O   UNL     1      34.645 -24.881 -12.324  0.00  0.00    -0.291 OA
ATOM     25  C   UNL     1      35.792 -24.762 -12.750  0.00  0.00    +0.204 C 
BRANCH  25  26
ATOM     26  C   UNL     1      36.909 -25.703 -12.349  0.00  0.00    +0.204 C 
BRANCH  26  27
ATOM     27  O   UNL     1      36.773 -26.945 -13.007  0.00  0.00    -0.375 OA
ATOM     28  H   UNL     1      35.843 -27.221 -12.988  0.00  0.00    +0.211 HD
ENDBRANCH  26  27
ENDBRANCH  25  26
ENDBRANCH   7  25
TORSDOF 4
ENDMDL
MODEL 3
REMARK VINA RESULT:      -8.4     10.644     13.185
REMARK  Name = 5865
REMARK  4 active torsions:
REMARK  status: ('A' for Active; 'I' for Inactive)
REMARK    1  A    between atoms: C_7  and  O_22
REMARK    2  A    between atoms: C_7  and  C_25
REMARK    3  A    between atoms: C_25  and  C_26
REMARK    4  A    between atoms: C_26  and  O_27
REMARK                            x       y       z     vdW  Elec       q    Type
REMARK                         _______ _______ _______ _____ _____    ______ ____
ROOT
ATOM      1  O   UNL     1      33.916 -14.183 -21.037  0.00  0.00    -0.296 OA
ATOM      2  O   UNL     1      34.746 -10.057 -26.083  0.00  0.00    -0.287 OA
ATOM      3  C   UNL     1      34.680 -17.363 -22.207  0.00  0.00    +0.036 C 
ATOM      4  C   UNL     1      34.689 -17.097 -23.732  0.00  0.00    +0.004 C 
ATOM      5  C   UNL     1      33.785 -15.924 -24.144  0.00  0.00    +0.008 C 
ATOM      6  C   UNL     1      34.277 -14.625 -23.427  0.00  0.00    +0.065 C 
ATOM      7  C   UNL     1      35.574 -18.629 -22.160  0.00  0.00    +0.142 C 
ATOM      8  C   UNL     1      34.417 -18.472 -24.337  0.00  0.00    +0.003 C 
ATOM      9  C   UNL     1      35.233 -16.117 -21.511  0.00  0.00    +0.067 C 
ATOM     10  C   UNL     1      35.122 -19.458 -23.382  0.00  0.00    +0.034 C 
ATOM     11  C   UNL     1      33.451 -13.354 -23.838  0.00  0.00    +0.040 C 
ATOM     12  C   UNL     1      33.775 -15.740 -25.669  0.00  0.00    +0.005 C 
ATOM     13  C   UNL     1      34.401 -14.902 -21.909  0.00  0.00    +0.151 C 
ATOM     14  C   UNL     1      33.265 -17.675 -21.644  0.00  0.00    +0.003 C 
ATOM     15  C   UNL     1      32.944 -14.532 -26.084  0.00  0.00    +0.022 C 
ATOM     16  C   UNL     1      33.425 -13.293 -25.371  0.00  0.00    -0.038 C 
ATOM     17  C   UNL     1      31.993 -13.400 -23.326  0.00  0.00    +0.009 C 
ATOM     18  C   UNL     1      34.088 -12.099 -23.254  0.00  0.00    -0.019 C 
ATOM     19  C   UNL     1      33.848 -12.236 -26.084  0.00  0.00    +0.034 C 
ATOM     20  C   UNL     1      34.511 -11.046 -23.960  0.00  0.00    +0.038 C 
ATOM     21  C   UNL     1      34.393 -11.032 -25.428  0.00  0.00    +0.195 C 
ENDROOT
BRANCH   7  22
ATOM     22  O   UNL     1      36.957 -18.328 -22.324  0.00  0.00    -0.380 OA
ATOM     23  H   UNL     1      37.241 -17.719 -21.625  0.00  0.00    +0.211 HD
ENDBRANCH   7  22
BRANCH   7  25
ATOM     24  O   UNL     1      36.399 -19.357 -20.048  0.00  0.00    -0.291 OA
ATOM     25  C   UNL     1      35.505 -19.422 -20.890  0.00  0.00    +0.204 C 
BRANCH  25  26
ATOM     26  C   UNL     1      34.283 -20.296 -20.711  0.00  0.00    +0.204 C 
BRANCH  26  27
ATOM     27  O   UNL     1      34.452 -21.172 -19.616  0.00  0.00    -0.375 OA
ATOM     28  H   UNL     1      35.394 -21.386 -19.517  0.00  0.00    +0.211 HD
ENDBRANCH  26  27
ENDBRANCH  25  26
ENDBRANCH   7  25
TORSDOF 4
ENDMDL
MODEL 4
REMARK VINA RESULT:      -7.6     14.311     16.412
REMARK  Name = 5865
REMARK  4 active torsions:
REMARK  status: ('A' for Active; 'I' for Inactive)
REMARK    1  A    between atoms: C_7  and  O_22
REMARK    2  A    between atoms: C_7  and  C_25
REMARK    3  A    between atoms: C_25  and  C_26
REMARK    4  A    between atoms: C_26  and  O_27
REMARK                            x       y       z     vdW  Elec       q    Type
REMARK                         _______ _______ _______ _____ _____    ______ ____
ROOT
ATOM      1  O   UNL     1      34.004 -11.904 -25.288  0.00  0.00    -0.296 OA
ATOM      2  O   UNL     1      34.769 -16.565 -20.720  0.00  0.00    -0.287 OA
ATOM      3  C   UNL     1      33.233  -8.966 -23.603  0.00  0.00    +0.036 C 
ATOM      4  C   UNL     1      32.903  -9.535 -22.202  0.00  0.00    +0.004 C 
ATOM      5  C   UNL     1      32.394 -10.984 -22.245  0.00  0.00    +0.008 C 
ATOM      6  C   UNL     1      33.493 -11.893 -22.886  0.00  0.00    +0.065 C 
ATOM      7  C   UNL     1      33.598  -7.511 -23.212  0.00  0.00    +0.142 C 
ATOM      8  C   UNL     1      32.005  -8.466 -21.585  0.00  0.00    +0.003 C 
ATOM      9  C   UNL     1      34.363  -9.811 -24.198  0.00  0.00    +0.067 C 
ATOM     10  C   UNL     1      32.556  -7.135 -22.136  0.00  0.00    +0.034 C 
ATOM     11  C   UNL     1      33.088 -13.410 -22.914  0.00  0.00    +0.040 C 
ATOM     12  C   UNL     1      32.017 -11.482 -20.842  0.00  0.00    +0.005 C 
ATOM     13  C   UNL     1      33.936 -11.275 -24.234  0.00  0.00    +0.151 C 
ATOM     14  C   UNL     1      32.021  -8.981 -24.576  0.00  0.00    +0.003 C 
ATOM     15  C   UNL     1      31.584 -12.944 -20.861  0.00  0.00    +0.022 C 
ATOM     16  C   UNL     1      32.652 -13.800 -21.495  0.00  0.00    -0.038 C 
ATOM     17  C   UNL     1      31.916 -13.696 -23.881  0.00  0.00    +0.009 C 
ATOM     18  C   UNL     1      34.264 -14.261 -23.375  0.00  0.00    -0.019 C 
ATOM     19  C   UNL     1      33.200 -14.808 -20.796  0.00  0.00    +0.034 C 
ATOM     20  C   UNL     1      34.813 -15.264 -22.682  0.00  0.00    +0.038 C 
ATOM     21  C   UNL     1      34.296 -15.625 -21.351  0.00  0.00    +0.195 C 
ENDROOT
BRANCH   7  22
ATOM     22  O   UNL     1      34.891  -7.411 -22.622  0.00  0.00    -0.380 OA
ATOM     23  H   UNL     1      35.368  -8.246 -22.744  0.00  0.00    +0.211 HD
ENDBRANCH   7  22
BRANCH   7  25
ATOM     24  O   UNL     1      34.540  -6.501 -25.152  0.00  0.00    -0.291 OA
ATOM     25  C   UNL     1      33.617  -6.524 -24.340  0.00  0.00    +0.204 C 
BRANCH  25  26
ATOM     26  C   UNL     1      32.444  -5.570 -24.416  0.00  0.00    +0.204 C 
BRANCH  26  27
ATOM     27  O   UNL     1      32.516  -4.784 -25.588  0.00  0.00    -0.375 OA
ATOM     28  H   UNL     1      31.777  -4.155 -25.601  0.00  0.00    +0.211 HD
ENDBRANCH  26  27
ENDBRANCH  25  26
ENDBRANCH   7  25
TORSDOF 4
ENDMDL
MODEL 5
REMARK VINA RESULT:      -7.5      1.695      7.032
REMARK  Name = 5865
REMARK  4 active torsions:
REMARK  status: ('A' for Active; 'I' for Inactive)
REMARK    1  A    between atoms: C_7  and  O_22
REMARK    2  A    between atoms: C_7  and  C_25
REMARK    3  A    between atoms: C_25  and  C_26
REMARK    4  A    between atoms: C_26  and  O_27
REMARK                            x       y       z     vdW  Elec       q    Type
REMARK                         _______ _______ _______ _____ _____    ______ ____
ROOT
ATOM      1  O   UNL     1      32.840 -25.321 -13.070  0.00  0.00    -0.296 OA
ATOM      2  O   UNL     1      27.907 -21.598 -15.300  0.00  0.00    -0.287 OA
ATOM      3  C   UNL     1      35.766 -24.019 -14.416  0.00  0.00    +0.036 C 
ATOM      4  C   UNL     1      35.174 -23.090 -15.504  0.00  0.00    +0.004 C 
ATOM      5  C   UNL     1      33.803 -23.557 -16.014  0.00  0.00    +0.008 C 
ATOM      6  C   UNL     1      32.798 -23.593 -14.816  0.00  0.00    +0.065 C 
ATOM      7  C   UNL     1      37.145 -23.340 -14.217  0.00  0.00    +0.142 C 
ATOM      8  C   UNL     1      36.314 -22.948 -16.510  0.00  0.00    +0.003 C 
ATOM      9  C   UNL     1      34.818 -23.993 -13.213  0.00  0.00    +0.067 C 
ATOM     10  C   UNL     1      37.593 -22.966 -15.647  0.00  0.00    +0.034 C 
ATOM     11  C   UNL     1      31.345 -23.999 -15.252  0.00  0.00    +0.040 C 
ATOM     12  C   UNL     1      33.287 -22.644 -17.136  0.00  0.00    +0.005 C 
ATOM     13  C   UNL     1      33.422 -24.412 -13.659  0.00  0.00    +0.151 C 
ATOM     14  C   UNL     1      35.946 -25.488 -14.890  0.00  0.00    +0.003 C 
ATOM     15  C   UNL     1      31.893 -23.052 -17.597  0.00  0.00    +0.022 C 
ATOM     16  C   UNL     1      30.944 -23.094 -16.425  0.00  0.00    -0.038 C 
ATOM     17  C   UNL     1      31.251 -25.471 -15.717  0.00  0.00    +0.009 C 
ATOM     18  C   UNL     1      30.379 -23.838 -14.086  0.00  0.00    -0.019 C 
ATOM     19  C   UNL     1      29.844 -22.322 -16.430  0.00  0.00    +0.034 C 
ATOM     20  C   UNL     1      29.285 -23.071 -14.086  0.00  0.00    +0.038 C 
ATOM     21  C   UNL     1      28.927 -22.279 -15.276  0.00  0.00    +0.195 C 
ENDROOT
BRANCH   7  22
ATOM     22  O   UNL     1      37.058 -22.137 -13.459  0.00  0.00    -0.380 OA
ATOM     23  H   UNL     1      37.627 -22.207 -12.675  0.00  0.00    +0.211 HD
ENDBRANCH   7  22
BRANCH   7  25
ATOM     24  O   UNL     1      39.020 -24.805 -14.127  0.00  0.00    -0.291 OA
ATOM     25  C   UNL     1      38.175 -24.164 -13.506  0.00  0.00    +0.204 C 
BRANCH  25  26
ATOM     26  C   UNL     1      38.110 -24.158 -11.993  0.00  0.00    +0.204 C 
BRANCH  26  27
ATOM     27  O   UNL     1      38.701 -22.986 -11.473  0.00  0.00    -0.375 OA
ATOM     28  H   UNL     1      38.030 -22.466 -11.003  0.00  0.00    +0.211 HD
ENDBRANCH  26  27
ENDBRANCH  25  26
ENDBRANCH   7  25
TORSDOF 4
ENDMDL
MODEL 6
REMARK VINA RESULT:      -7.2     14.459     17.103
REMARK  Name = 5865
REMARK  4 active torsions:
REMARK  status: ('A' for Active; 'I' for Inactive)
REMARK    1  A    between atoms: C_7  and  O_22
REMARK    2  A    between atoms: C_7  and  C_25
REMARK    3  A    between atoms: C_25  and  C_26
REMARK    4  A    between atoms: C_26  and  O_27
REMARK                            x       y       z     vdW  Elec       q    Type
REMARK                         _______ _______ _______ _____ _____    ______ ____
ROOT
ATOM      1  O   UNL     1      34.610  -9.611 -25.018  0.00  0.00    -0.296 OA
ATOM      2  O   UNL     1      30.555  -4.617 -23.681  0.00  0.00    -0.287 OA
ATOM      3  C   UNL     1      33.299 -12.416 -23.442  0.00  0.00    +0.036 C 
ATOM      4  C   UNL     1      32.265 -11.743 -22.507  0.00  0.00    +0.004 C 
ATOM      5  C   UNL     1      32.643 -10.303 -22.127  0.00  0.00    +0.008 C 
ATOM      6  C   UNL     1      32.744  -9.442 -23.429  0.00  0.00    +0.065 C 
ATOM      7  C   UNL     1      32.684 -13.836 -23.529  0.00  0.00    +0.142 C 
ATOM      8  C   UNL     1      32.078 -12.765 -21.388  0.00  0.00    +0.003 C 
ATOM      9  C   UNL     1      33.341 -11.615 -24.747  0.00  0.00    +0.067 C 
ATOM     10  C   UNL     1      32.210 -14.133 -22.090  0.00  0.00    +0.034 C 
ATOM     11  C   UNL     1      33.064  -7.933 -23.136  0.00  0.00    +0.040 C 
ATOM     12  C   UNL     1      31.625  -9.702 -21.148  0.00  0.00    +0.005 C 
ATOM     13  C   UNL     1      33.675 -10.160 -24.437  0.00  0.00    +0.151 C 
ATOM     14  C   UNL     1      34.729 -12.478 -22.837  0.00  0.00    +0.003 C 
ATOM     15  C   UNL     1      31.946  -8.247 -20.824  0.00  0.00    +0.022 C 
ATOM     16  C   UNL     1      32.053  -7.439 -22.093  0.00  0.00    -0.038 C 
ATOM     17  C   UNL     1      34.489  -7.724 -22.573  0.00  0.00    +0.009 C 
ATOM     18  C   UNL     1      32.968  -7.116 -24.418  0.00  0.00    -0.019 C 
ATOM     19  C   UNL     1      31.248  -6.379 -22.278  0.00  0.00    +0.034 C 
ATOM     20  C   UNL     1      32.168  -6.062 -24.606  0.00  0.00    +0.038 C 
ATOM     21  C   UNL     1      31.269  -5.603 -23.532  0.00  0.00    +0.195 C 
ENDROOT
BRANCH   7  22
ATOM     22  O   UNL     1      31.546 -13.888 -24.384  0.00  0.00    -0.380 OA
ATOM     23  H   UNL     1      31.502 -13.077 -24.914  0.00  0.00    +0.211 HD
ENDBRANCH   7  22
BRANCH   7  25
ATOM     24  O   UNL     1      33.736 -15.097 -25.254  0.00  0.00    -0.291 OA
ATOM     25  C   UNL     1      33.598 -14.905 -24.048  0.00  0.00    +0.204 C 
BRANCH  25  26
ATOM     26  C   UNL     1      34.331 -15.724 -23.006  0.00  0.00    +0.204 C 
BRANCH  26  27
ATOM     27  O   UNL     1      35.614 -16.089 -23.470  0.00  0.00    -0.375 OA
ATOM     28  H   UNL     1      35.535 -16.836 -24.085  0.00  0.00    +0.211 HD
ENDBRANCH  26  27
ENDBRANCH  25  26
ENDBRANCH   7  25
TORSDOF 4
ENDMDL
MODEL 7
REMARK VINA RESULT:      -6.4      1.729      7.349
REMARK  Name = 5865
REMARK  4 active torsions:
REMARK  status: ('A' for Active; 'I' for Inactive)
REMARK    1  A    between atoms: C_7  and  O_22
REMARK    2  A    between atoms: C_7  and  C_25
REMARK    3  A    between atoms: C_25  and  C_26
REMARK    4  A    between atoms: C_26  and  O_27
REMARK                            x       y       z     vdW  Elec       q    Type
REMARK                         _______ _______ _______ _____ _____    ______ ____
ROOT
ATOM      1  O   UNL     1      34.544 -24.434 -16.738  0.00  0.00    -0.296 OA
ATOM      2  O   UNL     1      28.416 -25.233 -14.506  0.00  0.00    -0.287 OA
ATOM      3  C   UNL     1      36.649 -24.643 -13.983  0.00  0.00    +0.036 C 
ATOM      4  C   UNL     1      35.613 -24.519 -12.839  0.00  0.00    +0.004 C 
ATOM      5  C   UNL     1      34.356 -23.736 -13.248  0.00  0.00    +0.008 C 
ATOM      6  C   UNL     1      33.665 -24.469 -14.444  0.00  0.00    +0.065 C 
ATOM      7  C   UNL     1      37.791 -25.365 -13.221  0.00  0.00    +0.142 C 
ATOM      8  C   UNL     1      36.440 -24.005 -11.663  0.00  0.00    +0.003 C 
ATOM      9  C   UNL     1      35.996 -25.428 -15.124  0.00  0.00    +0.067 C 
ATOM     10  C   UNL     1      37.818 -24.676 -11.838  0.00  0.00    +0.034 C 
ATOM     11  C   UNL     1      32.330 -23.775 -14.892  0.00  0.00    +0.040 C 
ATOM     12  C   UNL     1      33.389 -23.582 -12.065  0.00  0.00    +0.005 C 
ATOM     13  C   UNL     1      34.714 -24.722 -15.554  0.00  0.00    +0.151 C 
ATOM     14  C   UNL     1      37.139 -23.271 -14.524  0.00  0.00    +0.003 C 
ATOM     15  C   UNL     1      32.104 -22.874 -12.477  0.00  0.00    +0.022 C 
ATOM     16  C   UNL     1      31.462 -23.589 -13.640  0.00  0.00    -0.038 C 
ATOM     17  C   UNL     1      32.565 -22.389 -15.535  0.00  0.00    +0.009 C 
ATOM     18  C   UNL     1      31.613 -24.630 -15.929  0.00  0.00    -0.019 C 
ATOM     19  C   UNL     1      30.211 -24.064 -13.522  0.00  0.00    +0.034 C 
ATOM     20  C   UNL     1      30.370 -25.107 -15.814  0.00  0.00    +0.038 C 
ATOM     21  C   UNL     1      29.571 -24.830 -14.608  0.00  0.00    +0.195 C 
ENDROOT
BRANCH   7  22
ATOM     22  O   UNL     1      37.522 -26.748 -13.014  0.00  0.00    -0.380 OA
ATOM     23  H   UNL     1      37.930 -27.267 -13.725  0.00  0.00    +0.211 HD
ENDBRANCH   7  22
BRANCH   7  25
ATOM     24  O   UNL     1      40.023 -24.582 -13.495  0.00  0.00    -0.291 OA
ATOM     25  C   UNL     1      39.133 -25.334 -13.887  0.00  0.00    +0.204 C 
BRANCH  25  26
ATOM     26  C   UNL     1      39.321 -26.275 -15.058  0.00  0.00    +0.204 C 
BRANCH  26  27
ATOM     27  O   UNL     1      40.342 -25.806 -15.915  0.00  0.00    -0.375 OA
ATOM     28  H   UNL     1      41.129 -25.590 -15.391  0.00  0.00    +0.211 HD
ENDBRANCH  26  27
ENDBRANCH  25  26
ENDBRANCH   7  25
TORSDOF 4
ENDMDL
