MODEL 1
REMARK VINA RESULT:     -11.6      0.000      0.000
REMARK  Name = 15942672
REMARK  5 active torsions:
REMARK  status: ('A' for Active; 'I' for Inactive)
REMARK    1  A    between atoms: N_2  and  C_7
REMARK    2  A    between atoms: N_3  and  C_17
REMARK    3  A    between atoms: C_8  and  C_16
REMARK    4  A    between atoms: C_18  and  O_23
REMARK    5  A    between atoms: O_23  and  C_25
REMARK                            x       y       z     vdW  Elec       q    Type
REMARK                         _______ _______ _______ _____ _____    ______ ____
ROOT
ATOM      1  O   UNL     1      34.760 -16.048 -20.574  0.00  0.00    -0.252 OA
ATOM      2  N   UNL     1      34.519 -17.947 -21.924  0.00  0.00    -0.268 N 
ATOM      3  N   UNL     1      33.659 -15.924 -22.633  0.00  0.00    -0.268 N 
ATOM      4  C   UNL     1      34.353 -16.578 -21.603  0.00  0.00    +0.308 C 
ATOM      5  H   UNL     1      34.138 -18.232 -22.786  0.00  0.00    +0.156 HD
ATOM      6  H   UNL     1      33.396 -16.483 -23.399  0.00  0.00    +0.156 HD
ENDROOT
BRANCH   2   7
ATOM      7  C   UNL     1      35.147 -18.946 -21.180  0.00  0.00    +0.052 C 
ATOM      8  C   UNL     1      35.013 -20.929 -19.806  0.00  0.00    +0.073 C 
ATOM      9  C   UNL     1      34.385 -19.930 -20.550  0.00  0.00    +0.019 C 
ATOM     10  C   UNL     1      36.537 -18.960 -21.066  0.00  0.00    +0.015 C 
ATOM     11  C   UNL     1      36.404 -20.943 -19.693  0.00  0.00    +0.004 C 
ATOM     12  C   UNL     1      37.165 -19.959 -20.322  0.00  0.00    +0.001 C 
BRANCH   8  16
ATOM     13  F   UNL     1      34.091 -23.135 -19.855  0.00  0.00    -0.166 F 
ATOM     14  F   UNL     1      34.699 -22.366 -17.921  0.00  0.00    -0.166 F 
ATOM     15  F   UNL     1      32.919 -21.579 -18.889  0.00  0.00    -0.166 F 
ATOM     16  C   UNL     1      34.200 -21.982 -19.132  0.00  0.00    +0.419 C 
ENDBRANCH   8  16
ENDBRANCH   2   7
BRANCH   3  17
ATOM     17  C   UNL     1      33.290 -14.560 -22.706  0.00  0.00    +0.052 C 
ATOM     18  C   UNL     1      32.567 -11.889 -22.849  0.00  0.00    +0.145 C 
ATOM     19  C   UNL     1      33.926 -13.734 -23.618  0.00  0.00    +0.018 C 
ATOM     20  C   UNL     1      32.300 -14.079 -21.864  0.00  0.00    +0.018 C 
ATOM     21  C   UNL     1      33.561 -12.388 -23.689  0.00  0.00    +0.039 C 
ATOM     22  C   UNL     1      31.936 -12.735 -21.937  0.00  0.00    +0.039 C 
BRANCH  18  23
ATOM     23  O   UNL     1      32.210 -10.578 -22.920  0.00  0.00    -0.453 OA
BRANCH  23  25
ATOM     24  N   UNL     1      32.175  -8.387 -19.390  0.00  0.00    -0.242 NA
ATOM     25  C   UNL     1      32.199  -9.849 -21.743  0.00  0.00    +0.148 C 
ATOM     26  C   UNL     1      31.660 -10.412 -20.606  0.00  0.00    +0.058 C 
ATOM     27  C   UNL     1      32.727  -8.576 -21.735  0.00  0.00    +0.058 C 
ATOM     28  C   UNL     1      31.672  -9.640 -19.455  0.00  0.00    +0.102 C 
ATOM     29  C   UNL     1      32.690  -7.886 -20.534  0.00  0.00    +0.102 C 
ENDBRANCH  23  25
ENDBRANCH  18  23
ENDBRANCH   3  17
TORSDOF 5
ENDMDL
MODEL 2
REMARK VINA RESULT:     -11.5      3.199      4.447
REMARK  Name = 15942672
REMARK  5 active torsions:
REMARK  status: ('A' for Active; 'I' for Inactive)
REMARK    1  A    between atoms: N_2  and  C_7
REMARK    2  A    between atoms: N_3  and  C_17
REMARK    3  A    between atoms: C_8  and  C_16
REMARK    4  A    between atoms: C_18  and  O_23
REMARK    5  A    between atoms: O_23  and  C_25
REMARK                            x       y       z     vdW  Elec       q    Type
REMARK                         _______ _______ _______ _____ _____    ______ ____
ROOT
ATOM      1  O   UNL     1      34.577 -13.717 -22.654  0.00  0.00    -0.252 OA
ATOM      2  N   UNL     1      33.842 -14.858 -24.565  0.00  0.00    -0.268 N 
ATOM      3  N   UNL     1      33.591 -12.565 -24.434  0.00  0.00    -0.268 N 
ATOM      4  C   UNL     1      34.057 -13.708 -23.766  0.00  0.00    +0.308 C 
ATOM      5  H   UNL     1      33.413 -14.696 -25.437  0.00  0.00    +0.156 HD
ATOM      6  H   UNL     1      33.196 -12.715 -25.323  0.00  0.00    +0.156 HD
ENDROOT
BRANCH   2   7
ATOM      7  C   UNL     1      34.155 -16.187 -24.280  0.00  0.00    +0.052 C 
ATOM      8  C   UNL     1      34.875 -17.876 -22.710  0.00  0.00    +0.073 C 
ATOM      9  C   UNL     1      34.562 -16.547 -22.995  0.00  0.00    +0.019 C 
ATOM     10  C   UNL     1      34.062 -17.154 -25.280  0.00  0.00    +0.015 C 
ATOM     11  C   UNL     1      34.781 -18.845 -23.711  0.00  0.00    +0.004 C 
ATOM     12  C   UNL     1      34.375 -18.484 -24.995  0.00  0.00    +0.001 C 
BRANCH   8  16
ATOM     13  F   UNL     1      34.481 -19.168 -20.736  0.00  0.00    -0.166 F 
ATOM     14  F   UNL     1      36.549 -18.834 -21.296  0.00  0.00    -0.166 F 
ATOM     15  F   UNL     1      35.367 -17.199 -20.485  0.00  0.00    -0.166 F 
ATOM     16  C   UNL     1      35.308 -18.264 -21.337  0.00  0.00    +0.419 C 
ENDBRANCH   8  16
ENDBRANCH   2   7
BRANCH   3  17
ATOM     17  C   UNL     1      33.616 -11.223 -23.987  0.00  0.00    +0.052 C 
ATOM     18  C   UNL     1      33.666  -8.594 -23.113  0.00  0.00    +0.145 C 
ATOM     19  C   UNL     1      32.646 -10.785 -23.102  0.00  0.00    +0.018 C 
ATOM     20  C   UNL     1      34.611 -10.375 -24.445  0.00  0.00    +0.018 C 
ATOM     21  C   UNL     1      32.671  -9.460 -22.662  0.00  0.00    +0.039 C 
ATOM     22  C   UNL     1      34.637  -9.051 -24.005  0.00  0.00    +0.039 C 
BRANCH  18  23
ATOM     23  O   UNL     1      33.693  -7.304 -22.683  0.00  0.00    -0.453 OA
BRANCH  23  25
ATOM     24  N   UNL     1      30.624  -4.793 -23.927  0.00  0.00    -0.242 NA
ATOM     25  C   UNL     1      32.671  -6.466 -23.096  0.00  0.00    +0.148 C 
ATOM     26  C   UNL     1      31.817  -5.928 -22.156  0.00  0.00    +0.058 C 
ATOM     27  C   UNL     1      32.529  -6.189 -24.439  0.00  0.00    +0.058 C 
ATOM     28  C   UNL     1      30.810  -5.098 -22.623  0.00  0.00    +0.102 C 
ATOM     29  C   UNL     1      31.490  -5.348 -24.803  0.00  0.00    +0.102 C 
ENDBRANCH  23  25
ENDBRANCH  18  23
ENDBRANCH   3  17
TORSDOF 5
ENDMDL
MODEL 3
REMARK VINA RESULT:     -11.4      5.322     11.310
REMARK  Name = 15942672
REMARK  5 active torsions:
REMARK  status: ('A' for Active; 'I' for Inactive)
REMARK    1  A    between atoms: N_2  and  C_7
REMARK    2  A    between atoms: N_3  and  C_17
REMARK    3  A    between atoms: C_8  and  C_16
REMARK    4  A    between atoms: C_18  and  O_23
REMARK    5  A    between atoms: O_23  and  C_25
REMARK                            x       y       z     vdW  Elec       q    Type
REMARK                         _______ _______ _______ _____ _____    ______ ____
ROOT
ATOM      1  O   UNL     1      33.790 -19.877 -20.382  0.00  0.00    -0.252 OA
ATOM      2  N   UNL     1      35.652 -19.549 -21.766  0.00  0.00    -0.268 N 
ATOM      3  N   UNL     1      35.824 -20.937 -19.928  0.00  0.00    -0.268 N 
ATOM      4  C   UNL     1      34.965 -20.101 -20.658  0.00  0.00    +0.308 C 
ATOM      5  H   UNL     1      36.594 -19.820 -21.861  0.00  0.00    +0.156 HD
ATOM      6  H   UNL     1      36.742 -21.019 -20.272  0.00  0.00    +0.156 HD
ENDROOT
BRANCH   2   7
ATOM      7  C   UNL     1      35.172 -18.673 -22.740  0.00  0.00    +0.052 C 
ATOM      8  C   UNL     1      34.410 -16.473 -23.382  0.00  0.00    +0.073 C 
ATOM      9  C   UNL     1      34.890 -17.349 -22.408  0.00  0.00    +0.019 C 
ATOM     10  C   UNL     1      34.976 -19.123 -24.046  0.00  0.00    +0.015 C 
ATOM     11  C   UNL     1      34.214 -16.922 -24.688  0.00  0.00    +0.004 C 
ATOM     12  C   UNL     1      34.496 -18.247 -25.020  0.00  0.00    +0.001 C 
BRANCH   8  16
ATOM     13  F   UNL     1      34.239 -14.190 -24.076  0.00  0.00    -0.166 F 
ATOM     14  F   UNL     1      32.837 -14.867 -22.566  0.00  0.00    -0.166 F 
ATOM     15  F   UNL     1      34.928 -14.573 -22.050  0.00  0.00    -0.166 F 
ATOM     16  C   UNL     1      34.108 -15.056 -23.028  0.00  0.00    +0.419 C 
ENDBRANCH   8  16
ENDBRANCH   2   7
BRANCH   3  17
ATOM     17  C   UNL     1      35.533 -21.677 -18.757  0.00  0.00    +0.052 C 
ATOM     18  C   UNL     1      34.966 -23.124 -16.464  0.00  0.00    +0.145 C 
ATOM     19  C   UNL     1      34.321 -22.338 -18.656  0.00  0.00    +0.018 C 
ATOM     20  C   UNL     1      36.468 -21.724 -17.736  0.00  0.00    +0.018 C 
ATOM     21  C   UNL     1      34.035 -23.067 -17.501  0.00  0.00    +0.039 C 
ATOM     22  C   UNL     1      36.183 -22.453 -16.581  0.00  0.00    +0.039 C 
BRANCH  18  23
ATOM     23  O   UNL     1      34.688 -23.837 -15.338  0.00  0.00    -0.453 OA
BRANCH  23  25
ATOM     24  N   UNL     1      37.726 -26.182 -13.743  0.00  0.00    -0.242 NA
ATOM     25  C   UNL     1      35.699 -24.618 -14.806  0.00  0.00    +0.148 C 
ATOM     26  C   UNL     1      36.417 -24.148 -13.726  0.00  0.00    +0.058 C 
ATOM     27  C   UNL     1      35.967 -25.848 -15.367  0.00  0.00    +0.058 C 
ATOM     28  C   UNL     1      37.420 -24.968 -13.232  0.00  0.00    +0.102 C 
ATOM     29  C   UNL     1      36.990 -26.591 -14.801  0.00  0.00    +0.102 C 
ENDBRANCH  23  25
ENDBRANCH  18  23
ENDBRANCH   3  17
TORSDOF 5
ENDMDL
MODEL 4
REMARK VINA RESULT:     -11.3      1.360      1.993
REMARK  Name = 15942672
REMARK  5 active torsions:
REMARK  status: ('A' for Active; 'I' for Inactive)
REMARK    1  A    between atoms: N_2  and  C_7
REMARK    2  A    between atoms: N_3  and  C_17
REMARK    3  A    between atoms: C_8  and  C_16
REMARK    4  A    between atoms: C_18  and  O_23
REMARK    5  A    between atoms: O_23  and  C_25
REMARK                            x       y       z     vdW  Elec       q    Type
REMARK                         _______ _______ _______ _____ _____    ______ ____
ROOT
ATOM      1  O   UNL     1      34.688 -16.090 -20.526  0.00  0.00    -0.252 OA
ATOM      2  N   UNL     1      34.431 -17.988 -21.875  0.00  0.00    -0.268 N 
ATOM      3  N   UNL     1      33.526 -15.973 -22.552  0.00  0.00    -0.268 N 
ATOM      4  C   UNL     1      34.258 -16.622 -21.545  0.00  0.00    +0.308 C 
ATOM      5  H   UNL     1      34.029 -18.274 -22.727  0.00  0.00    +0.156 HD
ATOM      6  H   UNL     1      33.248 -16.533 -23.312  0.00  0.00    +0.156 HD
ENDROOT
BRANCH   2   7
ATOM      7  C   UNL     1      35.093 -18.981 -21.153  0.00  0.00    +0.052 C 
ATOM      8  C   UNL     1      35.024 -20.976 -19.791  0.00  0.00    +0.073 C 
ATOM      9  C   UNL     1      34.362 -19.982 -20.513  0.00  0.00    +0.019 C 
ATOM     10  C   UNL     1      36.485 -18.973 -21.071  0.00  0.00    +0.015 C 
ATOM     11  C   UNL     1      36.417 -20.967 -19.709  0.00  0.00    +0.004 C 
ATOM     12  C   UNL     1      37.147 -19.966 -20.349  0.00  0.00    +0.001 C 
BRANCH   8  16
ATOM     13  F   UNL     1      34.160 -23.206 -19.824  0.00  0.00    -0.166 F 
ATOM     14  F   UNL     1      34.762 -22.413 -17.898  0.00  0.00    -0.166 F 
ATOM     15  F   UNL     1      32.953 -21.679 -18.857  0.00  0.00    -0.166 F 
ATOM     16  C   UNL     1      34.244 -22.048 -19.108  0.00  0.00    +0.419 C 
ENDBRANCH   8  16
ENDBRANCH   2   7
BRANCH   3  17
ATOM     17  C   UNL     1      33.139 -14.614 -22.610  0.00  0.00    +0.052 C 
ATOM     18  C   UNL     1      32.380 -11.952 -22.725  0.00  0.00    +0.145 C 
ATOM     19  C   UNL     1      32.349 -14.090 -21.600  0.00  0.00    +0.018 C 
ATOM     20  C   UNL     1      33.557 -13.835 -23.676  0.00  0.00    +0.018 C 
ATOM     21  C   UNL     1      31.967 -12.749 -21.658  0.00  0.00    +0.039 C 
ATOM     22  C   UNL     1      33.177 -12.494 -23.734  0.00  0.00    +0.039 C 
BRANCH  18  23
ATOM     23  O   UNL     1      32.010 -10.643 -22.781  0.00  0.00    -0.453 OA
BRANCH  23  25
ATOM     24  N   UNL     1      34.979  -7.825 -23.495  0.00  0.00    -0.242 NA
ATOM     25  C   UNL     1      32.999  -9.704 -23.020  0.00  0.00    +0.148 C 
ATOM     26  C   UNL     1      33.975  -9.976 -23.955  0.00  0.00    +0.058 C 
ATOM     27  C   UNL     1      32.986  -8.519 -22.317  0.00  0.00    +0.058 C 
ATOM     28  C   UNL     1      34.942  -9.004 -24.156  0.00  0.00    +0.102 C 
ATOM     29  C   UNL     1      33.998  -7.613 -22.590  0.00  0.00    +0.102 C 
ENDBRANCH  23  25
ENDBRANCH  18  23
ENDBRANCH   3  17
TORSDOF 5
ENDMDL
MODEL 5
REMARK VINA RESULT:     -11.2      4.852     10.178
REMARK  Name = 15942672
REMARK  5 active torsions:
REMARK  status: ('A' for Active; 'I' for Inactive)
REMARK    1  A    between atoms: N_2  and  C_7
REMARK    2  A    between atoms: N_3  and  C_17
REMARK    3  A    between atoms: C_8  and  C_16
REMARK    4  A    between atoms: C_18  and  O_23
REMARK    5  A    between atoms: O_23  and  C_25
REMARK                            x       y       z     vdW  Elec       q    Type
REMARK                         _______ _______ _______ _____ _____    ______ ____
ROOT
ATOM      1  O   UNL     1      33.172 -17.910 -21.236  0.00  0.00    -0.252 OA
ATOM      2  N   UNL     1      35.004 -17.022 -22.396  0.00  0.00    -0.268 N 
ATOM      3  N   UNL     1      35.237 -19.008 -21.240  0.00  0.00    -0.268 N 
ATOM      4  C   UNL     1      34.347 -17.978 -21.583  0.00  0.00    +0.308 C 
ATOM      5  H   UNL     1      35.950 -17.209 -22.593  0.00  0.00    +0.156 HD
ATOM      6  H   UNL     1      36.151 -18.925 -21.595  0.00  0.00    +0.156 HD
ENDROOT
BRANCH   2   7
ATOM      7  C   UNL     1      34.488 -15.850 -22.951  0.00  0.00    +0.052 C 
ATOM      8  C   UNL     1      33.492 -14.681 -24.816  0.00  0.00    +0.073 C 
ATOM      9  C   UNL     1      34.008 -15.853 -24.261  0.00  0.00    +0.019 C 
ATOM     10  C   UNL     1      34.454 -14.678 -22.197  0.00  0.00    +0.015 C 
ATOM     11  C   UNL     1      33.458 -13.508 -24.061  0.00  0.00    +0.004 C 
ATOM     12  C   UNL     1      33.939 -13.507 -22.753  0.00  0.00    +0.001 C 
BRANCH   8  16
ATOM     13  F   UNL     1      31.889 -13.878 -26.399  0.00  0.00    -0.166 F 
ATOM     14  F   UNL     1      33.893 -14.258 -27.135  0.00  0.00    -0.166 F 
ATOM     15  F   UNL     1      32.589 -15.923 -26.631  0.00  0.00    -0.166 F 
ATOM     16  C   UNL     1      32.977 -14.682 -26.216  0.00  0.00    +0.419 C 
ENDBRANCH   8  16
ENDBRANCH   2   7
BRANCH   3  17
ATOM     17  C   UNL     1      34.983 -20.151 -20.446  0.00  0.00    +0.052 C 
ATOM     18  C   UNL     1      34.484 -22.389 -18.891  0.00  0.00    +0.145 C 
ATOM     19  C   UNL     1      36.036 -20.777 -19.802  0.00  0.00    +0.018 C 
ATOM     20  C   UNL     1      33.684 -20.620 -20.329  0.00  0.00    +0.018 C 
ATOM     21  C   UNL     1      35.785 -21.905 -19.019  0.00  0.00    +0.039 C 
ATOM     22  C   UNL     1      33.433 -21.747 -19.546  0.00  0.00    +0.039 C 
BRANCH  18  23
ATOM     23  O   UNL     1      34.238 -23.487 -18.126  0.00  0.00    -0.453 OA
BRANCH  23  25
ATOM     24  N   UNL     1      32.131 -22.946 -14.585  0.00  0.00    -0.242 NA
ATOM     25  C   UNL     1      33.536 -23.306 -16.946  0.00  0.00    +0.148 C 
ATOM     26  C   UNL     1      34.225 -23.266 -15.752  0.00  0.00    +0.058 C 
ATOM     27  C   UNL     1      32.166 -23.170 -16.991  0.00  0.00    +0.058 C 
ATOM     28  C   UNL     1      33.476 -23.084 -14.600  0.00  0.00    +0.102 C 
ATOM     29  C   UNL     1      31.510 -22.993 -15.784  0.00  0.00    +0.102 C 
ENDBRANCH  23  25
ENDBRANCH  18  23
ENDBRANCH   3  17
TORSDOF 5
ENDMDL
MODEL 6
REMARK VINA RESULT:     -11.1      4.242     10.014
REMARK  Name = 15942672
REMARK  5 active torsions:
REMARK  status: ('A' for Active; 'I' for Inactive)
REMARK    1  A    between atoms: N_2  and  C_7
REMARK    2  A    between atoms: N_3  and  C_17
REMARK    3  A    between atoms: C_8  and  C_16
REMARK    4  A    between atoms: C_18  and  O_23
REMARK    5  A    between atoms: O_23  and  C_25
REMARK                            x       y       z     vdW  Elec       q    Type
REMARK                         _______ _______ _______ _____ _____    ______ ____
ROOT
ATOM      1  O   UNL     1      34.476 -15.551 -20.757  0.00  0.00    -0.252 OA
ATOM      2  N   UNL     1      33.476 -15.215 -22.849  0.00  0.00    -0.268 N 
ATOM      3  N   UNL     1      34.187 -17.329 -22.249  0.00  0.00    -0.268 N 
ATOM      4  C   UNL     1      34.090 -15.991 -21.836  0.00  0.00    +0.308 C 
ATOM      5  H   UNL     1      33.217 -15.705 -23.663  0.00  0.00    +0.156 HD
ATOM      6  H   UNL     1      33.832 -17.532 -23.144  0.00  0.00    +0.156 HD
ENDROOT
BRANCH   2   7
ATOM      7  C   UNL     1      33.190 -13.849 -22.847  0.00  0.00    +0.052 C 
ATOM      8  C   UNL     1      32.096 -11.942 -21.847  0.00  0.00    +0.073 C 
ATOM      9  C   UNL     1      32.381 -13.308 -21.849  0.00  0.00    +0.019 C 
ATOM     10  C   UNL     1      33.714 -13.027 -23.844  0.00  0.00    +0.015 C 
ATOM     11  C   UNL     1      32.620 -11.119 -22.844  0.00  0.00    +0.004 C 
ATOM     12  C   UNL     1      33.429 -11.661 -23.842  0.00  0.00    +0.001 C 
BRANCH   8  16
ATOM     13  F   UNL     1      31.411 -10.020 -20.599  0.00  0.00    -0.166 F 
ATOM     14  F   UNL     1      29.896 -11.514 -21.014  0.00  0.00    -0.166 F 
ATOM     15  F   UNL     1      31.456 -11.927 -19.557  0.00  0.00    -0.166 F 
ATOM     16  C   UNL     1      31.232 -11.361 -20.779  0.00  0.00    +0.419 C 
ENDBRANCH   8  16
ENDBRANCH   2   7
BRANCH   3  17
ATOM     17  C   UNL     1      34.733 -18.423 -21.537  0.00  0.00    +0.052 C 
ATOM     18  C   UNL     1      35.804 -20.565 -20.144  0.00  0.00    +0.145 C 
ATOM     19  C   UNL     1      33.884 -19.380 -21.009  0.00  0.00    +0.018 C 
ATOM     20  C   UNL     1      36.107 -18.514 -21.384  0.00  0.00    +0.018 C 
ATOM     21  C   UNL     1      34.423 -20.459 -20.307  0.00  0.00    +0.039 C 
ATOM     22  C   UNL     1      36.646 -19.593 -20.683  0.00  0.00    +0.039 C 
BRANCH  18  23
ATOM     23  O   UNL     1      36.330 -21.618 -19.462  0.00  0.00    -0.453 OA
BRANCH  23  25
ATOM     24  N   UNL     1      34.152 -23.134 -16.264  0.00  0.00    -0.242 NA
ATOM     25  C   UNL     1      35.604 -22.122 -18.395  0.00  0.00    +0.148 C 
ATOM     26  C   UNL     1      36.191 -22.183 -17.149  0.00  0.00    +0.058 C 
ATOM     27  C   UNL     1      34.312 -22.553 -18.604  0.00  0.00    +0.058 C 
ATOM     28  C   UNL     1      35.423 -22.697 -16.116  0.00  0.00    +0.102 C 
ATOM     29  C   UNL     1      33.629 -23.051 -17.506  0.00  0.00    +0.102 C 
ENDBRANCH  23  25
ENDBRANCH  18  23
ENDBRANCH   3  17
TORSDOF 5
ENDMDL
MODEL 7
REMARK VINA RESULT:     -11.1      5.577     10.397
REMARK  Name = 15942672
REMARK  5 active torsions:
REMARK  status: ('A' for Active; 'I' for Inactive)
REMARK    1  A    between atoms: N_2  and  C_7
REMARK    2  A    between atoms: N_3  and  C_17
REMARK    3  A    between atoms: C_8  and  C_16
REMARK    4  A    between atoms: C_18  and  O_23
REMARK    5  A    between atoms: O_23  and  C_25
REMARK                            x       y       z     vdW  Elec       q    Type
REMARK                         _______ _______ _______ _____ _____    ______ ____
ROOT
ATOM      1  O   UNL     1      33.754 -13.829 -21.524  0.00  0.00    -0.252 OA
ATOM      2  N   UNL     1      33.821 -12.822 -23.639  0.00  0.00    -0.268 N 
ATOM      3  N   UNL     1      34.543 -15.002 -23.387  0.00  0.00    -0.268 N 
ATOM      4  C   UNL     1      34.014 -13.884 -22.723  0.00  0.00    +0.308 C 
ATOM      5  H   UNL     1      34.076 -13.012 -24.571  0.00  0.00    +0.156 HD
ATOM      6  H   UNL     1      34.699 -14.896 -24.353  0.00  0.00    +0.156 HD
ENDROOT
BRANCH   2   7
ATOM      7  C   UNL     1      33.320 -11.543 -23.397  0.00  0.00    +0.052 C 
ATOM      8  C   UNL     1      33.540  -9.143 -23.565  0.00  0.00    +0.073 C 
ATOM      9  C   UNL     1      34.041 -10.422 -23.808  0.00  0.00    +0.019 C 
ATOM     10  C   UNL     1      32.098 -11.386 -22.743  0.00  0.00    +0.015 C 
ATOM     11  C   UNL     1      32.317  -8.986 -22.912  0.00  0.00    +0.004 C 
ATOM     12  C   UNL     1      31.597 -10.106 -22.501  0.00  0.00    +0.001 C 
BRANCH   8  16
ATOM     13  F   UNL     1      33.531  -6.847 -24.234  0.00  0.00    -0.166 F 
ATOM     14  F   UNL     1      35.246  -7.533 -23.099  0.00  0.00    -0.166 F 
ATOM     15  F   UNL     1      34.994  -8.156 -25.167  0.00  0.00    -0.166 F 
ATOM     16  C   UNL     1      34.310  -7.944 -24.005  0.00  0.00    +0.419 C 
ENDBRANCH   8  16
ENDBRANCH   2   7
BRANCH   3  17
ATOM     17  C   UNL     1      34.880 -16.263 -22.840  0.00  0.00    +0.052 C 
ATOM     18  C   UNL     1      35.540 -18.731 -21.768  0.00  0.00    +0.145 C 
ATOM     19  C   UNL     1      35.080 -17.338 -23.689  0.00  0.00    +0.018 C 
ATOM     20  C   UNL     1      35.003 -16.395 -21.467  0.00  0.00    +0.018 C 
ATOM     21  C   UNL     1      35.412 -18.581 -23.149  0.00  0.00    +0.039 C 
ATOM     22  C   UNL     1      35.336 -17.637 -20.927  0.00  0.00    +0.039 C 
BRANCH  18  23
ATOM     23  O   UNL     1      35.866 -19.942 -21.242  0.00  0.00    -0.453 OA
BRANCH  23  25
ATOM     24  N   UNL     1      32.983 -21.905 -18.981  0.00  0.00    -0.242 NA
ATOM     25  C   UNL     1      34.906 -20.595 -20.487  0.00  0.00    +0.148 C 
ATOM     26  C   UNL     1      35.288 -21.631 -19.661  0.00  0.00    +0.058 C 
ATOM     27  C   UNL     1      33.590 -20.197 -20.581  0.00  0.00    +0.058 C 
ATOM     28  C   UNL     1      34.289 -22.253 -18.929  0.00  0.00    +0.102 C 
ATOM     29  C   UNL     1      32.667 -20.884 -19.808  0.00  0.00    +0.102 C 
ENDBRANCH  23  25
ENDBRANCH  18  23
ENDBRANCH   3  17
TORSDOF 5
ENDMDL
MODEL 8
REMARK VINA RESULT:     -11.1      4.701      7.866
REMARK  Name = 15942672
REMARK  5 active torsions:
REMARK  status: ('A' for Active; 'I' for Inactive)
REMARK    1  A    between atoms: N_2  and  C_7
REMARK    2  A    between atoms: N_3  and  C_17
REMARK    3  A    between atoms: C_8  and  C_16
REMARK    4  A    between atoms: C_18  and  O_23
REMARK    5  A    between atoms: O_23  and  C_25
REMARK                            x       y       z     vdW  Elec       q    Type
REMARK                         _______ _______ _______ _____ _____    ______ ____
ROOT
ATOM      1  O   UNL     1      36.193 -21.866 -16.983  0.00  0.00    -0.252 OA
ATOM      2  N   UNL     1      34.636 -23.517 -16.402  0.00  0.00    -0.268 N 
ATOM      3  N   UNL     1      34.351 -22.311 -18.352  0.00  0.00    -0.268 N 
ATOM      4  C   UNL     1      35.168 -22.494 -17.225  0.00  0.00    +0.308 C 
ATOM      5  H   UNL     1      33.804 -23.934 -16.725  0.00  0.00    +0.156 HD
ATOM      6  H   UNL     1      33.558 -22.892 -18.409  0.00  0.00    +0.156 HD
ENDROOT
BRANCH   2   7
ATOM      7  C   UNL     1      35.133 -24.010 -15.196  0.00  0.00    +0.052 C 
ATOM      8  C   UNL     1      36.853 -25.173 -13.961  0.00  0.00    +0.073 C 
ATOM      9  C   UNL     1      36.356 -24.680 -15.167  0.00  0.00    +0.019 C 
ATOM     10  C   UNL     1      34.407 -23.834 -14.019  0.00  0.00    +0.015 C 
ATOM     11  C   UNL     1      36.126 -24.996 -12.783  0.00  0.00    +0.004 C 
ATOM     12  C   UNL     1      34.904 -24.327 -12.812  0.00  0.00    +0.001 C 
BRANCH   8  16
ATOM     13  F   UNL     1      38.687 -26.013 -12.675  0.00  0.00    -0.166 F 
ATOM     14  F   UNL     1      38.100 -27.162 -14.417  0.00  0.00    -0.166 F 
ATOM     15  F   UNL     1      39.122 -25.260 -14.667  0.00  0.00    -0.166 F 
ATOM     16  C   UNL     1      38.161 -25.889 -13.928  0.00  0.00    +0.419 C 
ENDBRANCH   8  16
ENDBRANCH   2   7
BRANCH   3  17
ATOM     17  C   UNL     1      34.524 -21.394 -19.415  0.00  0.00    +0.052 C 
ATOM     18  C   UNL     1      34.864 -19.598 -21.497  0.00  0.00    +0.145 C 
ATOM     19  C   UNL     1      35.804 -21.102 -19.856  0.00  0.00    +0.018 C 
ATOM     20  C   UNL     1      33.411 -20.807 -19.993  0.00  0.00    +0.018 C 
ATOM     21  C   UNL     1      35.975 -20.197 -20.905  0.00  0.00    +0.039 C 
ATOM     22  C   UNL     1      33.581 -19.904 -21.042  0.00  0.00    +0.039 C 
BRANCH  18  23
ATOM     23  O   UNL     1      35.030 -18.718 -22.521  0.00  0.00    -0.453 OA
BRANCH  23  25
ATOM     24  N   UNL     1      34.424 -14.686 -21.720  0.00  0.00    -0.242 NA
ATOM     25  C   UNL     1      34.830 -17.374 -22.254  0.00  0.00    +0.148 C 
ATOM     26  C   UNL     1      34.877 -16.932 -20.948  0.00  0.00    +0.058 C 
ATOM     27  C   UNL     1      34.586 -16.509 -23.298  0.00  0.00    +0.058 C 
ATOM     28  C   UNL     1      34.668 -15.579 -20.734  0.00  0.00    +0.102 C 
ATOM     29  C   UNL     1      34.389 -15.175 -22.979  0.00  0.00    +0.102 C 
ENDBRANCH  23  25
ENDBRANCH  18  23
ENDBRANCH   3  17
TORSDOF 5
ENDMDL
MODEL 9
REMARK VINA RESULT:     -11.1      5.646     11.419
REMARK  Name = 15942672
REMARK  5 active torsions:
REMARK  status: ('A' for Active; 'I' for Inactive)
REMARK    1  A    between atoms: N_2  and  C_7
REMARK    2  A    between atoms: N_3  and  C_17
REMARK    3  A    between atoms: C_8  and  C_16
REMARK    4  A    between atoms: C_18  and  O_23
REMARK    5  A    between atoms: O_23  and  C_25
REMARK                            x       y       z     vdW  Elec       q    Type
REMARK                         _______ _______ _______ _____ _____    ______ ____
ROOT
ATOM      1  O   UNL     1      34.232 -20.718 -19.878  0.00  0.00    -0.252 OA
ATOM      2  N   UNL     1      36.097 -19.563 -20.700  0.00  0.00    -0.268 N 
ATOM      3  N   UNL     1      36.332 -20.967 -18.881  0.00  0.00    -0.268 N 
ATOM      4  C   UNL     1      35.428 -20.448 -19.820  0.00  0.00    +0.308 C 
ATOM      5  H   UNL     1      37.060 -19.443 -20.533  0.00  0.00    +0.156 HD
ATOM      6  H   UNL     1      37.263 -20.657 -18.961  0.00  0.00    +0.156 HD
ENDROOT
BRANCH   2   7
ATOM      7  C   UNL     1      35.573 -18.838 -21.771  0.00  0.00    +0.052 C 
ATOM      8  C   UNL     1      34.685 -16.778 -22.667  0.00  0.00    +0.073 C 
ATOM      9  C   UNL     1      35.209 -17.503 -21.597  0.00  0.00    +0.019 C 
ATOM     10  C   UNL     1      35.415 -19.448 -23.015  0.00  0.00    +0.015 C 
ATOM     11  C   UNL     1      34.527 -17.389 -23.912  0.00  0.00    +0.004 C 
ATOM     12  C   UNL     1      34.891 -18.723 -24.085  0.00  0.00    +0.001 C 
BRANCH   8  16
ATOM     13  F   UNL     1      34.742 -14.807 -21.313  0.00  0.00    -0.166 F 
ATOM     14  F   UNL     1      34.768 -14.524 -23.462  0.00  0.00    -0.166 F 
ATOM     15  F   UNL     1      32.942 -15.172 -22.476  0.00  0.00    -0.166 F 
ATOM     16  C   UNL     1      34.296 -15.350 -22.483  0.00  0.00    +0.419 C 
ENDBRANCH   8  16
ENDBRANCH   2   7
BRANCH   3  17
ATOM     17  C   UNL     1      36.072 -21.880 -17.832  0.00  0.00    +0.052 C 
ATOM     18  C   UNL     1      35.564 -23.668 -15.778  0.00  0.00    +0.145 C 
ATOM     19  C   UNL     1      34.821 -22.464 -17.737  0.00  0.00    +0.018 C 
ATOM     20  C   UNL     1      37.075 -22.171 -16.922  0.00  0.00    +0.018 C 
ATOM     21  C   UNL     1      34.564 -23.365 -16.702  0.00  0.00    +0.039 C 
ATOM     22  C   UNL     1      36.820 -23.072 -15.888  0.00  0.00    +0.039 C 
BRANCH  18  23
ATOM     23  O   UNL     1      35.315 -24.548 -14.770  0.00  0.00    -0.453 OA
BRANCH  23  25
ATOM     24  N   UNL     1      37.762 -24.390 -11.415  0.00  0.00    -0.242 NA
ATOM     25  C   UNL     1      36.132 -24.495 -13.653  0.00  0.00    +0.148 C 
ATOM     26  C   UNL     1      37.120 -25.444 -13.494  0.00  0.00    +0.058 C 
ATOM     27  C   UNL     1      35.938 -23.496 -12.724  0.00  0.00    +0.058 C 
ATOM     28  C   UNL     1      37.908 -25.347 -12.359  0.00  0.00    +0.102 C 
ATOM     29  C   UNL     1      36.778 -23.487 -11.623  0.00  0.00    +0.102 C 
ENDBRANCH  23  25
ENDBRANCH  18  23
ENDBRANCH   3  17
TORSDOF 5
ENDMDL
