MODEL 1
REMARK VINA RESULT:     -10.0      0.000      0.000
REMARK  Name = 9543487
REMARK  10 active torsions:
REMARK  status: ('A' for Active; 'I' for Inactive)
REMARK    1  A    between atoms: N_1  and  S_3
REMARK    2  A    between atoms: N_1  and  C_17
REMARK    3  A    between atoms: S_3  and  C_6
REMARK    4  A    between atoms: C_10  and  O_15
REMARK    5  A    between atoms: C_17  and  C_18
REMARK    6  A    between atoms: C_18  and  O_19
REMARK    7  A    between atoms: C_18  and  C_21
REMARK    8  A    between atoms: C_21  and  N_22
REMARK    9  A    between atoms: C_21  and  C_26
REMARK   10  A    between atoms: C_26  and  C_27
REMARK                            x       y       z     vdW  Elec       q    Type
REMARK                         _______ _______ _______ _____ _____    ______ ____
ROOT
ATOM      1  N   UNL     1      34.365 -13.509 -22.732  0.00  0.00    -0.177 NA
ATOM      2  H   UNL     1      34.707 -12.732 -22.167  0.00  0.00    +0.149 HD
ENDROOT
BRANCH   1   3
ATOM      3  S   UNL     1      33.302 -12.852 -23.880  0.00  0.00    +0.060 S 
ATOM      4  O   UNL     1      32.008 -13.497 -23.766  0.00  0.00    -0.153 OA
ATOM      5  O   UNL     1      33.976 -12.793 -25.163  0.00  0.00    -0.153 OA
BRANCH   3   6
ATOM      6  C   UNL     1      33.134 -11.187 -23.311  0.00  0.00    +0.114 C 
ATOM      7  C   UNL     1      33.914 -10.185 -23.873  0.00  0.00    -0.005 C 
ATOM      8  C   UNL     1      32.219 -10.899 -22.307  0.00  0.00    -0.001 C 
ATOM      9  C   UNL     1      33.778  -8.873 -23.422  0.00  0.00    +0.009 C 
ATOM     10  C   UNL     1      32.863  -8.572 -22.413  0.00  0.00    +0.134 C 
ATOM     11  C   UNL     1      32.083  -9.585 -21.855  0.00  0.00    +0.034 C 
ATOM     12  C   UNL     1      34.901 -10.494 -24.955  0.00  0.00    +0.032 C 
ATOM     13  C   UNL     1      31.366 -11.958 -21.686  0.00  0.00    +0.033 C 
ATOM     14  C   UNL     1      34.612  -7.779 -24.012  0.00  0.00    +0.034 C 
BRANCH  10  15
ATOM     15  O   UNL     1      32.718  -7.296 -21.958  0.00  0.00    -0.472 OA
ATOM     16  C   UNL     1      32.377  -7.133 -20.583  0.00  0.00    +0.252 C 
ENDBRANCH  10  15
ENDBRANCH   3   6
ENDBRANCH   1   3
BRANCH   1  17
ATOM     17  C   UNL     1      33.883 -14.547 -21.789  0.00  0.00    +0.118 C 
BRANCH  17  18
ATOM     18  C   UNL     1      35.002 -15.561 -21.534  0.00  0.00    +0.108 C 
BRANCH  18  19
ATOM     19  O   UNL     1      34.988 -15.941 -20.158  0.00  0.00    -0.385 OA
ATOM     20  H   UNL     1      34.569 -16.811 -20.066  0.00  0.00    +0.210 HD
ENDBRANCH  18  19
BRANCH  18  21
ATOM     21  C   UNL     1      34.881 -16.824 -22.420  0.00  0.00    -0.032 C 
BRANCH  21  22
ATOM     22  N   UNL     1      35.265 -16.511 -23.802  0.00  0.00    +0.384 N 
ATOM     23  H   UNL     1      36.281 -16.469 -23.872  0.00  0.00    -0.089 HD
ATOM     24  H   UNL     1      34.868 -15.612 -24.070  0.00  0.00    -0.089 HD
ATOM     25  H   UNL     1      34.911 -17.238 -24.426  0.00  0.00    -0.089 HD
ENDBRANCH  21  22
BRANCH  21  26
ATOM     26  C   UNL     1      35.745 -18.005 -21.925  0.00  0.00    +0.007 C 
BRANCH  26  27
ATOM     27  C   UNL     1      34.959 -19.070 -21.201  0.00  0.00    -0.024 C 
ATOM     28  C   UNL     1      33.574 -19.024 -21.220  0.00  0.00    -0.004 C 
ATOM     29  C   UNL     1      35.637 -20.075 -20.529  0.00  0.00    -0.004 C 
ATOM     30  C   UNL     1      32.847 -20.008 -20.551  0.00  0.00    -0.000 C 
ATOM     31  C   UNL     1      34.910 -21.060 -19.859  0.00  0.00    -0.000 C 
ATOM     32  C   UNL     1      33.516 -21.027 -19.869  0.00  0.00    -0.000 C 
ENDBRANCH  26  27
ENDBRANCH  21  26
ENDBRANCH  18  21
ENDBRANCH  17  18
ENDBRANCH   1  17
TORSDOF 10
ENDMDL
MODEL 2
REMARK VINA RESULT:      -9.9      3.629      9.663
REMARK  Name = 9543487
REMARK  10 active torsions:
REMARK  status: ('A' for Active; 'I' for Inactive)
REMARK    1  A    between atoms: N_1  and  S_3
REMARK    2  A    between atoms: N_1  and  C_17
REMARK    3  A    between atoms: S_3  and  C_6
REMARK    4  A    between atoms: C_10  and  O_15
REMARK    5  A    between atoms: C_17  and  C_18
REMARK    6  A    between atoms: C_18  and  O_19
REMARK    7  A    between atoms: C_18  and  C_21
REMARK    8  A    between atoms: C_21  and  N_22
REMARK    9  A    between atoms: C_21  and  C_26
REMARK   10  A    between atoms: C_26  and  C_27
REMARK                            x       y       z     vdW  Elec       q    Type
REMARK                         _______ _______ _______ _____ _____    ______ ____
ROOT
ATOM      1  N   UNL     1      34.148 -17.620 -21.275  0.00  0.00    -0.177 NA
ATOM      2  H   UNL     1      33.632 -17.973 -20.469  0.00  0.00    +0.149 HD
ENDROOT
BRANCH   1   3
ATOM      3  S   UNL     1      35.106 -18.899 -21.846  0.00  0.00    +0.060 S 
ATOM      4  O   UNL     1      36.501 -18.500 -21.834  0.00  0.00    -0.153 OA
ATOM      5  O   UNL     1      34.509 -19.426 -23.058  0.00  0.00    -0.153 OA
BRANCH   3   6
ATOM      6  C   UNL     1      34.876 -20.117 -20.586  0.00  0.00    +0.114 C 
ATOM      7  C   UNL     1      35.970 -20.573 -19.862  0.00  0.00    -0.005 C 
ATOM      8  C   UNL     1      33.601 -20.604 -20.333  0.00  0.00    -0.001 C 
ATOM      9  C   UNL     1      35.785 -21.533 -18.867  0.00  0.00    +0.009 C 
ATOM     10  C   UNL     1      34.509 -22.029 -18.605  0.00  0.00    +0.134 C 
ATOM     11  C   UNL     1      33.416 -21.565 -19.338  0.00  0.00    +0.034 C 
ATOM     12  C   UNL     1      37.346 -20.049 -20.134  0.00  0.00    +0.032 C 
ATOM     13  C   UNL     1      32.407 -20.131 -21.097  0.00  0.00    +0.033 C 
ATOM     14  C   UNL     1      36.951 -22.039 -18.077  0.00  0.00    +0.034 C 
BRANCH  10  15
ATOM     15  O   UNL     1      34.308 -22.970 -17.640  0.00  0.00    -0.472 OA
ATOM     16  C   UNL     1      32.964 -23.195 -17.223  0.00  0.00    +0.252 C 
ENDBRANCH  10  15
ENDBRANCH   3   6
ENDBRANCH   1   3
BRANCH   1  17
ATOM     17  C   UNL     1      34.787 -16.351 -20.852  0.00  0.00    +0.118 C 
BRANCH  17  18
ATOM     18  C   UNL     1      34.774 -15.360 -22.021  0.00  0.00    +0.108 C 
BRANCH  18  19
ATOM     19  O   UNL     1      35.477 -15.928 -23.126  0.00  0.00    -0.385 OA
ATOM     20  H   UNL     1      36.349 -16.235 -22.832  0.00  0.00    +0.210 HD
ENDBRANCH  18  19
BRANCH  18  21
ATOM     21  C   UNL     1      33.343 -14.972 -22.462  0.00  0.00    -0.032 C 
BRANCH  21  22
ATOM     22  N   UNL     1      32.406 -15.135 -21.343  0.00  0.00    +0.384 N 
ATOM     23  H   UNL     1      32.008 -14.229 -21.098  0.00  0.00    -0.089 HD
ATOM     24  H   UNL     1      32.901 -15.518 -20.539  0.00  0.00    -0.089 HD
ATOM     25  H   UNL     1      31.658 -15.772 -21.617  0.00  0.00    -0.089 HD
ENDBRANCH  21  22
BRANCH  21  26
ATOM     26  C   UNL     1      33.236 -13.521 -22.985  0.00  0.00    +0.007 C 
BRANCH  26  27
ATOM     27  C   UNL     1      33.318 -13.411 -24.488  0.00  0.00    -0.024 C 
ATOM     28  C   UNL     1      33.681 -12.203 -25.062  0.00  0.00    -0.004 C 
ATOM     29  C   UNL     1      33.028 -14.521 -25.267  0.00  0.00    -0.004 C 
ATOM     30  C   UNL     1      33.757 -12.102 -26.451  0.00  0.00    -0.000 C 
ATOM     31  C   UNL     1      33.104 -14.419 -26.655  0.00  0.00    -0.000 C 
ATOM     32  C   UNL     1      33.468 -13.210 -27.248  0.00  0.00    -0.000 C 
ENDBRANCH  26  27
ENDBRANCH  21  26
ENDBRANCH  18  21
ENDBRANCH  17  18
ENDBRANCH   1  17
TORSDOF 10
ENDMDL
MODEL 3
REMARK VINA RESULT:      -9.8      1.099      2.357
REMARK  Name = 9543487
REMARK  10 active torsions:
REMARK  status: ('A' for Active; 'I' for Inactive)
REMARK    1  A    between atoms: N_1  and  S_3
REMARK    2  A    between atoms: N_1  and  C_17
REMARK    3  A    between atoms: S_3  and  C_6
REMARK    4  A    between atoms: C_10  and  O_15
REMARK    5  A    between atoms: C_17  and  C_18
REMARK    6  A    between atoms: C_18  and  O_19
REMARK    7  A    between atoms: C_18  and  C_21
REMARK    8  A    between atoms: C_21  and  N_22
REMARK    9  A    between atoms: C_21  and  C_26
REMARK   10  A    between atoms: C_26  and  C_27
REMARK                            x       y       z     vdW  Elec       q    Type
REMARK                         _______ _______ _______ _____ _____    ______ ____
ROOT
ATOM      1  N   UNL     1      34.328 -13.966 -22.910  0.00  0.00    -0.177 NA
ATOM      2  H   UNL     1      34.441 -13.964 -21.897  0.00  0.00    +0.149 HD
ENDROOT
BRANCH   1   3
ATOM      3  S   UNL     1      32.741 -13.458 -23.230  0.00  0.00    +0.060 S 
ATOM      4  O   UNL     1      31.868 -13.899 -22.159  0.00  0.00    -0.153 OA
ATOM      5  O   UNL     1      32.418 -13.770 -24.608  0.00  0.00    -0.153 OA
BRANCH   3   6
ATOM      6  C   UNL     1      32.892 -11.700 -23.121  0.00  0.00    +0.114 C 
ATOM      7  C   UNL     1      32.323 -11.025 -22.049  0.00  0.00    -0.005 C 
ATOM      8  C   UNL     1      33.583 -11.013 -24.110  0.00  0.00    -0.001 C 
ATOM      9  C   UNL     1      32.445  -9.639 -21.965  0.00  0.00    +0.009 C 
ATOM     10  C   UNL     1      33.136  -8.938 -22.953  0.00  0.00    +0.134 C 
ATOM     11  C   UNL     1      33.705  -9.625 -24.026  0.00  0.00    +0.034 C 
ATOM     12  C   UNL     1      31.577 -11.765 -20.982  0.00  0.00    +0.032 C 
ATOM     13  C   UNL     1      34.206 -11.714 -25.273  0.00  0.00    +0.033 C 
ATOM     14  C   UNL     1      31.837  -8.892 -20.820  0.00  0.00    +0.034 C 
BRANCH  10  15
ATOM     15  O   UNL     1      33.264  -7.583 -22.891  0.00  0.00    -0.472 OA
ATOM     16  C   UNL     1      32.616  -6.822 -23.907  0.00  0.00    +0.252 C 
ENDBRANCH  10  15
ENDBRANCH   3   6
ENDBRANCH   1   3
BRANCH   1  17
ATOM     17  C   UNL     1      34.789 -15.292 -23.390  0.00  0.00    +0.118 C 
BRANCH  17  18
ATOM     18  C   UNL     1      34.889 -16.256 -22.204  0.00  0.00    +0.108 C 
BRANCH  18  19
ATOM     19  O   UNL     1      33.758 -16.072 -21.352  0.00  0.00    -0.385 OA
ATOM     20  H   UNL     1      33.409 -15.174 -21.467  0.00  0.00    +0.210 HD
ENDBRANCH  18  19
BRANCH  18  21
ATOM     21  C   UNL     1      34.972 -17.738 -22.640  0.00  0.00    -0.032 C 
BRANCH  21  22
ATOM     22  N   UNL     1      35.497 -17.834 -24.008  0.00  0.00    +0.384 N 
ATOM     23  H   UNL     1      34.799 -18.269 -24.610  0.00  0.00    -0.089 HD
ATOM     24  H   UNL     1      36.346 -18.399 -24.008  0.00  0.00    -0.089 HD
ATOM     25  H   UNL     1      35.711 -16.899 -24.356  0.00  0.00    -0.089 HD
ENDBRANCH  21  22
BRANCH  21  26
ATOM     26  C   UNL     1      35.857 -18.601 -21.713  0.00  0.00    +0.007 C 
BRANCH  26  27
ATOM     27  C   UNL     1      35.084 -19.628 -20.922  0.00  0.00    -0.024 C 
ATOM     28  C   UNL     1      35.772 -20.600 -20.214  0.00  0.00    -0.004 C 
ATOM     29  C   UNL     1      33.698 -19.581 -20.919  0.00  0.00    -0.004 C 
ATOM     30  C   UNL     1      35.058 -21.550 -19.484  0.00  0.00    -0.000 C 
ATOM     31  C   UNL     1      32.984 -20.530 -20.189  0.00  0.00    -0.000 C 
ATOM     32  C   UNL     1      33.663 -21.515 -19.471  0.00  0.00    -0.000 C 
ENDBRANCH  26  27
ENDBRANCH  21  26
ENDBRANCH  18  21
ENDBRANCH  17  18
ENDBRANCH   1  17
TORSDOF 10
ENDMDL
MODEL 4
REMARK VINA RESULT:      -9.8      3.486      9.665
REMARK  Name = 9543487
REMARK  10 active torsions:
REMARK  status: ('A' for Active; 'I' for Inactive)
REMARK    1  A    between atoms: N_1  and  S_3
REMARK    2  A    between atoms: N_1  and  C_17
REMARK    3  A    between atoms: S_3  and  C_6
REMARK    4  A    between atoms: C_10  and  O_15
REMARK    5  A    between atoms: C_17  and  C_18
REMARK    6  A    between atoms: C_18  and  O_19
REMARK    7  A    between atoms: C_18  and  C_21
REMARK    8  A    between atoms: C_21  and  N_22
REMARK    9  A    between atoms: C_21  and  C_26
REMARK   10  A    between atoms: C_26  and  C_27
REMARK                            x       y       z     vdW  Elec       q    Type
REMARK                         _______ _______ _______ _____ _____    ______ ____
ROOT
ATOM      1  N   UNL     1      34.090 -17.506 -21.316  0.00  0.00    -0.177 NA
ATOM      2  H   UNL     1      33.700 -17.909 -20.465  0.00  0.00    +0.149 HD
ENDROOT
BRANCH   1   3
ATOM      3  S   UNL     1      34.943 -18.745 -22.102  0.00  0.00    +0.060 S 
ATOM      4  O   UNL     1      36.253 -18.258 -22.490  0.00  0.00    -0.153 OA
ATOM      5  O   UNL     1      34.073 -19.361 -23.084  0.00  0.00    -0.153 OA
BRANCH   3   6
ATOM      6  C   UNL     1      35.163 -19.920 -20.799  0.00  0.00    +0.114 C 
ATOM      7  C   UNL     1      34.058 -20.570 -20.266  0.00  0.00    -0.005 C 
ATOM      8  C   UNL     1      36.441 -20.180 -20.324  0.00  0.00    -0.001 C 
ATOM      9  C   UNL     1      34.234 -21.497 -19.239  0.00  0.00    +0.009 C 
ATOM     10  C   UNL     1      35.514 -21.766 -18.754  0.00  0.00    +0.134 C 
ATOM     11  C   UNL     1      36.618 -21.108 -19.296  0.00  0.00    +0.034 C 
ATOM     12  C   UNL     1      32.679 -20.290 -20.777  0.00  0.00    +0.032 C 
ATOM     13  C   UNL     1      37.647 -19.495 -20.881  0.00  0.00    +0.033 C 
ATOM     14  C   UNL     1      33.057 -22.207 -18.649  0.00  0.00    +0.034 C 
BRANCH  10  15
ATOM     15  O   UNL     1      35.706 -22.666 -17.750  0.00  0.00    -0.472 OA
ATOM     16  C   UNL     1      36.558 -22.270 -16.677  0.00  0.00    +0.252 C 
ENDBRANCH  10  15
ENDBRANCH   3   6
ENDBRANCH   1   3
BRANCH   1  17
ATOM     17  C   UNL     1      34.793 -16.263 -20.919  0.00  0.00    +0.118 C 
BRANCH  17  18
ATOM     18  C   UNL     1      34.610 -15.203 -22.010  0.00  0.00    +0.108 C 
BRANCH  18  19
ATOM     19  O   UNL     1      35.309 -15.613 -23.185  0.00  0.00    -0.385 OA
ATOM     20  H   UNL     1      36.020 -16.226 -22.942  0.00  0.00    +0.210 HD
ENDBRANCH  18  19
BRANCH  18  21
ATOM     21  C   UNL     1      33.123 -14.948 -22.355  0.00  0.00    -0.032 C 
BRANCH  21  22
ATOM     22  N   UNL     1      32.279 -15.210 -21.182  0.00  0.00    +0.384 N 
ATOM     23  H   UNL     1      32.230 -16.215 -21.015  0.00  0.00    -0.089 HD
ATOM     24  H   UNL     1      31.342 -14.846 -21.350  0.00  0.00    -0.089 HD
ATOM     25  H   UNL     1      32.681 -14.749 -20.365  0.00  0.00    -0.089 HD
ENDBRANCH  21  22
BRANCH  21  26
ATOM     26  C   UNL     1      32.847 -13.511 -22.849  0.00  0.00    +0.007 C 
BRANCH  26  27
ATOM     27  C   UNL     1      33.105 -13.316 -24.323  0.00  0.00    -0.024 C 
ATOM     28  C   UNL     1      33.678 -12.133 -24.762  0.00  0.00    -0.004 C 
ATOM     29  C   UNL     1      32.763 -14.324 -25.211  0.00  0.00    -0.004 C 
ATOM     30  C   UNL     1      33.916 -11.953 -26.124  0.00  0.00    -0.000 C 
ATOM     31  C   UNL     1      33.002 -14.144 -26.573  0.00  0.00    -0.000 C 
ATOM     32  C   UNL     1      33.578 -12.959 -27.031  0.00  0.00    -0.000 C 
ENDBRANCH  26  27
ENDBRANCH  21  26
ENDBRANCH  18  21
ENDBRANCH  17  18
ENDBRANCH   1  17
TORSDOF 10
ENDMDL
MODEL 5
REMARK VINA RESULT:      -9.7      3.454      6.068
REMARK  Name = 9543487
REMARK  10 active torsions:
REMARK  status: ('A' for Active; 'I' for Inactive)
REMARK    1  A    between atoms: N_1  and  S_3
REMARK    2  A    between atoms: N_1  and  C_17
REMARK    3  A    between atoms: S_3  and  C_6
REMARK    4  A    between atoms: C_10  and  O_15
REMARK    5  A    between atoms: C_17  and  C_18
REMARK    6  A    between atoms: C_18  and  O_19
REMARK    7  A    between atoms: C_18  and  C_21
REMARK    8  A    between atoms: C_21  and  N_22
REMARK    9  A    between atoms: C_21  and  C_26
REMARK   10  A    between atoms: C_26  and  C_27
REMARK                            x       y       z     vdW  Elec       q    Type
REMARK                         _______ _______ _______ _____ _____    ______ ____
ROOT
ATOM      1  N   UNL     1      34.174 -18.750 -21.526  0.00  0.00    -0.177 NA
ATOM      2  H   UNL     1      33.413 -18.545 -22.174  0.00  0.00    +0.149 HD
ENDROOT
BRANCH   1   3
ATOM      3  S   UNL     1      35.306 -17.496 -21.686  0.00  0.00    +0.060 S 
ATOM      4  O   UNL     1      36.522 -18.015 -22.283  0.00  0.00    -0.153 OA
ATOM      5  O   UNL     1      35.365 -16.757 -20.439  0.00  0.00    -0.153 OA
BRANCH   3   6
ATOM      6  C   UNL     1      34.522 -16.445 -22.871  0.00  0.00    +0.114 C 
ATOM      7  C   UNL     1      33.999 -15.223 -22.468  0.00  0.00    -0.005 C 
ATOM      8  C   UNL     1      34.440 -16.853 -24.195  0.00  0.00    -0.001 C 
ATOM      9  C   UNL     1      33.382 -14.396 -23.405  0.00  0.00    +0.009 C 
ATOM     10  C   UNL     1      33.294 -14.796 -24.739  0.00  0.00    +0.134 C 
ATOM     11  C   UNL     1      33.823 -16.025 -25.134  0.00  0.00    +0.034 C 
ATOM     12  C   UNL     1      34.085 -14.782 -21.040  0.00  0.00    +0.032 C 
ATOM     13  C   UNL     1      34.997 -18.161 -24.656  0.00  0.00    +0.033 C 
ATOM     14  C   UNL     1      32.809 -13.077 -22.992  0.00  0.00    +0.034 C 
BRANCH  10  15
ATOM     15  O   UNL     1      32.692 -14.003 -25.669  0.00  0.00    -0.472 OA
ATOM     16  C   UNL     1      33.389 -13.799 -26.896  0.00  0.00    +0.252 C 
ENDBRANCH  10  15
ENDBRANCH   3   6
ENDBRANCH   1   3
BRANCH   1  17
ATOM     17  C   UNL     1      34.586 -20.152 -21.777  0.00  0.00    +0.118 C 
BRANCH  17  18
ATOM     18  C   UNL     1      35.111 -20.768 -20.476  0.00  0.00    +0.108 C 
BRANCH  18  19
ATOM     19  O   UNL     1      36.002 -19.848 -19.846  0.00  0.00    -0.385 OA
ATOM     20  H   UNL     1      36.639 -19.516 -20.499  0.00  0.00    +0.210 HD
ENDBRANCH  18  19
BRANCH  18  21
ATOM     21  C   UNL     1      33.979 -21.147 -19.492  0.00  0.00    -0.032 C 
BRANCH  21  22
ATOM     22  N   UNL     1      32.671 -20.817 -20.073  0.00  0.00    +0.384 N 
ATOM     23  H   UNL     1      31.931 -21.121 -19.439  0.00  0.00    -0.089 HD
ATOM     24  H   UNL     1      32.568 -21.292 -20.969  0.00  0.00    -0.089 HD
ATOM     25  H   UNL     1      32.606 -19.809 -20.213  0.00  0.00    -0.089 HD
ENDBRANCH  21  22
BRANCH  21  26
ATOM     26  C   UNL     1      33.980 -22.642 -19.102  0.00  0.00    +0.007 C 
BRANCH  26  27
ATOM     27  C   UNL     1      33.653 -22.891 -17.650  0.00  0.00    -0.024 C 
ATOM     28  C   UNL     1      32.327 -23.007 -17.263  0.00  0.00    -0.004 C 
ATOM     29  C   UNL     1      34.684 -22.997 -16.730  0.00  0.00    -0.004 C 
ATOM     30  C   UNL     1      32.024 -23.237 -15.921  0.00  0.00    -0.000 C 
ATOM     31  C   UNL     1      34.381 -23.226 -15.388  0.00  0.00    -0.000 C 
ATOM     32  C   UNL     1      33.052 -23.346 -14.983  0.00  0.00    -0.000 C 
ENDBRANCH  26  27
ENDBRANCH  21  26
ENDBRANCH  18  21
ENDBRANCH  17  18
ENDBRANCH   1  17
TORSDOF 10
ENDMDL
MODEL 6
REMARK VINA RESULT:      -9.6      6.290     11.919
REMARK  Name = 9543487
REMARK  10 active torsions:
REMARK  status: ('A' for Active; 'I' for Inactive)
REMARK    1  A    between atoms: N_1  and  S_3
REMARK    2  A    between atoms: N_1  and  C_17
REMARK    3  A    between atoms: S_3  and  C_6
REMARK    4  A    between atoms: C_10  and  O_15
REMARK    5  A    between atoms: C_17  and  C_18
REMARK    6  A    between atoms: C_18  and  O_19
REMARK    7  A    between atoms: C_18  and  C_21
REMARK    8  A    between atoms: C_21  and  N_22
REMARK    9  A    between atoms: C_21  and  C_26
REMARK   10  A    between atoms: C_26  and  C_27
REMARK                            x       y       z     vdW  Elec       q    Type
REMARK                         _______ _______ _______ _____ _____    ______ ____
ROOT
ATOM      1  N   UNL     1      35.262 -22.058 -18.504  0.00  0.00    -0.177 NA
ATOM      2  H   UNL     1      35.987 -22.632 -18.075  0.00  0.00    +0.149 HD
ENDROOT
BRANCH   1   3
ATOM      3  S   UNL     1      33.785 -22.852 -18.241  0.00  0.00    +0.060 S 
ATOM      4  O   UNL     1      33.785 -24.119 -18.947  0.00  0.00    -0.153 OA
ATOM      5  O   UNL     1      32.704 -21.907 -18.441  0.00  0.00    -0.153 OA
BRANCH   3   6
ATOM      6  C   UNL     1      33.858 -23.193 -16.508  0.00  0.00    +0.114 C 
ATOM      7  C   UNL     1      32.692 -23.498 -15.818  0.00  0.00    -0.005 C 
ATOM      8  C   UNL     1      35.083 -23.155 -15.857  0.00  0.00    -0.001 C 
ATOM      9  C   UNL     1      32.753 -23.768 -14.451  0.00  0.00    +0.009 C 
ATOM     10  C   UNL     1      33.979 -23.731 -13.786  0.00  0.00    +0.134 C 
ATOM     11  C   UNL     1      35.144 -23.425 -14.489  0.00  0.00    +0.034 C 
ATOM     12  C   UNL     1      31.370 -23.539 -16.518  0.00  0.00    +0.032 C 
ATOM     13  C   UNL     1      36.352 -22.831 -16.577  0.00  0.00    +0.033 C 
ATOM     14  C   UNL     1      31.509 -24.095 -13.687  0.00  0.00    +0.034 C 
BRANCH  10  15
ATOM     15  O   UNL     1      34.058 -23.989 -12.451  0.00  0.00    -0.472 OA
ATOM     16  C   UNL     1      35.362 -24.146 -11.897  0.00  0.00    +0.252 C 
ENDBRANCH  10  15
ENDBRANCH   3   6
ENDBRANCH   1   3
BRANCH   1  17
ATOM     17  C   UNL     1      35.707 -21.768 -19.888  0.00  0.00    +0.118 C 
BRANCH  17  18
ATOM     18  C   UNL     1      35.825 -20.252 -20.078  0.00  0.00    +0.108 C 
BRANCH  18  19
ATOM     19  O   UNL     1      37.125 -19.941 -20.579  0.00  0.00    -0.385 OA
ATOM     20  H   UNL     1      37.775 -20.548 -20.192  0.00  0.00    +0.210 HD
ENDBRANCH  18  19
BRANCH  18  21
ATOM     21  C   UNL     1      34.751 -19.682 -21.035  0.00  0.00    -0.032 C 
BRANCH  21  22
ATOM     22  N   UNL     1      33.408 -20.027 -20.552  0.00  0.00    +0.384 N 
ATOM     23  H   UNL     1      32.867 -19.174 -20.413  0.00  0.00    -0.089 HD
ATOM     24  H   UNL     1      33.483 -20.530 -19.669  0.00  0.00    -0.089 HD
ATOM     25  H   UNL     1      32.941 -20.617 -21.241  0.00  0.00    -0.089 HD
ENDBRANCH  21  22
BRANCH  21  26
ATOM     26  C   UNL     1      34.834 -18.148 -21.204  0.00  0.00    +0.007 C 
BRANCH  26  27
ATOM     27  C   UNL     1      34.727 -17.691 -22.638  0.00  0.00    -0.024 C 
ATOM     28  C   UNL     1      34.718 -18.633 -23.654  0.00  0.00    -0.004 C 
ATOM     29  C   UNL     1      34.643 -16.335 -22.913  0.00  0.00    -0.004 C 
ATOM     30  C   UNL     1      34.620 -18.210 -24.979  0.00  0.00    -0.000 C 
ATOM     31  C   UNL     1      34.545 -15.911 -24.239  0.00  0.00    -0.000 C 
ATOM     32  C   UNL     1      34.534 -16.848 -25.272  0.00  0.00    -0.000 C 
ENDBRANCH  26  27
ENDBRANCH  21  26
ENDBRANCH  18  21
ENDBRANCH  17  18
ENDBRANCH   1  17
TORSDOF 10
ENDMDL
MODEL 7
REMARK VINA RESULT:      -9.6      2.126      9.419
REMARK  Name = 9543487
REMARK  10 active torsions:
REMARK  status: ('A' for Active; 'I' for Inactive)
REMARK    1  A    between atoms: N_1  and  S_3
REMARK    2  A    between atoms: N_1  and  C_17
REMARK    3  A    between atoms: S_3  and  C_6
REMARK    4  A    between atoms: C_10  and  O_15
REMARK    5  A    between atoms: C_17  and  C_18
REMARK    6  A    between atoms: C_18  and  O_19
REMARK    7  A    between atoms: C_18  and  C_21
REMARK    8  A    between atoms: C_21  and  N_22
REMARK    9  A    between atoms: C_21  and  C_26
REMARK   10  A    between atoms: C_26  and  C_27
REMARK                            x       y       z     vdW  Elec       q    Type
REMARK                         _______ _______ _______ _____ _____    ______ ____
ROOT
ATOM      1  N   UNL     1      34.180 -12.672 -23.883  0.00  0.00    -0.177 NA
ATOM      2  H   UNL     1      34.999 -13.206 -24.172  0.00  0.00    +0.149 HD
ENDROOT
BRANCH   1   3
ATOM      3  S   UNL     1      32.892 -13.771 -23.763  0.00  0.00    +0.060 S 
ATOM      4  O   UNL     1      32.503 -14.206 -25.091  0.00  0.00    -0.153 OA
ATOM      5  O   UNL     1      31.901 -13.231 -22.853  0.00  0.00    -0.153 OA
BRANCH   3   6
ATOM      6  C   UNL     1      33.655 -15.138 -22.942  0.00  0.00    +0.114 C 
ATOM      7  C   UNL     1      34.256 -16.141 -23.691  0.00  0.00    -0.005 C 
ATOM      8  C   UNL     1      33.646 -15.191 -21.555  0.00  0.00    -0.001 C 
ATOM      9  C   UNL     1      34.858 -17.218 -23.041  0.00  0.00    +0.009 C 
ATOM     10  C   UNL     1      34.855 -17.282 -21.647  0.00  0.00    +0.134 C 
ATOM     11  C   UNL     1      34.249 -16.268 -20.904  0.00  0.00    +0.034 C 
ATOM     12  C   UNL     1      34.266 -16.086 -25.187  0.00  0.00    +0.032 C 
ATOM     13  C   UNL     1      33.008 -14.124 -20.726  0.00  0.00    +0.033 C 
ATOM     14  C   UNL     1      35.509 -18.311 -23.828  0.00  0.00    +0.034 C 
BRANCH  10  15
ATOM     15  O   UNL     1      35.435 -18.327 -20.994  0.00  0.00    -0.472 OA
ATOM     16  C   UNL     1      34.610 -19.454 -20.710  0.00  0.00    +0.252 C 
ENDBRANCH  10  15
ENDBRANCH   3   6
ENDBRANCH   1   3
BRANCH   1  17
ATOM     17  C   UNL     1      34.077 -11.513 -24.803  0.00  0.00    +0.118 C 
BRANCH  17  18
ATOM     18  C   UNL     1      34.480 -10.235 -24.059  0.00  0.00    +0.108 C 
BRANCH  18  19
ATOM     19  O   UNL     1      35.363  -9.471 -24.880  0.00  0.00    -0.385 OA
ATOM     20  H   UNL     1      34.918  -9.248 -25.713  0.00  0.00    +0.210 HD
ENDBRANCH  18  19
BRANCH  18  21
ATOM     21  C   UNL     1      33.264  -9.367 -23.658  0.00  0.00    -0.032 C 
BRANCH  21  22
ATOM     22  N   UNL     1      32.336 -10.146 -22.829  0.00  0.00    +0.384 N 
ATOM     23  H   UNL     1      31.979 -10.935 -23.367  0.00  0.00    -0.089 HD
ATOM     24  H   UNL     1      31.559  -9.553 -22.539  0.00  0.00    -0.089 HD
ATOM     25  H   UNL     1      32.826 -10.491 -22.003  0.00  0.00    -0.089 HD
ENDBRANCH  21  22
BRANCH  21  26
ATOM     26  C   UNL     1      33.653  -8.085 -22.888  0.00  0.00    +0.007 C 
BRANCH  26  27
ATOM     27  C   UNL     1      32.850  -6.871 -23.287  0.00  0.00    -0.024 C 
ATOM     28  C   UNL     1      31.945  -6.329 -22.387  0.00  0.00    -0.004 C 
ATOM     29  C   UNL     1      33.031  -6.321 -24.546  0.00  0.00    -0.004 C 
ATOM     30  C   UNL     1      31.203  -5.207 -22.756  0.00  0.00    -0.000 C 
ATOM     31  C   UNL     1      32.289  -5.199 -24.915  0.00  0.00    -0.000 C 
ATOM     32  C   UNL     1      31.374  -4.642 -24.020  0.00  0.00    -0.000 C 
ENDBRANCH  26  27
ENDBRANCH  21  26
ENDBRANCH  18  21
ENDBRANCH  17  18
ENDBRANCH   1  17
TORSDOF 10
ENDMDL
MODEL 8
REMARK VINA RESULT:      -9.6      5.040     11.422
REMARK  Name = 9543487
REMARK  10 active torsions:
REMARK  status: ('A' for Active; 'I' for Inactive)
REMARK    1  A    between atoms: N_1  and  S_3
REMARK    2  A    between atoms: N_1  and  C_17
REMARK    3  A    between atoms: S_3  and  C_6
REMARK    4  A    between atoms: C_10  and  O_15
REMARK    5  A    between atoms: C_17  and  C_18
REMARK    6  A    between atoms: C_18  and  O_19
REMARK    7  A    between atoms: C_18  and  C_21
REMARK    8  A    between atoms: C_21  and  N_22
REMARK    9  A    between atoms: C_21  and  C_26
REMARK   10  A    between atoms: C_26  and  C_27
REMARK                            x       y       z     vdW  Elec       q    Type
REMARK                         _______ _______ _______ _____ _____    ______ ____
ROOT
ATOM      1  N   UNL     1      34.714 -21.077 -19.531  0.00  0.00    -0.177 NA
ATOM      2  H   UNL     1      35.680 -21.175 -19.219  0.00  0.00    +0.149 HD
ENDROOT
BRANCH   1   3
ATOM      3  S   UNL     1      33.863 -22.413 -18.923  0.00  0.00    +0.060 S 
ATOM      4  O   UNL     1      34.151 -23.580 -19.735  0.00  0.00    -0.153 OA
ATOM      5  O   UNL     1      32.490 -22.019 -18.674  0.00  0.00    -0.153 OA
BRANCH   3   6
ATOM      6  C   UNL     1      34.626 -22.645 -17.345  0.00  0.00    +0.114 C 
ATOM      7  C   UNL     1      33.892 -23.186 -16.298  0.00  0.00    -0.005 C 
ATOM      8  C   UNL     1      35.955 -22.284 -17.172  0.00  0.00    -0.001 C 
ATOM      9  C   UNL     1      34.497 -23.369 -15.056  0.00  0.00    +0.009 C 
ATOM     10  C   UNL     1      35.832 -23.009 -14.870  0.00  0.00    +0.134 C 
ATOM     11  C   UNL     1      36.561 -22.466 -15.928  0.00  0.00    +0.034 C 
ATOM     12  C   UNL     1      32.458 -23.575 -16.484  0.00  0.00    +0.032 C 
ATOM     13  C   UNL     1      36.769 -21.701 -18.282  0.00  0.00    +0.033 C 
ATOM     14  C   UNL     1      33.723 -23.947 -13.913  0.00  0.00    +0.034 C 
BRANCH  10  15
ATOM     15  O   UNL     1      36.440 -23.177 -13.662  0.00  0.00    -0.472 OA
ATOM     16  C   UNL     1      37.483 -24.146 -13.590  0.00  0.00    +0.252 C 
ENDBRANCH  10  15
ENDBRANCH   3   6
ENDBRANCH   1   3
BRANCH   1  17
ATOM     17  C   UNL     1      34.758 -20.833 -20.993  0.00  0.00    +0.118 C 
BRANCH  17  18
ATOM     18  C   UNL     1      34.004 -19.538 -21.315  0.00  0.00    +0.108 C 
BRANCH  18  19
ATOM     19  O   UNL     1      32.818 -19.475 -20.522  0.00  0.00    -0.385 OA
ATOM     20  H   UNL     1      32.565 -20.370 -20.247  0.00  0.00    +0.210 HD
ENDBRANCH  18  19
BRANCH  18  21
ATOM     21  C   UNL     1      34.857 -18.271 -21.072  0.00  0.00    -0.032 C 
BRANCH  21  22
ATOM     22  N   UNL     1      36.242 -18.645 -20.761  0.00  0.00    +0.384 N 
ATOM     23  H   UNL     1      36.599 -19.265 -21.488  0.00  0.00    -0.089 HD
ATOM     24  H   UNL     1      36.272 -19.123 -19.861  0.00  0.00    -0.089 HD
ATOM     25  H   UNL     1      36.820 -17.805 -20.718  0.00  0.00    -0.089 HD
ENDBRANCH  21  22
BRANCH  21  26
ATOM     26  C   UNL     1      34.868 -17.300 -22.274  0.00  0.00    +0.007 C 
BRANCH  26  27
ATOM     27  C   UNL     1      34.024 -16.067 -22.065  0.00  0.00    -0.024 C 
ATOM     28  C   UNL     1      33.551 -15.773 -20.796  0.00  0.00    -0.004 C 
ATOM     29  C   UNL     1      33.734 -15.251 -23.148  0.00  0.00    -0.004 C 
ATOM     30  C   UNL     1      32.770 -14.634 -20.603  0.00  0.00    -0.000 C 
ATOM     31  C   UNL     1      32.953 -14.112 -22.955  0.00  0.00    -0.000 C 
ATOM     32  C   UNL     1      32.471 -13.803 -21.684  0.00  0.00    -0.000 C 
ENDBRANCH  26  27
ENDBRANCH  21  26
ENDBRANCH  18  21
ENDBRANCH  17  18
ENDBRANCH   1  17
TORSDOF 10
ENDMDL
MODEL 9
REMARK VINA RESULT:      -9.5      3.064      9.684
REMARK  Name = 9543487
REMARK  10 active torsions:
REMARK  status: ('A' for Active; 'I' for Inactive)
REMARK    1  A    between atoms: N_1  and  S_3
REMARK    2  A    between atoms: N_1  and  C_17
REMARK    3  A    between atoms: S_3  and  C_6
REMARK    4  A    between atoms: C_10  and  O_15
REMARK    5  A    between atoms: C_17  and  C_18
REMARK    6  A    between atoms: C_18  and  O_19
REMARK    7  A    between atoms: C_18  and  C_21
REMARK    8  A    between atoms: C_21  and  N_22
REMARK    9  A    between atoms: C_21  and  C_26
REMARK   10  A    between atoms: C_26  and  C_27
REMARK                            x       y       z     vdW  Elec       q    Type
REMARK                         _______ _______ _______ _____ _____    ______ ____
ROOT
ATOM      1  N   UNL     1      34.544 -17.245 -21.231  0.00  0.00    -0.177 NA
ATOM      2  H   UNL     1      35.424 -16.802 -20.968  0.00  0.00    +0.149 HD
ENDROOT
BRANCH   1   3
ATOM      3  S   UNL     1      34.940 -18.638 -22.116  0.00  0.00    +0.060 S 
ATOM      4  O   UNL     1      36.205 -18.436 -22.795  0.00  0.00    -0.153 OA
ATOM      5  O   UNL     1      33.772 -19.065 -22.862  0.00  0.00    -0.153 OA
BRANCH   3   6
ATOM      6  C   UNL     1      35.194 -19.826 -20.832  0.00  0.00    +0.114 C 
ATOM      7  C   UNL     1      34.106 -20.503 -20.296  0.00  0.00    -0.005 C 
ATOM      8  C   UNL     1      36.482 -20.071 -20.375  0.00  0.00    -0.001 C 
ATOM      9  C   UNL     1      34.310 -21.441 -19.284  0.00  0.00    +0.009 C 
ATOM     10  C   UNL     1      35.600 -21.694 -18.817  0.00  0.00    +0.134 C 
ATOM     11  C   UNL     1      36.686 -21.010 -19.362  0.00  0.00    +0.034 C 
ATOM     12  C   UNL     1      32.717 -20.239 -20.787  0.00  0.00    +0.032 C 
ATOM     13  C   UNL     1      37.670 -19.358 -20.936  0.00  0.00    +0.033 C 
ATOM     14  C   UNL     1      33.152 -22.179 -18.690  0.00  0.00    +0.034 C 
BRANCH  10  15
ATOM     15  O   UNL     1      35.819 -22.604 -17.827  0.00  0.00    -0.472 OA
ATOM     16  C   UNL     1      36.760 -22.250 -16.816  0.00  0.00    +0.252 C 
ENDBRANCH  10  15
ENDBRANCH   3   6
ENDBRANCH   1   3
BRANCH   1  17
ATOM     17  C   UNL     1      33.701 -16.193 -21.848  0.00  0.00    +0.118 C 
BRANCH  17  18
ATOM     18  C   UNL     1      34.601 -15.101 -22.436  0.00  0.00    +0.108 C 
BRANCH  18  19
ATOM     19  O   UNL     1      35.362 -15.648 -23.512  0.00  0.00    -0.385 OA
ATOM     20  H   UNL     1      34.905 -15.479 -24.351  0.00  0.00    +0.210 HD
ENDBRANCH  18  19
BRANCH  18  21
ATOM     21  C   UNL     1      33.803 -13.873 -22.938  0.00  0.00    -0.032 C 
BRANCH  21  22
ATOM     22  N   UNL     1      33.726 -13.884 -24.404  0.00  0.00    +0.384 N 
ATOM     23  H   UNL     1      33.524 -14.831 -24.727  0.00  0.00    -0.089 HD
ATOM     24  H   UNL     1      34.615 -13.574 -24.794  0.00  0.00    -0.089 HD
ATOM     25  H   UNL     1      32.983 -13.256 -24.709  0.00  0.00    -0.089 HD
ENDBRANCH  21  22
BRANCH  21  26
ATOM     26  C   UNL     1      32.368 -13.802 -22.370  0.00  0.00    +0.007 C 
BRANCH  26  27
ATOM     27  C   UNL     1      32.061 -12.507 -21.659  0.00  0.00    -0.024 C 
ATOM     28  C   UNL     1      31.970 -11.333 -22.391  0.00  0.00    -0.004 C 
ATOM     29  C   UNL     1      31.879 -12.514 -20.284  0.00  0.00    -0.004 C 
ATOM     30  C   UNL     1      31.687 -10.137 -21.733  0.00  0.00    -0.000 C 
ATOM     31  C   UNL     1      31.596 -11.317 -19.627  0.00  0.00    -0.000 C 
ATOM     32  C   UNL     1      31.500 -10.128 -20.350  0.00  0.00    -0.000 C 
ENDBRANCH  26  27
ENDBRANCH  21  26
ENDBRANCH  18  21
ENDBRANCH  17  18
ENDBRANCH   1  17
TORSDOF 10
ENDMDL
