MODEL 1
REMARK VINA RESULT:     -11.1      0.000      0.000
REMARK  Name = 9562794
REMARK  7 active torsions:
REMARK  status: ('A' for Active; 'I' for Inactive)
REMARK    1  A    between atoms: N_1  and  C_2
REMARK    2  A    between atoms: N_1  and  N_16
REMARK    3  A    between atoms: C_2  and  C_5
REMARK    4  A    between atoms: C_6  and  O_13
REMARK    5  A    between atoms: C_17  and  C_19
REMARK    6  A    between atoms: C_22  and  O_25
REMARK    7  A    between atoms: C_23  and  O_27
REMARK                            x       y       z     vdW  Elec       q    Type
REMARK                         _______ _______ _______ _____ _____    ______ ____
ROOT
ATOM      1  N   UNL     1      37.118 -21.419 -17.135  0.00  0.00    -0.126 NA
ENDROOT
BRANCH   1   3
ATOM      2  O   UNL     1      38.565 -23.241 -15.697  0.00  0.00    -0.269 OA
ATOM      3  N   UNL     1      36.642 -21.988 -16.003  0.00  0.00    -0.228 N 
ATOM      4  C   UNL     1      37.441 -22.901 -15.339  0.00  0.00    +0.260 C 
ATOM      5  H   UNL     1      35.749 -21.758 -15.661  0.00  0.00    +0.171 HD
BRANCH   4   6
ATOM      6  C   UNL     1      36.851 -23.504 -14.115  0.00  0.00    +0.058 C 
ATOM      7  C   UNL     1      35.503 -23.795 -14.101  0.00  0.00    +0.044 C 
ATOM      8  C   UNL     1      37.671 -23.754 -13.035  0.00  0.00    +0.008 C 
ATOM      9  C   UNL     1      34.948 -24.360 -12.951  0.00  0.00    +0.168 C 
ATOM     10  C   UNL     1      35.755 -24.623 -11.845  0.00  0.00    +0.167 C 
ATOM     11  C   UNL     1      37.116 -24.319 -11.885  0.00  0.00    +0.040 C 
BRANCH   9  12
ATOM     12  O   UNL     1      33.618 -24.652 -12.923  0.00  0.00    -0.503 OA
ATOM     13  H   UNL     1      33.033 -24.122 -12.419  0.00  0.00    +0.292 HD
ENDBRANCH   9  12
BRANCH  10  14
ATOM     14  O   UNL     1      35.226 -25.174 -10.717  0.00  0.00    -0.503 OA
ATOM     15  H   UNL     1      35.549 -25.996 -10.402  0.00  0.00    +0.292 HD
ENDBRANCH  10  14
ENDBRANCH   4   6
ENDBRANCH   1   3
BRANCH   1  16
ATOM     16  C   UNL     1      36.713 -21.985 -18.232  0.00  0.00    +0.141 C 
BRANCH  16  19
ATOM     17  C   UNL     1      35.504 -20.579 -19.912  0.00  0.00    +0.000 C 
ATOM     18  C   UNL     1      34.292 -20.220 -20.548  0.00  0.00    -0.000 C 
ATOM     19  C   UNL     1      35.490 -21.574 -18.921  0.00  0.00    +0.031 C 
ATOM     20  C   UNL     1      34.298 -22.204 -18.561  0.00  0.00    +0.136 C 
ATOM     21  C   UNL     1      33.102 -20.864 -20.173  0.00  0.00    +0.003 C 
ATOM     22  C   UNL     1      36.694 -19.935 -20.287  0.00  0.00    -0.000 C 
ATOM     23  C   UNL     1      33.106 -21.849 -19.186  0.00  0.00    +0.037 C 
ATOM     24  C   UNL     1      34.305 -19.225 -21.538  0.00  0.00    -0.000 C 
ATOM     25  C   UNL     1      36.690 -18.949 -21.274  0.00  0.00    -0.000 C 
ATOM     26  C   UNL     1      35.497 -18.593 -21.899  0.00  0.00    -0.000 C 
BRANCH  20  27
ATOM     27  O   UNL     1      34.275 -23.171 -17.600  0.00  0.00    -0.472 OA
ATOM     28  C   UNL     1      33.079 -23.295 -16.834  0.00  0.00    +0.252 C 
ENDBRANCH  20  27
ENDBRANCH  16  19
ENDBRANCH   1  16
TORSDOF 7
ENDMDL
MODEL 2
REMARK VINA RESULT:     -10.7      4.088      9.079
REMARK  Name = 9562794
REMARK  7 active torsions:
REMARK  status: ('A' for Active; 'I' for Inactive)
REMARK    1  A    between atoms: N_1  and  C_2
REMARK    2  A    between atoms: N_1  and  N_16
REMARK    3  A    between atoms: C_2  and  C_5
REMARK    4  A    between atoms: C_6  and  O_13
REMARK    5  A    between atoms: C_17  and  C_19
REMARK    6  A    between atoms: C_22  and  O_25
REMARK    7  A    between atoms: C_23  and  O_27
REMARK                            x       y       z     vdW  Elec       q    Type
REMARK                         _______ _______ _______ _____ _____    ______ ____
ROOT
ATOM      1  N   UNL     1      36.489 -19.521 -20.032  0.00  0.00    -0.126 NA
ENDROOT
BRANCH   1   3
ATOM      2  O   UNL     1      35.391 -17.029 -20.286  0.00  0.00    -0.269 OA
ATOM      3  N   UNL     1      36.075 -19.032 -21.224  0.00  0.00    -0.228 N 
ATOM      4  C   UNL     1      35.531 -17.761 -21.261  0.00  0.00    +0.260 C 
ATOM      5  H   UNL     1      36.160 -19.567 -22.045  0.00  0.00    +0.171 HD
BRANCH   4   6
ATOM      6  C   UNL     1      35.078 -17.292 -22.596  0.00  0.00    +0.058 C 
ATOM      7  C   UNL     1      34.677 -15.980 -22.739  0.00  0.00    +0.044 C 
ATOM      8  C   UNL     1      35.073 -18.183 -23.649  0.00  0.00    +0.008 C 
ATOM      9  C   UNL     1      34.249 -15.539 -23.993  0.00  0.00    +0.168 C 
ATOM     10  C   UNL     1      34.234 -16.420 -25.074  0.00  0.00    +0.167 C 
ATOM     11  C   UNL     1      34.645 -17.742 -24.902  0.00  0.00    +0.040 C 
BRANCH   9  12
ATOM     12  O   UNL     1      33.849 -14.246 -24.147  0.00  0.00    -0.503 OA
ATOM     13  H   UNL     1      33.487 -13.778 -23.422  0.00  0.00    +0.292 HD
ENDBRANCH   9  12
BRANCH  10  14
ATOM     14  O   UNL     1      33.819 -16.002 -26.301  0.00  0.00    -0.503 OA
ATOM     15  H   UNL     1      33.641 -15.094 -26.451  0.00  0.00    +0.292 HD
ENDBRANCH  10  14
ENDBRANCH   4   6
ENDBRANCH   1   3
BRANCH   1  16
ATOM     16  C   UNL     1      36.443 -20.816 -19.939  0.00  0.00    +0.141 C 
BRANCH  16  19
ATOM     17  C   UNL     1      35.874 -22.062 -17.844  0.00  0.00    +0.000 C 
ATOM     18  C   UNL     1      34.908 -22.719 -17.046  0.00  0.00    -0.000 C 
ATOM     19  C   UNL     1      35.486 -21.506 -19.074  0.00  0.00    +0.031 C 
ATOM     20  C   UNL     1      34.164 -21.598 -19.511  0.00  0.00    +0.136 C 
ATOM     21  C   UNL     1      33.581 -22.802 -17.502  0.00  0.00    +0.003 C 
ATOM     22  C   UNL     1      37.200 -21.979 -17.389  0.00  0.00    -0.000 C 
ATOM     23  C   UNL     1      33.214 -22.245 -18.727  0.00  0.00    +0.037 C 
ATOM     24  C   UNL     1      35.295 -23.275 -15.817  0.00  0.00    -0.000 C 
ATOM     25  C   UNL     1      37.568 -22.537 -16.164  0.00  0.00    -0.000 C 
ATOM     26  C   UNL     1      36.618 -23.184 -15.379  0.00  0.00    -0.000 C 
BRANCH  20  27
ATOM     27  O   UNL     1      33.778 -21.062 -20.704  0.00  0.00    -0.472 OA
ATOM     28  C   UNL     1      32.778 -20.046 -20.664  0.00  0.00    +0.252 C 
ENDBRANCH  20  27
ENDBRANCH  16  19
ENDBRANCH   1  16
TORSDOF 7
ENDMDL
MODEL 3
REMARK VINA RESULT:     -10.1      9.254     13.362
REMARK  Name = 9562794
REMARK  7 active torsions:
REMARK  status: ('A' for Active; 'I' for Inactive)
REMARK    1  A    between atoms: N_1  and  C_2
REMARK    2  A    between atoms: N_1  and  N_16
REMARK    3  A    between atoms: C_2  and  C_5
REMARK    4  A    between atoms: C_6  and  O_13
REMARK    5  A    between atoms: C_17  and  C_19
REMARK    6  A    between atoms: C_22  and  O_25
REMARK    7  A    between atoms: C_23  and  O_27
REMARK                            x       y       z     vdW  Elec       q    Type
REMARK                         _______ _______ _______ _____ _____    ______ ____
ROOT
ATOM      1  N   UNL     1      32.346 -13.192 -22.710  0.00  0.00    -0.126 NA
ENDROOT
BRANCH   1   3
ATOM      2  O   UNL     1      30.764 -11.720 -21.033  0.00  0.00    -0.269 OA
ATOM      3  N   UNL     1      32.450 -11.846 -22.615  0.00  0.00    -0.228 N 
ATOM      4  C   UNL     1      31.610 -11.180 -21.741  0.00  0.00    +0.260 C 
ATOM      5  H   UNL     1      33.109 -11.352 -23.155  0.00  0.00    +0.171 HD
BRANCH   4   6
ATOM      6  C   UNL     1      31.761  -9.703 -21.700  0.00  0.00    +0.058 C 
ATOM      7  C   UNL     1      32.318  -9.122 -20.579  0.00  0.00    +0.044 C 
ATOM      8  C   UNL     1      31.340  -8.960 -22.782  0.00  0.00    +0.008 C 
ATOM      9  C   UNL     1      32.459  -7.734 -20.539  0.00  0.00    +0.168 C 
ATOM     10  C   UNL     1      32.040  -6.959 -21.620  0.00  0.00    +0.167 C 
ATOM     11  C   UNL     1      31.480  -7.571 -22.742  0.00  0.00    +0.040 C 
BRANCH   9  12
ATOM     12  O   UNL     1      33.007  -7.148 -19.438  0.00  0.00    -0.503 OA
ATOM     13  H   UNL     1      33.206  -6.233 -19.445  0.00  0.00    +0.292 HD
ENDBRANCH   9  12
BRANCH  10  14
ATOM     14  O   UNL     1      32.172  -5.604 -21.593  0.00  0.00    -0.503 OA
ATOM     15  H   UNL     1      31.495  -5.076 -21.217  0.00  0.00    +0.292 HD
ENDBRANCH  10  14
ENDBRANCH   4   6
ENDBRANCH   1   3
BRANCH   1  16
ATOM     16  C   UNL     1      33.475 -13.826 -22.604  0.00  0.00    +0.141 C 
BRANCH  16  19
ATOM     17  C   UNL     1      34.377 -16.140 -22.913  0.00  0.00    +0.000 C 
ATOM     18  C   UNL     1      34.685 -17.219 -23.776  0.00  0.00    -0.000 C 
ATOM     19  C   UNL     1      33.813 -14.971 -23.450  0.00  0.00    +0.031 C 
ATOM     20  C   UNL     1      33.557 -14.867 -24.817  0.00  0.00    +0.136 C 
ATOM     21  C   UNL     1      34.420 -17.096 -25.150  0.00  0.00    +0.003 C 
ATOM     22  C   UNL     1      34.641 -16.262 -21.539  0.00  0.00    -0.000 C 
ATOM     23  C   UNL     1      33.861 -15.928 -25.666  0.00  0.00    +0.037 C 
ATOM     24  C   UNL     1      35.249 -18.387 -23.240  0.00  0.00    -0.000 C 
ATOM     25  C   UNL     1      35.202 -17.431 -21.023  0.00  0.00    -0.000 C 
ATOM     26  C   UNL     1      35.506 -18.492 -21.872  0.00  0.00    -0.000 C 
BRANCH  20  27
ATOM     27  O   UNL     1      33.009 -13.736 -25.347  0.00  0.00    -0.472 OA
ATOM     28  C   UNL     1      33.118 -13.564 -26.758  0.00  0.00    +0.252 C 
ENDBRANCH  20  27
ENDBRANCH  16  19
ENDBRANCH   1  16
TORSDOF 7
ENDMDL
MODEL 4
REMARK VINA RESULT:     -10.0      9.243     12.967
REMARK  Name = 9562794
REMARK  7 active torsions:
REMARK  status: ('A' for Active; 'I' for Inactive)
REMARK    1  A    between atoms: N_1  and  C_2
REMARK    2  A    between atoms: N_1  and  N_16
REMARK    3  A    between atoms: C_2  and  C_5
REMARK    4  A    between atoms: C_6  and  O_13
REMARK    5  A    between atoms: C_17  and  C_19
REMARK    6  A    between atoms: C_22  and  O_25
REMARK    7  A    between atoms: C_23  and  O_27
REMARK                            x       y       z     vdW  Elec       q    Type
REMARK                         _______ _______ _______ _____ _____    ______ ____
ROOT
ATOM      1  N   UNL     1      33.808 -11.111 -24.390  0.00  0.00    -0.126 NA
ENDROOT
BRANCH   1   3
ATOM      2  O   UNL     1      33.162 -13.689 -25.038  0.00  0.00    -0.269 OA
ATOM      3  N   UNL     1      34.178 -12.164 -23.624  0.00  0.00    -0.228 N 
ATOM      4  C   UNL     1      33.809 -13.434 -24.026  0.00  0.00    +0.260 C 
ATOM      5  H   UNL     1      34.698 -12.028 -22.799  0.00  0.00    +0.171 HD
BRANCH   4   6
ATOM      6  C   UNL     1      34.228 -14.542 -23.130  0.00  0.00    +0.058 C 
ATOM      7  C   UNL     1      34.810 -15.663 -23.686  0.00  0.00    +0.044 C 
ATOM      8  C   UNL     1      34.022 -14.415 -21.772  0.00  0.00    +0.008 C 
ATOM      9  C   UNL     1      35.202 -16.706 -22.844  0.00  0.00    +0.168 C 
ATOM     10  C   UNL     1      35.005 -16.602 -21.467  0.00  0.00    +0.167 C 
ATOM     11  C   UNL     1      34.415 -15.458 -20.931  0.00  0.00    +0.040 C 
BRANCH   9  12
ATOM     12  O   UNL     1      35.777 -17.818 -23.380  0.00  0.00    -0.503 OA
ATOM     13  H   UNL     1      36.472 -17.733 -24.002  0.00  0.00    +0.292 HD
ENDBRANCH   9  12
BRANCH  10  14
ATOM     14  O   UNL     1      35.384 -17.612 -20.636  0.00  0.00    -0.503 OA
ATOM     15  H   UNL     1      34.736 -18.098 -20.165  0.00  0.00    +0.292 HD
ENDBRANCH  10  14
ENDBRANCH   4   6
ENDBRANCH   1   3
BRANCH   1  16
ATOM     16  C   UNL     1      32.715 -10.525 -24.004  0.00  0.00    +0.141 C 
BRANCH  16  19
ATOM     17  C   UNL     1      32.209 -10.013 -21.607  0.00  0.00    +0.000 C 
ATOM     18  C   UNL     1      32.196  -9.083 -20.540  0.00  0.00    -0.000 C 
ATOM     19  C   UNL     1      32.679  -9.605 -22.867  0.00  0.00    +0.031 C 
ATOM     20  C   UNL     1      33.128  -8.300 -23.071  0.00  0.00    +0.136 C 
ATOM     21  C   UNL     1      32.652  -7.773 -20.765  0.00  0.00    +0.003 C 
ATOM     22  C   UNL     1      31.754 -11.321 -21.383  0.00  0.00    -0.000 C 
ATOM     23  C   UNL     1      33.114  -7.386 -22.022  0.00  0.00    +0.037 C 
ATOM     24  C   UNL     1      31.726  -9.489 -19.281  0.00  0.00    -0.000 C 
ATOM     25  C   UNL     1      31.291 -11.709 -20.126  0.00  0.00    -0.000 C 
ATOM     26  C   UNL     1      31.276 -10.794 -19.076  0.00  0.00    -0.000 C 
BRANCH  20  27
ATOM     27  O   UNL     1      33.586  -7.896 -24.291  0.00  0.00    -0.472 OA
ATOM     28  C   UNL     1      34.649  -6.947 -24.301  0.00  0.00    +0.252 C 
ENDBRANCH  20  27
ENDBRANCH  16  19
ENDBRANCH   1  16
TORSDOF 7
ENDMDL
MODEL 5
REMARK VINA RESULT:      -9.9      3.465      6.282
REMARK  Name = 9562794
REMARK  7 active torsions:
REMARK  status: ('A' for Active; 'I' for Inactive)
REMARK    1  A    between atoms: N_1  and  C_2
REMARK    2  A    between atoms: N_1  and  N_16
REMARK    3  A    between atoms: C_2  and  C_5
REMARK    4  A    between atoms: C_6  and  O_13
REMARK    5  A    between atoms: C_17  and  C_19
REMARK    6  A    between atoms: C_22  and  O_25
REMARK    7  A    between atoms: C_23  and  O_27
REMARK                            x       y       z     vdW  Elec       q    Type
REMARK                         _______ _______ _______ _____ _____    ______ ____
ROOT
ATOM      1  N   UNL     1      33.699 -23.834 -14.104  0.00  0.00    -0.126 NA
ENDROOT
BRANCH   1   3
ATOM      2  O   UNL     1      31.492 -25.447 -14.167  0.00  0.00    -0.269 OA
ATOM      3  N   UNL     1      32.509 -23.412 -14.592  0.00  0.00    -0.228 N 
ATOM      4  C   UNL     1      31.445 -24.294 -14.586  0.00  0.00    +0.260 C 
ATOM      5  H   UNL     1      32.404 -22.498 -14.943  0.00  0.00    +0.171 HD
BRANCH   4   6
ATOM      6  C   UNL     1      30.173 -23.776 -15.154  0.00  0.00    +0.058 C 
ATOM      7  C   UNL     1      29.503 -24.539 -16.088  0.00  0.00    +0.044 C 
ATOM      8  C   UNL     1      29.706 -22.550 -14.731  0.00  0.00    +0.008 C 
ATOM      9  C   UNL     1      28.309 -24.051 -16.623  0.00  0.00    +0.168 C 
ATOM     10  C   UNL     1      27.814 -22.814 -16.212  0.00  0.00    +0.167 C 
ATOM     11  C   UNL     1      28.512 -22.063 -15.266  0.00  0.00    +0.040 C 
BRANCH   9  12
ATOM     12  O   UNL     1      27.637 -24.794 -17.547  0.00  0.00    -0.503 OA
ATOM     13  H   UNL     1      26.802 -24.507 -17.860  0.00  0.00    +0.292 HD
ENDBRANCH   9  12
BRANCH  10  14
ATOM     14  O   UNL     1      26.651 -22.328 -16.727  0.00  0.00    -0.503 OA
ATOM     15  H   UNL     1      26.396 -22.553 -17.600  0.00  0.00    +0.292 HD
ENDBRANCH  10  14
ENDBRANCH   4   6
ENDBRANCH   1   3
BRANCH   1  16
ATOM     16  C   UNL     1      34.514 -24.298 -15.004  0.00  0.00    +0.141 C 
BRANCH  16  19
ATOM     17  C   UNL     1      35.041 -22.877 -16.995  0.00  0.00    +0.000 C 
ATOM     18  C   UNL     1      35.955 -22.048 -17.688  0.00  0.00    -0.000 C 
ATOM     19  C   UNL     1      35.418 -23.434 -15.762  0.00  0.00    +0.031 C 
ATOM     20  C   UNL     1      36.678 -23.177 -15.221  0.00  0.00    +0.136 C 
ATOM     21  C   UNL     1      37.219 -21.800 -17.128  0.00  0.00    +0.003 C 
ATOM     22  C   UNL     1      33.778 -23.125 -17.555  0.00  0.00    -0.000 C 
ATOM     23  C   UNL     1      37.577 -22.362 -15.903  0.00  0.00    +0.037 C 
ATOM     24  C   UNL     1      35.579 -21.492 -18.921  0.00  0.00    -0.000 C 
ATOM     25  C   UNL     1      33.419 -22.564 -18.781  0.00  0.00    -0.000 C 
ATOM     26  C   UNL     1      34.319 -21.749 -19.464  0.00  0.00    -0.000 C 
BRANCH  20  27
ATOM     27  O   UNL     1      37.053 -23.713 -14.024  0.00  0.00    -0.472 OA
ATOM     28  C   UNL     1      38.047 -24.734 -14.055  0.00  0.00    +0.252 C 
ENDBRANCH  20  27
ENDBRANCH  16  19
ENDBRANCH   1  16
TORSDOF 7
ENDMDL
MODEL 6
REMARK VINA RESULT:      -9.9      3.103      7.903
REMARK  Name = 9562794
REMARK  7 active torsions:
REMARK  status: ('A' for Active; 'I' for Inactive)
REMARK    1  A    between atoms: N_1  and  C_2
REMARK    2  A    between atoms: N_1  and  N_16
REMARK    3  A    between atoms: C_2  and  C_5
REMARK    4  A    between atoms: C_6  and  O_13
REMARK    5  A    between atoms: C_17  and  C_19
REMARK    6  A    between atoms: C_22  and  O_25
REMARK    7  A    between atoms: C_23  and  O_27
REMARK                            x       y       z     vdW  Elec       q    Type
REMARK                         _______ _______ _______ _____ _____    ______ ____
ROOT
ATOM      1  N   UNL     1      32.669 -23.036 -18.217  0.00  0.00    -0.126 NA
ENDROOT
BRANCH   1   3
ATOM      2  O   UNL     1      35.314 -22.521 -18.691  0.00  0.00    -0.269 OA
ATOM      3  N   UNL     1      33.076 -22.024 -19.017  0.00  0.00    -0.228 N 
ATOM      4  C   UNL     1      34.433 -21.834 -19.202  0.00  0.00    +0.260 C 
ATOM      5  H   UNL     1      32.421 -21.436 -19.458  0.00  0.00    +0.171 HD
BRANCH   4   6
ATOM      6  C   UNL     1      34.813 -20.693 -20.075  0.00  0.00    +0.058 C 
ATOM      7  C   UNL     1      36.152 -20.412 -20.257  0.00  0.00    +0.044 C 
ATOM      8  C   UNL     1      33.817 -19.952 -20.673  0.00  0.00    +0.008 C 
ATOM      9  C   UNL     1      36.509 -19.340 -21.076  0.00  0.00    +0.168 C 
ATOM     10  C   UNL     1      35.520 -18.574 -21.693  0.00  0.00    +0.167 C 
ATOM     11  C   UNL     1      34.174 -18.880 -21.492  0.00  0.00    +0.040 C 
BRANCH   9  12
ATOM     12  O   UNL     1      37.827 -19.051 -21.264  0.00  0.00    -0.503 OA
ATOM     13  H   UNL     1      38.349 -19.590 -21.824  0.00  0.00    +0.292 HD
ENDBRANCH   9  12
BRANCH  10  14
ATOM     14  O   UNL     1      35.856 -17.525 -22.494  0.00  0.00    -0.503 OA
ATOM     15  H   UNL     1      36.163 -17.681 -23.365  0.00  0.00    +0.292 HD
ENDBRANCH  10  14
ENDBRANCH   4   6
ENDBRANCH   1   3
BRANCH   1  16
ATOM     16  C   UNL     1      32.023 -22.655 -17.156  0.00  0.00    +0.141 C 
BRANCH  16  19
ATOM     17  C   UNL     1      33.162 -23.570 -15.124  0.00  0.00    +0.000 C 
ATOM     18  C   UNL     1      33.097 -24.339 -13.939  0.00  0.00    -0.000 C 
ATOM     19  C   UNL     1      32.013 -23.438 -15.921  0.00  0.00    +0.031 C 
ATOM     20  C   UNL     1      30.817 -24.057 -15.553  0.00  0.00    +0.136 C 
ATOM     21  C   UNL     1      31.886 -24.955 -13.584  0.00  0.00    +0.003 C 
ATOM     22  C   UNL     1      34.373 -22.954 -15.479  0.00  0.00    -0.000 C 
ATOM     23  C   UNL     1      30.754 -24.814 -14.388  0.00  0.00    +0.037 C 
ATOM     24  C   UNL     1      34.246 -24.472 -13.143  0.00  0.00    -0.000 C 
ATOM     25  C   UNL     1      35.506 -23.096 -14.676  0.00  0.00    -0.000 C 
ATOM     26  C   UNL     1      35.443 -23.854 -13.509  0.00  0.00    -0.000 C 
BRANCH  20  27
ATOM     27  O   UNL     1      29.696 -23.935 -16.320  0.00  0.00    -0.472 OA
ATOM     28  C   UNL     1      28.572 -23.290 -15.726  0.00  0.00    +0.252 C 
ENDBRANCH  20  27
ENDBRANCH  16  19
ENDBRANCH   1  16
TORSDOF 7
ENDMDL
MODEL 7
REMARK VINA RESULT:      -9.8     10.132     14.350
REMARK  Name = 9562794
REMARK  7 active torsions:
REMARK  status: ('A' for Active; 'I' for Inactive)
REMARK    1  A    between atoms: N_1  and  C_2
REMARK    2  A    between atoms: N_1  and  N_16
REMARK    3  A    between atoms: C_2  and  C_5
REMARK    4  A    between atoms: C_6  and  O_13
REMARK    5  A    between atoms: C_17  and  C_19
REMARK    6  A    between atoms: C_22  and  O_25
REMARK    7  A    between atoms: C_23  and  O_27
REMARK                            x       y       z     vdW  Elec       q    Type
REMARK                         _______ _______ _______ _____ _____    ______ ____
ROOT
ATOM      1  N   UNL     1      33.505 -11.957 -23.534  0.00  0.00    -0.126 NA
ENDROOT
BRANCH   1   3
ATOM      2  O   UNL     1      34.590  -9.451 -23.695  0.00  0.00    -0.269 OA
ATOM      3  N   UNL     1      32.784 -10.839 -23.280  0.00  0.00    -0.228 N 
ATOM      4  C   UNL     1      33.413  -9.612 -23.384  0.00  0.00    +0.260 C 
ATOM      5  H   UNL     1      31.835 -10.899 -23.026  0.00  0.00    +0.171 HD
BRANCH   4   6
ATOM      6  C   UNL     1      32.572  -8.427 -23.071  0.00  0.00    +0.058 C 
ATOM      7  C   UNL     1      32.821  -7.723 -21.911  0.00  0.00    +0.044 C 
ATOM      8  C   UNL     1      31.571  -8.071 -23.949  0.00  0.00    +0.008 C 
ATOM      9  C   UNL     1      32.030  -6.611 -21.616  0.00  0.00    +0.168 C 
ATOM     10  C   UNL     1      31.010  -6.230 -22.488  0.00  0.00    +0.167 C 
ATOM     11  C   UNL     1      30.780  -6.959 -23.654  0.00  0.00    +0.040 C 
BRANCH   9  12
ATOM     12  O   UNL     1      32.264  -5.907 -20.474  0.00  0.00    -0.503 OA
ATOM     13  H   UNL     1      32.039  -6.275 -19.642  0.00  0.00    +0.292 HD
ENDBRANCH   9  12
BRANCH  10  14
ATOM     14  O   UNL     1      30.232  -5.147 -22.211  0.00  0.00    -0.503 OA
ATOM     15  H   UNL     1      30.564  -4.459 -21.667  0.00  0.00    +0.292 HD
ENDBRANCH  10  14
ENDBRANCH   4   6
ENDBRANCH   1   3
BRANCH   1  16
ATOM     16  C   UNL     1      32.834 -13.064 -23.427  0.00  0.00    +0.141 C 
BRANCH  16  19
ATOM     17  C   UNL     1      33.965 -15.247 -22.962  0.00  0.00    +0.000 C 
ATOM     18  C   UNL     1      34.469 -16.480 -23.439  0.00  0.00    -0.000 C 
ATOM     19  C   UNL     1      33.371 -14.351 -23.866  0.00  0.00    +0.031 C 
ATOM     20  C   UNL     1      33.275 -14.668 -25.222  0.00  0.00    +0.136 C 
ATOM     21  C   UNL     1      34.364 -16.781 -24.807  0.00  0.00    +0.003 C 
ATOM     22  C   UNL     1      34.069 -14.945 -21.594  0.00  0.00    -0.000 C 
ATOM     23  C   UNL     1      33.771 -15.880 -25.691  0.00  0.00    +0.037 C 
ATOM     24  C   UNL     1      35.063 -17.375 -22.536  0.00  0.00    -0.000 C 
ATOM     25  C   UNL     1      34.663 -15.846 -20.710  0.00  0.00    -0.000 C 
ATOM     26  C   UNL     1      35.160 -17.059 -21.179  0.00  0.00    -0.000 C 
BRANCH  20  27
ATOM     27  O   UNL     1      32.700 -13.805 -26.107  0.00  0.00    -0.472 OA
ATOM     28  C   UNL     1      33.477 -13.428 -27.242  0.00  0.00    +0.252 C 
ENDBRANCH  20  27
ENDBRANCH  16  19
ENDBRANCH   1  16
TORSDOF 7
ENDMDL
MODEL 8
REMARK VINA RESULT:      -9.8      8.810     12.579
REMARK  Name = 9562794
REMARK  7 active torsions:
REMARK  status: ('A' for Active; 'I' for Inactive)
REMARK    1  A    between atoms: N_1  and  C_2
REMARK    2  A    between atoms: N_1  and  N_16
REMARK    3  A    between atoms: C_2  and  C_5
REMARK    4  A    between atoms: C_6  and  O_13
REMARK    5  A    between atoms: C_17  and  C_19
REMARK    6  A    between atoms: C_22  and  O_25
REMARK    7  A    between atoms: C_23  and  O_27
REMARK                            x       y       z     vdW  Elec       q    Type
REMARK                         _______ _______ _______ _____ _____    ______ ____
ROOT
ATOM      1  N   UNL     1      31.637 -11.669 -21.667  0.00  0.00    -0.126 NA
ENDROOT
BRANCH   1   3
ATOM      2  O   UNL     1      32.430 -13.731 -20.053  0.00  0.00    -0.269 OA
ATOM      3  N   UNL     1      32.399 -12.691 -22.122  0.00  0.00    -0.228 N 
ATOM      4  C   UNL     1      32.755 -13.692 -21.237  0.00  0.00    +0.260 C 
ATOM      5  H   UNL     1      32.693 -12.721 -23.061  0.00  0.00    +0.171 HD
BRANCH   4   6
ATOM      6  C   UNL     1      33.609 -14.773 -21.795  0.00  0.00    +0.058 C 
ATOM      7  C   UNL     1      34.114 -15.730 -20.939  0.00  0.00    +0.044 C 
ATOM      8  C   UNL     1      33.870 -14.784 -23.148  0.00  0.00    +0.008 C 
ATOM      9  C   UNL     1      34.918 -16.744 -21.462  0.00  0.00    +0.168 C 
ATOM     10  C   UNL     1      35.197 -16.778 -22.828  0.00  0.00    +0.167 C 
ATOM     11  C   UNL     1      34.674 -15.798 -23.672  0.00  0.00    +0.040 C 
BRANCH   9  12
ATOM     12  O   UNL     1      35.424 -17.695 -20.628  0.00  0.00    -0.503 OA
ATOM     13  H   UNL     1      36.217 -17.532 -20.157  0.00  0.00    +0.292 HD
ENDBRANCH   9  12
BRANCH  10  14
ATOM     14  O   UNL     1      35.980 -17.762 -23.350  0.00  0.00    -0.503 OA
ATOM     15  H   UNL     1      35.593 -18.445 -23.862  0.00  0.00    +0.292 HD
ENDBRANCH  10  14
ENDBRANCH   4   6
ENDBRANCH   1   3
BRANCH   1  16
ATOM     16  C   UNL     1      31.485 -10.695 -22.513  0.00  0.00    +0.141 C 
BRANCH  16  19
ATOM     17  C   UNL     1      33.480 -10.090 -23.897  0.00  0.00    +0.000 C 
ATOM     18  C   UNL     1      34.517  -9.175 -24.198  0.00  0.00    -0.000 C 
ATOM     19  C   UNL     1      32.575  -9.786 -22.866  0.00  0.00    +0.031 C 
ATOM     20  C   UNL     1      32.692  -8.599 -22.143  0.00  0.00    +0.136 C 
ATOM     21  C   UNL     1      34.619  -7.984 -23.459  0.00  0.00    +0.003 C 
ATOM     22  C   UNL     1      33.378 -11.279 -24.635  0.00  0.00    -0.000 C 
ATOM     23  C   UNL     1      33.712  -7.700 -22.439  0.00  0.00    +0.037 C 
ATOM     24  C   UNL     1      35.422  -9.478 -25.228  0.00  0.00    -0.000 C 
ATOM     25  C   UNL     1      34.285 -11.565 -25.656  0.00  0.00    -0.000 C 
ATOM     26  C   UNL     1      35.306 -10.666 -25.952  0.00  0.00    -0.000 C 
BRANCH  20  27
ATOM     27  O   UNL     1      31.818  -8.296 -21.141  0.00  0.00    -0.472 OA
ATOM     28  C   UNL     1      32.311  -7.488 -20.074  0.00  0.00    +0.252 C 
ENDBRANCH  20  27
ENDBRANCH  16  19
ENDBRANCH   1  16
TORSDOF 7
ENDMDL
MODEL 9
REMARK VINA RESULT:      -9.7     10.040     14.045
REMARK  Name = 9562794
REMARK  7 active torsions:
REMARK  status: ('A' for Active; 'I' for Inactive)
REMARK    1  A    between atoms: N_1  and  C_2
REMARK    2  A    between atoms: N_1  and  N_16
REMARK    3  A    between atoms: C_2  and  C_5
REMARK    4  A    between atoms: C_6  and  O_13
REMARK    5  A    between atoms: C_17  and  C_19
REMARK    6  A    between atoms: C_22  and  O_25
REMARK    7  A    between atoms: C_23  and  O_27
REMARK                            x       y       z     vdW  Elec       q    Type
REMARK                         _______ _______ _______ _____ _____    ______ ____
ROOT
ATOM      1  N   UNL     1      33.769 -11.884 -24.183  0.00  0.00    -0.126 NA
ENDROOT
BRANCH   1   3
ATOM      2  O   UNL     1      35.159  -9.531 -24.047  0.00  0.00    -0.269 OA
ATOM      3  N   UNL     1      33.225 -10.751 -23.680  0.00  0.00    -0.228 N 
ATOM      4  C   UNL     1      34.000  -9.606 -23.648  0.00  0.00    +0.260 C 
ATOM      5  H   UNL     1      32.300 -10.742 -23.344  0.00  0.00    +0.171 HD
BRANCH   4   6
ATOM      6  C   UNL     1      33.350  -8.403 -23.065  0.00  0.00    +0.058 C 
ATOM      7  C   UNL     1      33.118  -8.367 -21.705  0.00  0.00    +0.044 C 
ATOM      8  C   UNL     1      33.001  -7.364 -23.900  0.00  0.00    +0.008 C 
ATOM      9  C   UNL     1      32.506  -7.238 -21.157  0.00  0.00    +0.168 C 
ATOM     10  C   UNL     1      32.143  -6.173 -21.981  0.00  0.00    +0.167 C 
ATOM     11  C   UNL     1      32.389  -6.235 -23.353  0.00  0.00    +0.040 C 
BRANCH   9  12
ATOM     12  O   UNL     1      32.270  -7.188 -19.817  0.00  0.00    -0.503 OA
ATOM     13  H   UNL     1      31.422  -6.951 -19.499  0.00  0.00    +0.292 HD
ENDBRANCH   9  12
BRANCH  10  14
ATOM     14  O   UNL     1      31.546  -5.066 -21.458  0.00  0.00    -0.503 OA
ATOM     15  H   UNL     1      31.866  -4.213 -21.679  0.00  0.00    +0.292 HD
ENDBRANCH  10  14
ENDBRANCH   4   6
ENDBRANCH   1   3
BRANCH   1  16
ATOM     16  C   UNL     1      33.047 -12.949 -24.009  0.00  0.00    +0.141 C 
BRANCH  16  19
ATOM     17  C   UNL     1      33.809 -14.889 -22.624  0.00  0.00    +0.000 C 
ATOM     18  C   UNL     1      33.786 -15.585 -21.392  0.00  0.00    -0.000 C 
ATOM     19  C   UNL     1      33.059 -13.708 -22.759  0.00  0.00    +0.031 C 
ATOM     20  C   UNL     1      32.298 -13.223 -21.695  0.00  0.00    +0.136 C 
ATOM     21  C   UNL     1      33.014 -15.081 -20.332  0.00  0.00    +0.003 C 
ATOM     22  C   UNL     1      34.581 -15.392 -23.683  0.00  0.00    -0.000 C 
ATOM     23  C   UNL     1      32.275 -13.908 -20.484  0.00  0.00    +0.037 C 
ATOM     24  C   UNL     1      34.535 -16.765 -21.256  0.00  0.00    -0.000 C 
ATOM     25  C   UNL     1      35.319 -16.566 -23.531  0.00  0.00    -0.000 C 
ATOM     26  C   UNL     1      35.296 -17.252 -22.320  0.00  0.00    -0.000 C 
BRANCH  20  27
ATOM     27  O   UNL     1      31.567 -12.078 -21.818  0.00  0.00    -0.472 OA
ATOM     28  C   UNL     1      31.243 -11.385 -20.614  0.00  0.00    +0.252 C 
ENDBRANCH  20  27
ENDBRANCH  16  19
ENDBRANCH   1  16
TORSDOF 7
ENDMDL
