MODEL 1
REMARK VINA RESULT:      -9.8      0.000      0.000
REMARK  Name = 110635
REMARK  1 active torsions:
REMARK  status: ('A' for Active; 'I' for Inactive)
REMARK    1  A    between atoms: C_7  and  C_24
REMARK                            x       y       z     vdW  Elec       q    Type
REMARK                         _______ _______ _______ _____ _____    ______ ____
ROOT
ATOM      1  O   UNL     1      35.296 -23.193 -11.574  0.00  0.00    -0.273 OA
ATOM      2  O   UNL     1      36.462 -26.086 -15.873  0.00  0.00    -0.273 OA
ATOM      3  N   UNL     1      34.976 -24.628 -14.797  0.00  0.00    -0.264 N 
ATOM      4  N   UNL     1      31.956 -23.729 -16.804  0.00  0.00    -0.355 N 
ATOM      5  N   UNL     1      36.583 -24.806 -12.639  0.00  0.00    -0.268 N 
ATOM      6  C   UNL     1      34.338 -24.343 -13.479  0.00  0.00    +0.157 C 
ATOM      7  C   UNL     1      34.337 -24.234 -16.089  0.00  0.00    +0.136 C 
ATOM      8  C   UNL     1      33.279 -23.215 -13.474  0.00  0.00    +0.057 C 
ATOM      9  C   UNL     1      32.945 -23.758 -15.862  0.00  0.00    +0.052 A 
ATOM     10  C   UNL     1      32.427 -23.295 -14.678  0.00  0.00    -0.005 A 
ATOM     11  C   UNL     1      35.450 -24.007 -12.482  0.00  0.00    +0.244 C 
ATOM     12  C   UNL     1      31.068 -22.953 -14.901  0.00  0.00    +0.013 A 
ATOM     13  C   UNL     1      36.032 -25.557 -14.849  0.00  0.00    +0.247 C 
ATOM     14  C   UNL     1      36.528 -25.983 -13.489  0.00  0.00    +0.179 C 
ATOM     15  C   UNL     1      30.796 -23.236 -16.244  0.00  0.00    +0.056 A 
ATOM     16  C   UNL     1      30.035 -22.429 -14.097  0.00  0.00    +0.001 C 
ATOM     17  C   UNL     1      29.540 -23.022 -16.821  0.00  0.00    +0.017 C 
ATOM     18  C   UNL     1      37.816 -24.462 -11.951  0.00  0.00    +0.115 C 
ATOM     19  C   UNL     1      28.773 -22.210 -14.662  0.00  0.00    +0.000 C 
ATOM     20  C   UNL     1      28.531 -22.503 -16.003  0.00  0.00    +0.001 C 
ATOM     21  H   UNL     1      32.056 -24.016 -17.741  0.00  0.00    +0.166 HD
ENDROOT
BRANCH   7  24
ATOM     22  O   UNL     1      35.466 -21.253 -19.858  0.00  0.00    -0.435 OA
ATOM     23  O   UNL     1      37.339 -20.291 -18.687  0.00  0.00    -0.435 OA
ATOM     24  C   UNL     1      35.162 -23.177 -16.753  0.00  0.00    +0.005 C 
ATOM     25  C   UNL     1      34.837 -22.760 -18.044  0.00  0.00    +0.038 C 
ATOM     26  C   UNL     1      36.253 -22.619 -16.068  0.00  0.00    +0.001 C 
ATOM     27  C   UNL     1      35.626 -21.782 -18.614  0.00  0.00    +0.176 C 
ATOM     28  C   UNL     1      37.036 -21.631 -16.669  0.00  0.00    +0.040 C 
ATOM     29  C   UNL     1      36.696 -21.233 -17.946  0.00  0.00    +0.176 C 
ATOM     30  C   UNL     1      36.555 -20.308 -19.896  0.00  0.00    +0.429 C 
ENDBRANCH   7  24
TORSDOF 1
ENDMDL
MODEL 2
REMARK VINA RESULT:      -9.5      2.211      5.241
REMARK  Name = 110635
REMARK  1 active torsions:
REMARK  status: ('A' for Active; 'I' for Inactive)
REMARK    1  A    between atoms: C_7  and  C_24
REMARK                            x       y       z     vdW  Elec       q    Type
REMARK                         _______ _______ _______ _____ _____    ______ ____
ROOT
ATOM      1  O   UNL     1      34.368 -23.423 -20.116  0.00  0.00    -0.273 OA
ATOM      2  O   UNL     1      37.407 -20.983 -16.506  0.00  0.00    -0.273 OA
ATOM      3  N   UNL     1      35.498 -22.263 -16.964  0.00  0.00    -0.264 N 
ATOM      4  N   UNL     1      33.486 -23.183 -13.954  0.00  0.00    -0.355 N 
ATOM      5  N   UNL     1      36.103 -21.977 -19.576  0.00  0.00    -0.268 N 
ATOM      6  C   UNL     1      34.361 -22.399 -17.919  0.00  0.00    +0.157 C 
ATOM      7  C   UNL     1      35.407 -22.737 -15.550  0.00  0.00    +0.136 C 
ATOM      8  C   UNL     1      33.302 -23.467 -17.558  0.00  0.00    +0.057 C 
ATOM      9  C   UNL     1      34.008 -23.120 -15.215  0.00  0.00    +0.052 A 
ATOM     10  C   UNL     1      33.019 -23.450 -16.108  0.00  0.00    -0.005 A 
ATOM     11  C   UNL     1      34.943 -22.701 -19.303  0.00  0.00    +0.244 C 
ATOM     12  C   UNL     1      31.843 -23.742 -15.369  0.00  0.00    +0.013 A 
ATOM     13  C   UNL     1      36.557 -21.397 -17.294  0.00  0.00    +0.247 C 
ATOM     14  C   UNL     1      36.494 -20.879 -18.709  0.00  0.00    +0.179 C 
ATOM     15  C   UNL     1      32.162 -23.566 -14.018  0.00  0.00    +0.056 A 
ATOM     16  C   UNL     1      30.534 -24.140 -15.709  0.00  0.00    +0.001 C 
ATOM     17  C   UNL     1      31.233 -23.766 -12.991  0.00  0.00    +0.017 C 
ATOM     18  C   UNL     1      36.920 -22.321 -20.728  0.00  0.00    +0.115 C 
ATOM     19  C   UNL     1      29.596 -24.344 -14.691  0.00  0.00    +0.000 C 
ATOM     20  C   UNL     1      29.941 -24.159 -13.354  0.00  0.00    +0.001 C 
ATOM     21  H   UNL     1      33.979 -22.985 -13.125  0.00  0.00    +0.166 HD
ENDROOT
BRANCH   7  24
ATOM     22  O   UNL     1      39.849 -24.703 -14.671  0.00  0.00    -0.435 OA
ATOM     23  O   UNL     1      39.000 -26.956 -14.774  0.00  0.00    -0.435 OA
ATOM     24  C   UNL     1      36.340 -23.890 -15.347  0.00  0.00    +0.005 C 
ATOM     25  C   UNL     1      37.690 -23.646 -15.100  0.00  0.00    +0.038 C 
ATOM     26  C   UNL     1      35.842 -25.201 -15.408  0.00  0.00    +0.001 C 
ATOM     27  C   UNL     1      38.511 -24.741 -14.919  0.00  0.00    +0.176 C 
ATOM     28  C   UNL     1      36.695 -26.291 -15.221  0.00  0.00    +0.040 C 
ATOM     29  C   UNL     1      38.027 -26.027 -14.978  0.00  0.00    +0.176 C 
ATOM     30  C   UNL     1      40.151 -26.110 -14.580  0.00  0.00    +0.429 C 
ENDBRANCH   7  24
TORSDOF 1
ENDMDL
