MODEL 1
REMARK VINA RESULT:      -5.6      0.000      0.000
REMARK  Name = 44288441
REMARK  5 active torsions:
REMARK  status: ('A' for Active; 'I' for Inactive)
REMARK    1  A    between atoms: C_1  and  N_2
REMARK    2  A    between atoms: C_1  and  P_6
REMARK    3  A    between atoms: C_1  and  C_11
REMARK    4  A    between atoms: P_6  and  O_9
REMARK    5  A    between atoms: C_11  and  C_12
REMARK                            x       y       z     vdW  Elec       q    Type
REMARK                         _______ _______ _______ _____ _____    ______ ____
ROOT
ATOM      1  C   UNL     1      29.280 -23.941 -15.160  0.00  0.00    +0.044 C 
ENDROOT
BRANCH   1   2
ATOM      2  N   UNL     1      28.814 -25.273 -14.662  0.00  0.00    +0.389 N 
ATOM      3  H   UNL     1      29.491 -25.641 -13.994  0.00  0.00    -0.088 HD
ATOM      4  H   UNL     1      28.728 -25.917 -15.448  0.00  0.00    -0.088 HD
ATOM      5  H   UNL     1      27.908 -25.168 -14.207  0.00  0.00    -0.088 HD
ENDBRANCH   1   2
BRANCH   1   6
ATOM      6  P   UNL     1      28.174 -23.123 -16.408  0.00  0.00    +0.347 P 
ATOM      7  O   UNL     1      29.018 -22.151 -17.201  0.00  0.00    -0.142 OA
ATOM      8  O   UNL     1      26.913 -22.696 -15.693  0.00  0.00    -0.258 OA
BRANCH   6   9
ATOM      9  O   UNL     1      27.854 -24.431 -17.331  0.00  0.00    -0.323 OA
ATOM     10  H   UNL     1      26.960 -24.751 -17.139  0.00  0.00    +0.220 HD
ENDBRANCH   6   9
ENDBRANCH   1   6
BRANCH   1  11
ATOM     11  C   UNL     1      30.706 -24.083 -15.719  0.00  0.00    -0.010 C 
BRANCH  11  12
ATOM     12  C   UNL     1      31.768 -23.119 -15.157  0.00  0.00    -0.001 C 
ATOM     13  C   UNL     1      33.126 -23.417 -15.800  0.00  0.00    -0.000 C 
ATOM     14  C   UNL     1      31.888 -23.206 -13.635  0.00  0.00    -0.000 C 
ENDBRANCH  11  12
ENDBRANCH   1  11
TORSDOF 5
ENDMDL
MODEL 2
REMARK VINA RESULT:      -5.4      7.702      8.350
REMARK  Name = 44288441
REMARK  5 active torsions:
REMARK  status: ('A' for Active; 'I' for Inactive)
REMARK    1  A    between atoms: C_1  and  N_2
REMARK    2  A    between atoms: C_1  and  P_6
REMARK    3  A    between atoms: C_1  and  C_11
REMARK    4  A    between atoms: P_6  and  O_9
REMARK    5  A    between atoms: C_11  and  C_12
REMARK                            x       y       z     vdW  Elec       q    Type
REMARK                         _______ _______ _______ _____ _____    ______ ____
ROOT
ATOM      1  C   UNL     1      37.378 -24.632 -14.358  0.00  0.00    +0.044 C 
ENDROOT
BRANCH   1   2
ATOM      2  N   UNL     1      37.559 -23.794 -15.584  0.00  0.00    +0.389 N 
ATOM      3  H   UNL     1      37.187 -24.291 -16.393  0.00  0.00    -0.088 HD
ATOM      4  H   UNL     1      38.552 -23.609 -15.725  0.00  0.00    -0.088 HD
ATOM      5  H   UNL     1      37.062 -22.911 -15.468  0.00  0.00    -0.088 HD
ENDBRANCH   1   2
BRANCH   1   6
ATOM      6  P   UNL     1      37.355 -26.468 -14.641  0.00  0.00    +0.347 P 
ATOM      7  O   UNL     1      38.789 -26.929 -14.772  0.00  0.00    -0.142 OA
ATOM      8  O   UNL     1      36.318 -26.755 -15.701  0.00  0.00    -0.258 OA
BRANCH   6   9
ATOM      9  O   UNL     1      36.778 -26.922 -13.183  0.00  0.00    -0.323 OA
ATOM     10  H   UNL     1      36.708 -26.146 -12.607  0.00  0.00    +0.220 HD
ENDBRANCH   6   9
ENDBRANCH   1   6
BRANCH   1  11
ATOM     11  C   UNL     1      36.098 -24.187 -13.630  0.00  0.00    -0.010 C 
BRANCH  11  12
ATOM     12  C   UNL     1      36.284 -23.514 -12.256  0.00  0.00    -0.001 C 
ATOM     13  C   UNL     1      37.778 -23.330 -11.972  0.00  0.00    -0.000 C 
ATOM     14  C   UNL     1      35.640 -24.312 -11.122  0.00  0.00    -0.000 C 
ENDBRANCH  11  12
ENDBRANCH   1  11
TORSDOF 5
ENDMDL
MODEL 3
REMARK VINA RESULT:      -5.4      9.549     10.435
REMARK  Name = 44288441
REMARK  5 active torsions:
REMARK  status: ('A' for Active; 'I' for Inactive)
REMARK    1  A    between atoms: C_1  and  N_2
REMARK    2  A    between atoms: C_1  and  P_6
REMARK    3  A    between atoms: C_1  and  C_11
REMARK    4  A    between atoms: P_6  and  O_9
REMARK    5  A    between atoms: C_11  and  C_12
REMARK                            x       y       z     vdW  Elec       q    Type
REMARK                         _______ _______ _______ _____ _____    ______ ____
ROOT
ATOM      1  C   UNL     1      34.606 -17.009 -22.267  0.00  0.00    +0.044 C 
ENDROOT
BRANCH   1   2
ATOM      2  N   UNL     1      35.702 -17.008 -23.285  0.00  0.00    +0.389 N 
ATOM      3  H   UNL     1      35.305 -16.849 -24.211  0.00  0.00    -0.088 HD
ATOM      4  H   UNL     1      36.180 -17.909 -23.270  0.00  0.00    -0.088 HD
ATOM      5  H   UNL     1      36.367 -16.266 -23.066  0.00  0.00    -0.088 HD
ENDBRANCH   1   2
BRANCH   1   6
ATOM      6  P   UNL     1      34.139 -15.342 -21.593  0.00  0.00    +0.347 P 
ATOM      7  O   UNL     1      34.880 -15.151 -20.289  0.00  0.00    -0.142 OA
ATOM      8  O   UNL     1      32.637 -15.213 -21.690  0.00  0.00    -0.258 OA
BRANCH   6   9
ATOM      9  O   UNL     1      34.836 -14.420 -22.745  0.00  0.00    -0.323 OA
ATOM     10  H   UNL     1      35.747 -14.212 -22.486  0.00  0.00    +0.220 HD
ENDBRANCH   6   9
ENDBRANCH   1   6
BRANCH   1  11
ATOM     11  C   UNL     1      34.985 -17.963 -21.121  0.00  0.00    -0.010 C 
BRANCH  11  12
ATOM     12  C   UNL     1      34.609 -19.446 -21.305  0.00  0.00    -0.001 C 
ATOM     13  C   UNL     1      33.181 -19.681 -20.804  0.00  0.00    -0.000 C 
ATOM     14  C   UNL     1      35.570 -20.387 -20.578  0.00  0.00    -0.000 C 
ENDBRANCH  11  12
ENDBRANCH   1  11
TORSDOF 5
ENDMDL
MODEL 4
REMARK VINA RESULT:      -5.4      9.381     10.298
REMARK  Name = 44288441
REMARK  5 active torsions:
REMARK  status: ('A' for Active; 'I' for Inactive)
REMARK    1  A    between atoms: C_1  and  N_2
REMARK    2  A    between atoms: C_1  and  P_6
REMARK    3  A    between atoms: C_1  and  C_11
REMARK    4  A    between atoms: P_6  and  O_9
REMARK    5  A    between atoms: C_11  and  C_12
REMARK                            x       y       z     vdW  Elec       q    Type
REMARK                         _______ _______ _______ _____ _____    ______ ____
ROOT
ATOM      1  C   UNL     1      34.634 -17.088 -22.223  0.00  0.00    +0.044 C 
ENDROOT
BRANCH   1   2
ATOM      2  N   UNL     1      35.673 -17.121 -23.299  0.00  0.00    +0.389 N 
ATOM      3  H   UNL     1      35.229 -16.966 -24.204  0.00  0.00    -0.088 HD
ATOM      4  H   UNL     1      36.134 -18.030 -23.298  0.00  0.00    -0.088 HD
ATOM      5  H   UNL     1      36.362 -16.389 -23.127  0.00  0.00    -0.088 HD
ENDBRANCH   1   2
BRANCH   1   6
ATOM      6  P   UNL     1      34.256 -15.409 -21.526  0.00  0.00    +0.347 P 
ATOM      7  O   UNL     1      34.516 -14.392 -22.614  0.00  0.00    -0.142 OA
ATOM      8  O   UNL     1      34.911 -15.319 -20.168  0.00  0.00    -0.258 OA
BRANCH   6   9
ATOM      9  O   UNL     1      32.645 -15.590 -21.337  0.00  0.00    -0.323 OA
ATOM     10  H   UNL     1      32.196 -14.768 -21.588  0.00  0.00    +0.220 HD
ENDBRANCH   6   9
ENDBRANCH   1   6
BRANCH   1  11
ATOM     11  C   UNL     1      35.045 -18.055 -21.098  0.00  0.00    -0.010 C 
BRANCH  11  12
ATOM     12  C   UNL     1      34.622 -19.527 -21.264  0.00  0.00    -0.001 C 
ATOM     13  C   UNL     1      33.169 -19.699 -20.808  0.00  0.00    -0.000 C 
ATOM     14  C   UNL     1      35.523 -20.485 -20.485  0.00  0.00    -0.000 C 
ENDBRANCH  11  12
ENDBRANCH   1  11
TORSDOF 5
ENDMDL
MODEL 5
REMARK VINA RESULT:      -5.3      7.869      8.664
REMARK  Name = 44288441
REMARK  5 active torsions:
REMARK  status: ('A' for Active; 'I' for Inactive)
REMARK    1  A    between atoms: C_1  and  N_2
REMARK    2  A    between atoms: C_1  and  P_6
REMARK    3  A    between atoms: C_1  and  C_11
REMARK    4  A    between atoms: P_6  and  O_9
REMARK    5  A    between atoms: C_11  and  C_12
REMARK                            x       y       z     vdW  Elec       q    Type
REMARK                         _______ _______ _______ _____ _____    ______ ____
ROOT
ATOM      1  C   UNL     1      37.414 -25.494 -12.263  0.00  0.00    +0.044 C 
ENDROOT
BRANCH   1   2
ATOM      2  N   UNL     1      36.758 -26.481 -13.177  0.00  0.00    +0.389 N 
ATOM      3  H   UNL     1      35.772 -26.567 -12.932  0.00  0.00    -0.088 HD
ATOM      4  H   UNL     1      37.214 -27.388 -13.079  0.00  0.00    -0.088 HD
ATOM      5  H   UNL     1      36.844 -26.160 -14.141  0.00  0.00    -0.088 HD
ENDBRANCH   1   2
BRANCH   1   6
ATOM      6  P   UNL     1      36.327 -24.112 -11.666  0.00  0.00    +0.347 P 
ATOM      7  O   UNL     1      35.461 -23.676 -12.825  0.00  0.00    -0.142 OA
ATOM      8  O   UNL     1      37.198 -23.142 -10.902  0.00  0.00    -0.258 OA
BRANCH   6   9
ATOM      9  O   UNL     1      35.419 -24.966 -10.612  0.00  0.00    -0.323 OA
ATOM     10  H   UNL     1      34.578 -25.206 -11.030  0.00  0.00    +0.220 HD
ENDBRANCH   6   9
ENDBRANCH   1   6
BRANCH   1  11
ATOM     11  C   UNL     1      38.669 -24.929 -12.952  0.00  0.00    -0.010 C 
BRANCH  11  12
ATOM     12  C   UNL     1      38.758 -25.107 -14.480  0.00  0.00    -0.001 C 
ATOM     13  C   UNL     1      40.219 -25.318 -14.889  0.00  0.00    -0.000 C 
ATOM     14  C   UNL     1      38.177 -23.916 -15.241  0.00  0.00    -0.000 C 
ENDBRANCH  11  12
ENDBRANCH   1  11
TORSDOF 5
ENDMDL
MODEL 6
REMARK VINA RESULT:      -5.3      6.853      7.877
REMARK  Name = 44288441
REMARK  5 active torsions:
REMARK  status: ('A' for Active; 'I' for Inactive)
REMARK    1  A    between atoms: C_1  and  N_2
REMARK    2  A    between atoms: C_1  and  P_6
REMARK    3  A    between atoms: C_1  and  C_11
REMARK    4  A    between atoms: P_6  and  O_9
REMARK    5  A    between atoms: C_11  and  C_12
REMARK                            x       y       z     vdW  Elec       q    Type
REMARK                         _______ _______ _______ _____ _____    ______ ____
ROOT
ATOM      1  C   UNL     1      35.055 -21.110 -19.590  0.00  0.00    +0.044 C 
ENDROOT
BRANCH   1   2
ATOM      2  N   UNL     1      36.356 -21.539 -20.193  0.00  0.00    +0.389 N 
ATOM      3  H   UNL     1      36.983 -20.738 -20.252  0.00  0.00    -0.088 HD
ATOM      4  H   UNL     1      36.190 -21.911 -21.128  0.00  0.00    -0.088 HD
ATOM      5  H   UNL     1      36.778 -22.262 -19.610  0.00  0.00    -0.088 HD
ENDBRANCH   1   2
BRANCH   1   6
ATOM      6  P   UNL     1      33.949 -22.485 -19.013  0.00  0.00    +0.347 P 
ATOM      7  O   UNL     1      34.195 -23.679 -19.908  0.00  0.00    -0.142 OA
ATOM      8  O   UNL     1      32.568 -21.906 -18.806  0.00  0.00    -0.258 OA
BRANCH   6   9
ATOM      9  O   UNL     1      34.645 -22.752 -17.561  0.00  0.00    -0.323 OA
ATOM     10  H   UNL     1      34.160 -23.450 -17.094  0.00  0.00    +0.220 HD
ENDBRANCH   6   9
ENDBRANCH   1   6
BRANCH   1  11
ATOM     11  C   UNL     1      34.311 -20.208 -20.591  0.00  0.00    -0.010 C 
BRANCH  11  12
ATOM     12  C   UNL     1      35.183 -19.337 -21.516  0.00  0.00    -0.001 C 
ATOM     13  C   UNL     1      35.185 -17.891 -21.011  0.00  0.00    -0.000 C 
ATOM     14  C   UNL     1      34.710 -19.374 -22.969  0.00  0.00    -0.000 C 
ENDBRANCH  11  12
ENDBRANCH   1  11
TORSDOF 5
ENDMDL
MODEL 7
REMARK VINA RESULT:      -5.3      7.161      7.868
REMARK  Name = 44288441
REMARK  5 active torsions:
REMARK  status: ('A' for Active; 'I' for Inactive)
REMARK    1  A    between atoms: C_1  and  N_2
REMARK    2  A    between atoms: C_1  and  P_6
REMARK    3  A    between atoms: C_1  and  C_11
REMARK    4  A    between atoms: P_6  and  O_9
REMARK    5  A    between atoms: C_11  and  C_12
REMARK                            x       y       z     vdW  Elec       q    Type
REMARK                         _______ _______ _______ _____ _____    ______ ____
ROOT
ATOM      1  C   UNL     1      36.679 -24.861 -14.780  0.00  0.00    +0.044 C 
ENDROOT
BRANCH   1   2
ATOM      2  N   UNL     1      37.435 -23.836 -15.565  0.00  0.00    +0.389 N 
ATOM      3  H   UNL     1      38.306 -23.614 -15.084  0.00  0.00    -0.088 HD
ATOM      4  H   UNL     1      36.870 -22.992 -15.654  0.00  0.00    -0.088 HD
ATOM      5  H   UNL     1      37.643 -24.205 -16.493  0.00  0.00    -0.088 HD
ENDBRANCH   1   2
BRANCH   1   6
ATOM      6  P   UNL     1      37.373 -26.582 -14.834  0.00  0.00    +0.347 P 
ATOM      7  O   UNL     1      38.871 -26.479 -14.668  0.00  0.00    -0.142 OA
ATOM      8  O   UNL     1      36.741 -27.293 -16.009  0.00  0.00    -0.258 OA
BRANCH   6   9
ATOM      9  O   UNL     1      36.717 -27.144 -13.449  0.00  0.00    -0.323 OA
ATOM     10  H   UNL     1      36.191 -27.935 -13.637  0.00  0.00    +0.220 HD
ENDBRANCH   6   9
ENDBRANCH   1   6
BRANCH   1  11
ATOM     11  C   UNL     1      35.210 -24.860 -15.236  0.00  0.00    -0.010 C 
BRANCH  11  12
ATOM     12  C   UNL     1      34.529 -23.484 -15.372  0.00  0.00    -0.001 C 
ATOM     13  C   UNL     1      33.274 -23.442 -14.496  0.00  0.00    -0.000 C 
ATOM     14  C   UNL     1      34.159 -23.156 -16.818  0.00  0.00    -0.000 C 
ENDBRANCH  11  12
ENDBRANCH   1  11
TORSDOF 5
ENDMDL
MODEL 8
REMARK VINA RESULT:      -5.2      6.132      7.235
REMARK  Name = 44288441
REMARK  5 active torsions:
REMARK  status: ('A' for Active; 'I' for Inactive)
REMARK    1  A    between atoms: C_1  and  N_2
REMARK    2  A    between atoms: C_1  and  P_6
REMARK    3  A    between atoms: C_1  and  C_11
REMARK    4  A    between atoms: P_6  and  O_9
REMARK    5  A    between atoms: C_11  and  C_12
REMARK                            x       y       z     vdW  Elec       q    Type
REMARK                         _______ _______ _______ _____ _____    ______ ____
ROOT
ATOM      1  C   UNL     1      35.018 -21.598 -18.803  0.00  0.00    +0.044 C 
ENDROOT
BRANCH   1   2
ATOM      2  N   UNL     1      36.448 -21.724 -18.382  0.00  0.00    +0.389 N 
ATOM      3  H   UNL     1      36.937 -20.850 -18.574  0.00  0.00    -0.088 HD
ATOM      4  H   UNL     1      36.890 -22.482 -18.902  0.00  0.00    -0.088 HD
ATOM      5  H   UNL     1      36.491 -21.927 -17.383  0.00  0.00    -0.088 HD
ENDBRANCH   1   2
BRANCH   1   6
ATOM      6  P   UNL     1      33.941 -23.063 -18.425  0.00  0.00    +0.347 P 
ATOM      7  O   UNL     1      34.299 -23.550 -17.039  0.00  0.00    -0.142 OA
ATOM      8  O   UNL     1      33.969 -23.975 -19.629  0.00  0.00    -0.258 OA
BRANCH   6   9
ATOM      9  O   UNL     1      32.505 -22.290 -18.367  0.00  0.00    -0.323 OA
ATOM     10  H   UNL     1      32.020 -22.448 -19.191  0.00  0.00    +0.220 HD
ENDBRANCH   6   9
ENDBRANCH   1   6
BRANCH   1  11
ATOM     11  C   UNL     1      34.964 -21.267 -20.305  0.00  0.00    -0.010 C 
BRANCH  11  12
ATOM     12  C   UNL     1      34.403 -19.884 -20.687  0.00  0.00    -0.001 C 
ATOM     13  C   UNL     1      32.872 -19.938 -20.709  0.00  0.00    -0.000 C 
ATOM     14  C   UNL     1      34.920 -19.397 -22.041  0.00  0.00    -0.000 C 
ENDBRANCH  11  12
ENDBRANCH   1  11
TORSDOF 5
ENDMDL
MODEL 9
REMARK VINA RESULT:      -5.2      7.786      8.385
REMARK  Name = 44288441
REMARK  5 active torsions:
REMARK  status: ('A' for Active; 'I' for Inactive)
REMARK    1  A    between atoms: C_1  and  N_2
REMARK    2  A    between atoms: C_1  and  P_6
REMARK    3  A    between atoms: C_1  and  C_11
REMARK    4  A    between atoms: P_6  and  O_9
REMARK    5  A    between atoms: C_11  and  C_12
REMARK                            x       y       z     vdW  Elec       q    Type
REMARK                         _______ _______ _______ _____ _____    ______ ____
ROOT
ATOM      1  C   UNL     1      36.770 -25.265 -15.047  0.00  0.00    +0.044 C 
ENDROOT
BRANCH   1   2
ATOM      2  N   UNL     1      36.026 -26.561 -15.134  0.00  0.00    +0.389 N 
ATOM      3  H   UNL     1      36.673 -27.307 -15.388  0.00  0.00    -0.088 HD
ATOM      4  H   UNL     1      35.297 -26.486 -15.844  0.00  0.00    -0.088 HD
ATOM      5  H   UNL     1      35.601 -26.770 -14.231  0.00  0.00    -0.088 HD
ENDBRANCH   1   2
BRANCH   1   6
ATOM      6  P   UNL     1      38.506 -25.383 -14.398  0.00  0.00    +0.347 P 
ATOM      7  O   UNL     1      39.015 -26.774 -14.697  0.00  0.00    -0.142 OA
ATOM      8  O   UNL     1      38.512 -24.807 -13.000  0.00  0.00    -0.258 OA
BRANCH   6   9
ATOM      9  O   UNL     1      39.210 -24.323 -15.420  0.00  0.00    -0.323 OA
ATOM     10  H   UNL     1      39.085 -23.421 -15.088  0.00  0.00    +0.220 HD
ENDBRANCH   6   9
ENDBRANCH   1   6
BRANCH   1  11
ATOM     11  C   UNL     1      35.949 -24.271 -14.206  0.00  0.00    -0.010 C 
BRANCH  11  12
ATOM     12  C   UNL     1      35.361 -23.057 -14.952  0.00  0.00    -0.001 C 
ATOM     13  C   UNL     1      33.933 -23.375 -15.405  0.00  0.00    -0.000 C 
ATOM     14  C   UNL     1      36.205 -22.649 -16.160  0.00  0.00    -0.000 C 
ENDBRANCH  11  12
ENDBRANCH   1  11
TORSDOF 5
ENDMDL
