MODEL 1
REMARK VINA RESULT:     -11.1      0.000      0.000
REMARK  Name = 176407
REMARK  5 active torsions:
REMARK  status: ('A' for Active; 'I' for Inactive)
REMARK    1  A    between atoms: N_1  and  C_20
REMARK    2  A    between atoms: C_11  and  C_16
REMARK    3  A    between atoms: C_20  and  C_21
REMARK    4  A    between atoms: C_21  and  C_22
REMARK    5  A    between atoms: C_27  and  O_28
REMARK                            x       y       z     vdW  Elec       q    Type
REMARK                         _______ _______ _______ _____ _____    ______ ____
ROOT
ATOM      1  N   UNL     1      34.799 -18.075 -24.030  0.00  0.00    -0.258 N 
ATOM      2  N   UNL     1      33.521 -14.400 -24.937  0.00  0.00    -0.059 N 
ATOM      3  N   UNL     1      34.634 -15.834 -23.450  0.00  0.00    -0.245 NA
ATOM      4  N   UNL     1      33.685 -16.605 -25.505  0.00  0.00    -0.294 NA
ATOM      5  N   UNL     1      33.155 -13.121 -25.106  0.00  0.00    -0.090 NA
ATOM      6  N   UNL     1      34.288 -13.434 -23.142  0.00  0.00    -0.267 NA
ATOM      7  N   UNL     1      32.568 -15.113 -26.972  0.00  0.00    -0.318 N 
ATOM      8  C   UNL     1      34.375 -16.797 -24.308  0.00  0.00    +0.213 C 
ATOM      9  C   UNL     1      34.197 -14.591 -23.766  0.00  0.00    +0.251 C 
ATOM     10  C   UNL     1      33.255 -15.421 -25.829  0.00  0.00    +0.282 C 
ATOM     11  C   UNL     1      33.644 -12.576 -23.989  0.00  0.00    +0.153 C 
ATOM     12  H   UNL     1      34.603 -18.792 -24.675  0.00  0.00    +0.160 HD
ATOM     13  H   UNL     1      32.280 -14.185 -27.139  0.00  0.00    +0.146 HD
ATOM     14  H   UNL     1      32.363 -15.817 -27.629  0.00  0.00    +0.146 HD
ENDROOT
BRANCH  11  16
ATOM     15  O   UNL     1      32.521 -10.614 -22.908  0.00  0.00    -0.439 OA
ATOM     16  C   UNL     1      33.499 -11.140 -23.691  0.00  0.00    +0.221 C 
ATOM     17  C   UNL     1      34.326 -10.146 -24.162  0.00  0.00    +0.052 C 
ATOM     18  C   UNL     1      33.824  -8.933 -23.634  0.00  0.00    +0.045 C 
ATOM     19  C   UNL     1      32.726  -9.271 -22.879  0.00  0.00    +0.181 C 
ENDBRANCH  11  16
BRANCH   1  20
ATOM     20  C   UNL     1      35.516 -18.393 -22.837  0.00  0.00    +0.103 C 
BRANCH  20  21
ATOM     21  C   UNL     1      34.600 -18.328 -21.616  0.00  0.00    +0.048 C 
BRANCH  21  22
ATOM     22  C   UNL     1      34.579 -19.611 -20.822  0.00  0.00    -0.020 C 
ATOM     23  C   UNL     1      35.776 -20.233 -20.504  0.00  0.00    -0.001 C 
ATOM     24  C   UNL     1      33.363 -20.144 -20.424  0.00  0.00    -0.001 C 
ATOM     25  C   UNL     1      35.757 -21.419 -19.771  0.00  0.00    +0.036 C 
ATOM     26  C   UNL     1      33.344 -21.330 -19.691  0.00  0.00    +0.036 C 
ATOM     27  C   UNL     1      34.541 -21.968 -19.364  0.00  0.00    +0.134 C 
BRANCH  27  28
ATOM     28  O   UNL     1      34.523 -23.125 -18.648  0.00  0.00    -0.506 OA
ATOM     29  H   UNL     1      33.944 -23.820 -18.893  0.00  0.00    +0.292 HD
ENDBRANCH  27  28
ENDBRANCH  21  22
ENDBRANCH  20  21
ENDBRANCH   1  20
TORSDOF 5
ENDMDL
MODEL 2
REMARK VINA RESULT:     -11.1      1.329      1.580
REMARK  Name = 176407
REMARK  5 active torsions:
REMARK  status: ('A' for Active; 'I' for Inactive)
REMARK    1  A    between atoms: N_1  and  C_20
REMARK    2  A    between atoms: C_11  and  C_16
REMARK    3  A    between atoms: C_20  and  C_21
REMARK    4  A    between atoms: C_21  and  C_22
REMARK    5  A    between atoms: C_27  and  O_28
REMARK                            x       y       z     vdW  Elec       q    Type
REMARK                         _______ _______ _______ _____ _____    ______ ____
ROOT
ATOM      1  N   UNL     1      35.063 -18.285 -23.993  0.00  0.00    -0.258 N 
ATOM      2  N   UNL     1      33.336 -14.693 -24.256  0.00  0.00    -0.059 N 
ATOM      3  N   UNL     1      34.221 -16.408 -22.921  0.00  0.00    -0.245 NA
ATOM      4  N   UNL     1      34.164 -16.541 -25.308  0.00  0.00    -0.294 NA
ATOM      5  N   UNL     1      32.762 -13.483 -24.188  0.00  0.00    -0.090 NA
ATOM      6  N   UNL     1      33.262 -14.310 -22.113  0.00  0.00    -0.267 NA
ATOM      7  N   UNL     1      33.257 -14.779 -26.610  0.00  0.00    -0.318 N 
ATOM      8  C   UNL     1      34.469 -17.046 -24.044  0.00  0.00    +0.213 C 
ATOM      9  C   UNL     1      33.636 -15.190 -23.019  0.00  0.00    +0.251 C 
ATOM     10  C   UNL     1      33.601 -15.375 -25.428  0.00  0.00    +0.282 C 
ATOM     11  C   UNL     1      32.739 -13.295 -22.866  0.00  0.00    +0.153 C 
ATOM     12  H   UNL     1      35.247 -18.760 -24.836  0.00  0.00    +0.160 HD
ATOM     13  H   UNL     1      32.833 -13.889 -26.608  0.00  0.00    +0.146 HD
ATOM     14  H   UNL     1      33.433 -15.238 -27.463  0.00  0.00    +0.146 HD
ENDROOT
BRANCH  11  16
ATOM     15  O   UNL     1      32.252 -10.838 -22.823  0.00  0.00    -0.439 OA
ATOM     16  C   UNL     1      32.187 -12.071 -22.258  0.00  0.00    +0.221 C 
ATOM     17  C   UNL     1      31.538 -12.013 -21.046  0.00  0.00    +0.052 C 
ATOM     18  C   UNL     1      31.182 -10.656 -20.856  0.00  0.00    +0.045 C 
ATOM     19  C   UNL     1      31.639  -9.983 -21.964  0.00  0.00    +0.181 C 
ENDBRANCH  11  16
BRANCH   1  20
ATOM     20  C   UNL     1      35.422 -18.905 -22.758  0.00  0.00    +0.103 C 
BRANCH  20  21
ATOM     21  C   UNL     1      34.178 -19.301 -21.964  0.00  0.00    +0.048 C 
BRANCH  21  22
ATOM     22  C   UNL     1      34.479 -20.237 -20.819  0.00  0.00    -0.020 C 
ATOM     23  C   UNL     1      35.797 -20.453 -20.447  0.00  0.00    -0.001 C 
ATOM     24  C   UNL     1      33.433 -20.863 -20.160  0.00  0.00    -0.001 C 
ATOM     25  C   UNL     1      36.075 -21.318 -19.389  0.00  0.00    +0.036 C 
ATOM     26  C   UNL     1      33.711 -21.728 -19.102  0.00  0.00    +0.036 C 
ATOM     27  C   UNL     1      35.032 -21.955 -18.716  0.00  0.00    +0.134 C 
BRANCH  27  28
ATOM     28  O   UNL     1      35.305 -22.799 -17.683  0.00  0.00    -0.506 OA
ATOM     29  H   UNL     1      36.001 -22.602 -17.089  0.00  0.00    +0.292 HD
ENDBRANCH  27  28
ENDBRANCH  21  22
ENDBRANCH  20  21
ENDBRANCH   1  20
TORSDOF 5
ENDMDL
MODEL 3
REMARK VINA RESULT:     -11.0      5.591     10.860
REMARK  Name = 176407
REMARK  5 active torsions:
REMARK  status: ('A' for Active; 'I' for Inactive)
REMARK    1  A    between atoms: N_1  and  C_20
REMARK    2  A    between atoms: C_11  and  C_16
REMARK    3  A    between atoms: C_20  and  C_21
REMARK    4  A    between atoms: C_21  and  C_22
REMARK    5  A    between atoms: C_27  and  O_28
REMARK                            x       y       z     vdW  Elec       q    Type
REMARK                         _______ _______ _______ _____ _____    ______ ____
ROOT
ATOM      1  N   UNL     1      36.187 -21.062 -19.872  0.00  0.00    -0.258 N 
ATOM      2  N   UNL     1      34.182 -22.897 -16.944  0.00  0.00    -0.059 N 
ATOM      3  N   UNL     1      34.157 -21.782 -19.008  0.00  0.00    -0.245 NA
ATOM      4  N   UNL     1      36.177 -22.187 -17.796  0.00  0.00    -0.294 NA
ATOM      5  N   UNL     1      33.380 -23.484 -16.044  0.00  0.00    -0.090 NA
ATOM      6  N   UNL     1      32.206 -22.663 -17.829  0.00  0.00    -0.267 NA
ATOM      7  N   UNL     1      36.147 -23.319 -15.711  0.00  0.00    -0.318 N 
ATOM      8  C   UNL     1      35.463 -21.687 -18.884  0.00  0.00    +0.213 C 
ATOM      9  C   UNL     1      33.485 -22.406 -18.011  0.00  0.00    +0.251 C 
ATOM     10  C   UNL     1      35.555 -22.790 -16.825  0.00  0.00    +0.282 C 
ATOM     11  C   UNL     1      32.191 -23.316 -16.627  0.00  0.00    +0.153 C 
ATOM     12  H   UNL     1      37.164 -20.993 -19.775  0.00  0.00    +0.160 HD
ATOM     13  H   UNL     1      35.597 -23.760 -15.023  0.00  0.00    +0.146 HD
ATOM     14  H   UNL     1      37.123 -23.260 -15.597  0.00  0.00    +0.146 HD
ENDROOT
BRANCH  11  16
ATOM     15  O   UNL     1      30.878 -24.805 -15.099  0.00  0.00    -0.439 OA
ATOM     16  C   UNL     1      30.943 -23.804 -16.014  0.00  0.00    +0.221 C 
ATOM     17  C   UNL     1      29.685 -23.316 -16.286  0.00  0.00    +0.052 C 
ATOM     18  C   UNL     1      28.791 -24.067 -15.485  0.00  0.00    +0.045 C 
ATOM     19  C   UNL     1      29.566 -24.960 -14.783  0.00  0.00    +0.181 C 
ENDBRANCH  11  16
BRANCH   1  20
ATOM     20  C   UNL     1      35.566 -20.511 -21.034  0.00  0.00    +0.103 C 
BRANCH  20  21
ATOM     21  C   UNL     1      35.691 -18.988 -21.050  0.00  0.00    +0.048 C 
BRANCH  21  22
ATOM     22  C   UNL     1      35.291 -18.375 -22.369  0.00  0.00    -0.020 C 
ATOM     23  C   UNL     1      34.883 -19.199 -23.406  0.00  0.00    -0.001 C 
ATOM     24  C   UNL     1      35.338 -16.998 -22.521  0.00  0.00    -0.001 C 
ATOM     25  C   UNL     1      34.514 -18.633 -24.626  0.00  0.00    +0.036 C 
ATOM     26  C   UNL     1      34.969 -16.431 -23.740  0.00  0.00    +0.036 C 
ATOM     27  C   UNL     1      34.557 -17.248 -24.793  0.00  0.00    +0.134 C 
BRANCH  27  28
ATOM     28  O   UNL     1      34.195 -16.696 -25.983  0.00  0.00    -0.506 OA
ATOM     29  H   UNL     1      34.004 -15.781 -26.036  0.00  0.00    +0.292 HD
ENDBRANCH  27  28
ENDBRANCH  21  22
ENDBRANCH  20  21
ENDBRANCH   1  20
TORSDOF 5
ENDMDL
MODEL 4
REMARK VINA RESULT:     -10.9      5.259     10.973
REMARK  Name = 176407
REMARK  5 active torsions:
REMARK  status: ('A' for Active; 'I' for Inactive)
REMARK    1  A    between atoms: N_1  and  C_20
REMARK    2  A    between atoms: C_11  and  C_16
REMARK    3  A    between atoms: C_20  and  C_21
REMARK    4  A    between atoms: C_21  and  C_22
REMARK    5  A    between atoms: C_27  and  O_28
REMARK                            x       y       z     vdW  Elec       q    Type
REMARK                         _______ _______ _______ _____ _____    ______ ____
ROOT
ATOM      1  N   UNL     1      34.904 -20.370 -20.655  0.00  0.00    -0.258 N 
ATOM      2  N   UNL     1      35.025 -22.688 -17.404  0.00  0.00    -0.059 N 
ATOM      3  N   UNL     1      36.096 -21.161 -18.828  0.00  0.00    -0.245 NA
ATOM      4  N   UNL     1      33.855 -21.909 -19.202  0.00  0.00    -0.294 NA
ATOM      5  N   UNL     1      35.212 -23.414 -16.292  0.00  0.00    -0.090 NA
ATOM      6  N   UNL     1      37.063 -22.179 -16.828  0.00  0.00    -0.267 NA
ATOM      7  N   UNL     1      32.820 -23.456 -17.732  0.00  0.00    -0.318 N 
ATOM      8  C   UNL     1      34.983 -21.156 -19.529  0.00  0.00    +0.213 C 
ATOM      9  C   UNL     1      36.127 -21.949 -17.727  0.00  0.00    +0.251 C 
ATOM     10  C   UNL     1      33.863 -22.674 -18.150  0.00  0.00    +0.282 C 
ATOM     11  C   UNL     1      36.464 -23.071 -15.981  0.00  0.00    +0.153 C 
ATOM     12  H   UNL     1      34.069 -20.370 -21.178  0.00  0.00    +0.160 HD
ATOM     13  H   UNL     1      32.912 -24.006 -16.919  0.00  0.00    +0.146 HD
ATOM     14  H   UNL     1      31.978 -23.467 -18.241  0.00  0.00    +0.146 HD
ENDROOT
BRANCH  11  16
ATOM     15  O   UNL     1      36.927 -23.214 -13.523  0.00  0.00    -0.439 OA
ATOM     16  C   UNL     1      37.155 -23.617 -14.800  0.00  0.00    +0.221 C 
ATOM     17  C   UNL     1      38.119 -24.599 -14.830  0.00  0.00    +0.052 C 
ATOM     18  C   UNL     1      38.506 -24.812 -13.485  0.00  0.00    +0.045 C 
ATOM     19  C   UNL     1      37.752 -23.945 -12.730  0.00  0.00    +0.181 C 
ENDBRANCH  11  16
BRANCH   1  20
ATOM     20  C   UNL     1      35.993 -19.555 -21.089  0.00  0.00    +0.103 C 
BRANCH  20  21
ATOM     21  C   UNL     1      35.608 -18.077 -21.077  0.00  0.00    +0.048 C 
BRANCH  21  22
ATOM     22  C   UNL     1      35.185 -17.563 -22.432  0.00  0.00    -0.020 C 
ATOM     23  C   UNL     1      34.911 -16.214 -22.592  0.00  0.00    -0.001 C 
ATOM     24  C   UNL     1      35.079 -18.450 -23.491  0.00  0.00    -0.001 C 
ATOM     25  C   UNL     1      34.520 -15.740 -23.843  0.00  0.00    +0.036 C 
ATOM     26  C   UNL     1      34.688 -17.976 -24.743  0.00  0.00    +0.036 C 
ATOM     27  C   UNL     1      34.409 -16.620 -24.919  0.00  0.00    +0.134 C 
BRANCH  27  28
ATOM     28  O   UNL     1      34.028 -16.156 -26.141  0.00  0.00    -0.506 OA
ATOM     29  H   UNL     1      33.469 -15.407 -26.204  0.00  0.00    +0.292 HD
ENDBRANCH  27  28
ENDBRANCH  21  22
ENDBRANCH  20  21
ENDBRANCH   1  20
TORSDOF 5
ENDMDL
MODEL 5
REMARK VINA RESULT:     -10.8      2.273      9.078
REMARK  Name = 176407
REMARK  5 active torsions:
REMARK  status: ('A' for Active; 'I' for Inactive)
REMARK    1  A    between atoms: N_1  and  C_20
REMARK    2  A    between atoms: C_11  and  C_16
REMARK    3  A    between atoms: C_20  and  C_21
REMARK    4  A    between atoms: C_21  and  C_22
REMARK    5  A    between atoms: C_27  and  O_28
REMARK                            x       y       z     vdW  Elec       q    Type
REMARK                         _______ _______ _______ _____ _____    ______ ____
ROOT
ATOM      1  N   UNL     1      32.624 -13.362 -23.045  0.00  0.00    -0.258 N 
ATOM      2  N   UNL     1      34.482 -16.897 -22.937  0.00  0.00    -0.059 N 
ATOM      3  N   UNL     1      33.280 -15.220 -21.819  0.00  0.00    -0.245 NA
ATOM      4  N   UNL     1      33.835 -15.069 -24.140  0.00  0.00    -0.294 NA
ATOM      5  N   UNL     1      35.066 -18.089 -22.749  0.00  0.00    -0.090 NA
ATOM      6  N   UNL     1      34.114 -17.292 -20.827  0.00  0.00    -0.267 NA
ATOM      7  N   UNL     1      35.053 -16.793 -25.221  0.00  0.00    -0.318 N 
ATOM      8  C   UNL     1      33.254 -14.582 -22.969  0.00  0.00    +0.213 C 
ATOM      9  C   UNL     1      33.912 -16.418 -21.792  0.00  0.00    +0.251 C 
ATOM     10  C   UNL     1      34.448 -16.216 -24.138  0.00  0.00    +0.282 C 
ATOM     11  C   UNL     1      34.816 -18.285 -21.452  0.00  0.00    +0.153 C 
ATOM     12  H   UNL     1      32.607 -12.888 -23.907  0.00  0.00    +0.160 HD
ATOM     13  H   UNL     1      35.494 -17.669 -25.130  0.00  0.00    +0.146 HD
ATOM     14  H   UNL     1      35.045 -16.334 -26.092  0.00  0.00    +0.146 HD
ENDROOT
BRANCH  11  16
ATOM     15  O   UNL     1      36.552 -19.734 -20.374  0.00  0.00    -0.439 OA
ATOM     16  C   UNL     1      35.267 -19.495 -20.742  0.00  0.00    +0.221 C 
ATOM     17  C   UNL     1      34.454 -20.537 -20.360  0.00  0.00    +0.052 C 
ATOM     18  C   UNL     1      35.295 -21.477 -19.716  0.00  0.00    +0.045 C 
ATOM     19  C   UNL     1      36.561 -20.942 -19.751  0.00  0.00    +0.181 C 
ENDBRANCH  11  16
BRANCH   1  20
ATOM     20  C   UNL     1      31.993 -12.763 -21.912  0.00  0.00    +0.103 C 
BRANCH  20  21
ATOM     21  C   UNL     1      31.265 -11.479 -22.309  0.00  0.00    +0.048 C 
BRANCH  21  22
ATOM     22  C   UNL     1      31.734 -10.270 -21.537  0.00  0.00    -0.020 C 
ATOM     23  C   UNL     1      32.313  -9.211 -22.219  0.00  0.00    -0.001 C 
ATOM     24  C   UNL     1      31.577 -10.240 -20.160  0.00  0.00    -0.001 C 
ATOM     25  C   UNL     1      32.747  -8.094 -21.505  0.00  0.00    +0.036 C 
ATOM     26  C   UNL     1      32.011  -9.123 -19.447  0.00  0.00    +0.036 C 
ATOM     27  C   UNL     1      32.596  -8.050 -20.119  0.00  0.00    +0.134 C 
BRANCH  27  28
ATOM     28  O   UNL     1      33.019  -6.959 -19.424  0.00  0.00    -0.506 OA
ATOM     29  H   UNL     1      33.026  -6.116 -19.833  0.00  0.00    +0.292 HD
ENDBRANCH  27  28
ENDBRANCH  21  22
ENDBRANCH  20  21
ENDBRANCH   1  20
TORSDOF 5
ENDMDL
MODEL 6
REMARK VINA RESULT:     -10.7      2.151      8.701
REMARK  Name = 176407
REMARK  5 active torsions:
REMARK  status: ('A' for Active; 'I' for Inactive)
REMARK    1  A    between atoms: N_1  and  C_20
REMARK    2  A    between atoms: C_11  and  C_16
REMARK    3  A    between atoms: C_20  and  C_21
REMARK    4  A    between atoms: C_21  and  C_22
REMARK    5  A    between atoms: C_27  and  O_28
REMARK                            x       y       z     vdW  Elec       q    Type
REMARK                         _______ _______ _______ _____ _____    ______ ____
ROOT
ATOM      1  N   UNL     1      33.726 -14.293 -23.984  0.00  0.00    -0.258 N 
ATOM      2  N   UNL     1      34.623 -18.078 -23.077  0.00  0.00    -0.059 N 
ATOM      3  N   UNL     1      34.271 -15.869 -22.370  0.00  0.00    -0.245 NA
ATOM      4  N   UNL     1      34.086 -16.526 -24.662  0.00  0.00    -0.294 NA
ATOM      5  N   UNL     1      34.935 -19.302 -22.625  0.00  0.00    -0.090 NA
ATOM      6  N   UNL     1      34.856 -17.759 -20.936  0.00  0.00    -0.267 NA
ATOM      7  N   UNL     1      34.453 -18.774 -25.323  0.00  0.00    -0.318 N 
ATOM      8  C   UNL     1      34.037 -15.585 -23.633  0.00  0.00    +0.213 C 
ATOM      9  C   UNL     1      34.574 -17.155 -22.072  0.00  0.00    +0.251 C 
ATOM     10  C   UNL     1      34.376 -17.767 -24.400  0.00  0.00    +0.282 C 
ATOM     11  C   UNL     1      35.067 -19.055 -21.319  0.00  0.00    +0.153 C 
ATOM     12  H   UNL     1      33.552 -14.085 -24.930  0.00  0.00    +0.160 HD
ATOM     13  H   UNL     1      34.679 -19.689 -25.036  0.00  0.00    +0.146 HD
ATOM     14  H   UNL     1      34.282 -18.586 -26.274  0.00  0.00    +0.146 HD
ENDROOT
BRANCH  11  16
ATOM     15  O   UNL     1      36.641 -20.256 -19.784  0.00  0.00    -0.439 OA
ATOM     16  C   UNL     1      35.416 -20.112 -20.354  0.00  0.00    +0.221 C 
ATOM     17  C   UNL     1      34.557 -21.088 -19.904  0.00  0.00    +0.052 C 
ATOM     18  C   UNL     1      35.303 -21.883 -19.000  0.00  0.00    +0.045 C 
ATOM     19  C   UNL     1      36.563 -21.335 -18.962  0.00  0.00    +0.181 C 
ENDBRANCH  11  16
BRANCH   1  20
ATOM     20  C   UNL     1      33.645 -13.244 -23.018  0.00  0.00    +0.103 C 
BRANCH  20  21
ATOM     21  C   UNL     1      32.195 -12.984 -22.613  0.00  0.00    +0.048 C 
BRANCH  21  22
ATOM     22  C   UNL     1      32.038 -11.787 -21.708  0.00  0.00    -0.020 C 
ATOM     23  C   UNL     1      31.787 -11.983 -20.359  0.00  0.00    -0.001 C 
ATOM     24  C   UNL     1      32.147 -10.513 -22.243  0.00  0.00    -0.001 C 
ATOM     25  C   UNL     1      31.641 -10.876 -19.523  0.00  0.00    +0.036 C 
ATOM     26  C   UNL     1      32.001  -9.406 -21.407  0.00  0.00    +0.036 C 
ATOM     27  C   UNL     1      31.749  -9.588 -20.047  0.00  0.00    +0.134 C 
BRANCH  27  28
ATOM     28  O   UNL     1      31.607  -8.508 -19.230  0.00  0.00    -0.506 OA
ATOM     29  H   UNL     1      30.909  -7.900 -19.374  0.00  0.00    +0.292 HD
ENDBRANCH  27  28
ENDBRANCH  21  22
ENDBRANCH  20  21
ENDBRANCH   1  20
TORSDOF 5
ENDMDL
MODEL 7
REMARK VINA RESULT:     -10.5      6.492     12.046
REMARK  Name = 176407
REMARK  5 active torsions:
REMARK  status: ('A' for Active; 'I' for Inactive)
REMARK    1  A    between atoms: N_1  and  C_20
REMARK    2  A    between atoms: C_11  and  C_16
REMARK    3  A    between atoms: C_20  and  C_21
REMARK    4  A    between atoms: C_21  and  C_22
REMARK    5  A    between atoms: C_27  and  O_28
REMARK                            x       y       z     vdW  Elec       q    Type
REMARK                         _______ _______ _______ _____ _____    ______ ____
ROOT
ATOM      1  N   UNL     1      32.645 -21.905 -18.785  0.00  0.00    -0.258 N 
ATOM      2  N   UNL     1      34.069 -23.874 -15.614  0.00  0.00    -0.059 N 
ATOM      3  N   UNL     1      34.479 -22.644 -17.570  0.00  0.00    -0.245 NA
ATOM      4  N   UNL     1      32.267 -23.145 -16.811  0.00  0.00    -0.294 NA
ATOM      5  N   UNL     1      34.690 -24.500 -14.603  0.00  0.00    -0.090 NA
ATOM      6  N   UNL     1      36.176 -23.564 -16.071  0.00  0.00    -0.267 NA
ATOM      7  N   UNL     1      31.909 -24.393 -14.826  0.00  0.00    -0.318 N 
ATOM      8  C   UNL     1      33.172 -22.574 -17.705  0.00  0.00    +0.213 C 
ATOM      9  C   UNL     1      34.953 -23.314 -16.492  0.00  0.00    +0.251 C 
ATOM     10  C   UNL     1      32.699 -23.793 -15.769  0.00  0.00    +0.282 C 
ATOM     11  C   UNL     1      35.967 -24.283 -14.927  0.00  0.00    +0.153 C 
ATOM     12  H   UNL     1      31.667 -21.855 -18.882  0.00  0.00    +0.160 HD
ATOM     13  H   UNL     1      32.322 -24.864 -14.065  0.00  0.00    +0.146 HD
ATOM     14  H   UNL     1      30.929 -24.353 -14.906  0.00  0.00    +0.146 HD
ENDROOT
BRANCH  11  16
ATOM     15  O   UNL     1      38.379 -24.808 -14.498  0.00  0.00    -0.439 OA
ATOM     16  C   UNL     1      37.080 -24.786 -14.102  0.00  0.00    +0.221 C 
ATOM     17  C   UNL     1      36.954 -25.299 -12.831  0.00  0.00    +0.052 C 
ATOM     18  C   UNL     1      38.261 -25.658 -12.421  0.00  0.00    +0.045 C 
ATOM     19  C   UNL     1      39.091 -25.340 -13.470  0.00  0.00    +0.181 C 
ENDBRANCH  11  16
BRANCH   1  20
ATOM     20  C   UNL     1      33.472 -21.279 -19.767  0.00  0.00    +0.103 C 
BRANCH  20  21
ATOM     21  C   UNL     1      32.690 -20.222 -20.545  0.00  0.00    +0.048 C 
BRANCH  21  22
ATOM     22  C   UNL     1      33.580 -19.229 -21.253  0.00  0.00    -0.020 C 
ATOM     23  C   UNL     1      33.483 -17.884 -20.935  0.00  0.00    -0.001 C 
ATOM     24  C   UNL     1      34.477 -19.681 -22.207  0.00  0.00    -0.001 C 
ATOM     25  C   UNL     1      34.305 -16.966 -21.590  0.00  0.00    +0.036 C 
ATOM     26  C   UNL     1      35.298 -18.764 -22.862  0.00  0.00    +0.036 C 
ATOM     27  C   UNL     1      35.213 -17.407 -22.553  0.00  0.00    +0.134 C 
BRANCH  27  28
ATOM     28  O   UNL     1      36.015 -16.510 -23.191  0.00  0.00    -0.506 OA
ATOM     29  H   UNL     1      36.755 -16.146 -22.748  0.00  0.00    +0.292 HD
ENDBRANCH  27  28
ENDBRANCH  21  22
ENDBRANCH  20  21
ENDBRANCH   1  20
TORSDOF 5
ENDMDL
MODEL 8
REMARK VINA RESULT:     -10.5      5.003     10.805
REMARK  Name = 176407
REMARK  5 active torsions:
REMARK  status: ('A' for Active; 'I' for Inactive)
REMARK    1  A    between atoms: N_1  and  C_20
REMARK    2  A    between atoms: C_11  and  C_16
REMARK    3  A    between atoms: C_20  and  C_21
REMARK    4  A    between atoms: C_21  and  C_22
REMARK    5  A    between atoms: C_27  and  O_28
REMARK                            x       y       z     vdW  Elec       q    Type
REMARK                         _______ _______ _______ _____ _____    ______ ____
ROOT
ATOM      1  N   UNL     1      35.342 -20.023 -20.809  0.00  0.00    -0.258 N 
ATOM      2  N   UNL     1      35.248 -22.515 -17.687  0.00  0.00    -0.059 N 
ATOM      3  N   UNL     1      36.376 -20.856 -18.905  0.00  0.00    -0.245 NA
ATOM      4  N   UNL     1      34.234 -21.694 -19.560  0.00  0.00    -0.294 NA
ATOM      5  N   UNL     1      35.356 -23.293 -16.600  0.00  0.00    -0.090 NA
ATOM      6  N   UNL     1      37.181 -21.937 -16.867  0.00  0.00    -0.267 NA
ATOM      7  N   UNL     1      33.138 -23.373 -18.292  0.00  0.00    -0.318 N 
ATOM      8  C   UNL     1      35.345 -20.867 -19.723  0.00  0.00    +0.213 C 
ATOM      9  C   UNL     1      36.335 -21.704 -17.849  0.00  0.00    +0.251 C 
ATOM     10  C   UNL     1      34.172 -22.517 -18.554  0.00  0.00    +0.282 C 
ATOM     11  C   UNL     1      36.547 -22.905 -16.137  0.00  0.00    +0.153 C 
ATOM     12  H   UNL     1      34.569 -20.035 -21.418  0.00  0.00    +0.160 HD
ATOM     13  H   UNL     1      33.174 -23.963 -17.504  0.00  0.00    +0.146 HD
ATOM     14  H   UNL     1      32.356 -23.398 -18.890  0.00  0.00    +0.146 HD
ENDROOT
BRANCH  11  16
ATOM     15  O   UNL     1      36.762 -23.154 -13.654  0.00  0.00    -0.439 OA
ATOM     16  C   UNL     1      37.139 -23.482 -14.917  0.00  0.00    +0.221 C 
ATOM     17  C   UNL     1      38.145 -24.421 -14.893  0.00  0.00    +0.052 C 
ATOM     18  C   UNL     1      38.402 -24.686 -13.527  0.00  0.00    +0.045 C 
ATOM     19  C   UNL     1      37.536 -23.891 -12.814  0.00  0.00    +0.181 C 
ENDBRANCH  11  16
BRANCH   1  20
ATOM     20  C   UNL     1      36.423 -19.131 -21.079  0.00  0.00    +0.103 C 
BRANCH  20  21
ATOM     21  C   UNL     1      36.206 -18.393 -22.399  0.00  0.00    +0.048 C 
BRANCH  21  22
ATOM     22  C   UNL     1      35.380 -17.139 -22.249  0.00  0.00    -0.020 C 
ATOM     23  C   UNL     1      35.028 -16.418 -23.378  0.00  0.00    -0.001 C 
ATOM     24  C   UNL     1      34.988 -16.733 -20.983  0.00  0.00    -0.001 C 
ATOM     25  C   UNL     1      34.265 -15.259 -23.239  0.00  0.00    +0.036 C 
ATOM     26  C   UNL     1      34.225 -15.574 -20.844  0.00  0.00    +0.036 C 
ATOM     27  C   UNL     1      33.863 -14.837 -21.971  0.00  0.00    +0.134 C 
BRANCH  27  28
ATOM     28  O   UNL     1      33.118 -13.706 -21.837  0.00  0.00    -0.506 OA
ATOM     29  H   UNL     1      33.489 -12.872 -22.048  0.00  0.00    +0.292 HD
ENDBRANCH  27  28
ENDBRANCH  21  22
ENDBRANCH  20  21
ENDBRANCH   1  20
TORSDOF 5
ENDMDL
MODEL 9
REMARK VINA RESULT:     -10.3      2.361      3.285
REMARK  Name = 176407
REMARK  5 active torsions:
REMARK  status: ('A' for Active; 'I' for Inactive)
REMARK    1  A    between atoms: N_1  and  C_20
REMARK    2  A    between atoms: C_11  and  C_16
REMARK    3  A    between atoms: C_20  and  C_21
REMARK    4  A    between atoms: C_21  and  C_22
REMARK    5  A    between atoms: C_27  and  O_28
REMARK                            x       y       z     vdW  Elec       q    Type
REMARK                         _______ _______ _______ _____ _____    ______ ____
ROOT
ATOM      1  N   UNL     1      35.164 -19.842 -21.740  0.00  0.00    -0.258 N 
ATOM      2  N   UNL     1      34.136 -16.128 -22.793  0.00  0.00    -0.059 N 
ATOM      3  N   UNL     1      34.107 -17.849 -21.198  0.00  0.00    -0.245 NA
ATOM      4  N   UNL     1      35.174 -18.090 -23.324  0.00  0.00    -0.294 NA
ATOM      5  N   UNL     1      33.723 -14.871 -23.007  0.00  0.00    -0.090 NA
ATOM      6  N   UNL     1      33.095 -15.639 -20.944  0.00  0.00    -0.267 NA
ATOM      7  N   UNL     1      35.173 -16.319 -24.902  0.00  0.00    -0.318 N 
ATOM      8  C   UNL     1      34.792 -18.559 -22.067  0.00  0.00    +0.213 C 
ATOM      9  C   UNL     1      33.764 -16.590 -21.563  0.00  0.00    +0.251 C 
ATOM     10  C   UNL     1      34.855 -16.886 -23.698  0.00  0.00    +0.282 C 
ATOM     11  C   UNL     1      33.096 -14.619 -21.855  0.00  0.00    +0.153 C 
ATOM     12  H   UNL     1      35.676 -20.371 -22.394  0.00  0.00    +0.160 HD
ATOM     13  H   UNL     1      34.890 -15.397 -25.102  0.00  0.00    +0.146 HD
ATOM     14  H   UNL     1      35.685 -16.832 -25.568  0.00  0.00    +0.146 HD
ENDROOT
BRANCH  11  16
ATOM     15  O   UNL     1      32.124 -12.873 -20.344  0.00  0.00    -0.439 OA
ATOM     16  C   UNL     1      32.447 -13.324 -21.584  0.00  0.00    +0.221 C 
ATOM     17  C   UNL     1      32.083 -12.405 -22.541  0.00  0.00    +0.052 C 
ATOM     18  C   UNL     1      31.499 -11.320 -21.843  0.00  0.00    +0.045 C 
ATOM     19  C   UNL     1      31.547 -11.654 -20.510  0.00  0.00    +0.181 C 
ENDBRANCH  11  16
BRANCH   1  20
ATOM     20  C   UNL     1      34.831 -20.431 -20.482  0.00  0.00    +0.103 C 
BRANCH  20  21
ATOM     21  C   UNL     1      36.060 -21.068 -19.835  0.00  0.00    +0.048 C 
BRANCH  21  22
ATOM     22  C   UNL     1      35.747 -21.778 -18.541  0.00  0.00    -0.020 C 
ATOM     23  C   UNL     1      36.708 -21.826 -17.543  0.00  0.00    -0.001 C 
ATOM     24  C   UNL     1      34.505 -22.369 -18.374  0.00  0.00    -0.001 C 
ATOM     25  C   UNL     1      36.419 -22.483 -16.347  0.00  0.00    +0.036 C 
ATOM     26  C   UNL     1      34.216 -23.025 -17.178  0.00  0.00    +0.036 C 
ATOM     27  C   UNL     1      35.172 -23.082 -16.164  0.00  0.00    +0.134 C 
BRANCH  27  28
ATOM     28  O   UNL     1      34.891 -23.722 -14.996  0.00  0.00    -0.506 OA
ATOM     29  H   UNL     1      35.074 -23.305 -14.178  0.00  0.00    +0.292 HD
ENDBRANCH  27  28
ENDBRANCH  21  22
ENDBRANCH  20  21
ENDBRANCH   1  20
TORSDOF 5
ENDMDL
