MODEL 1
REMARK VINA RESULT:     -10.6      0.000      0.000
REMARK  Name = 9543486
REMARK  9 active torsions:
REMARK  status: ('A' for Active; 'I' for Inactive)
REMARK    1  A    between atoms: C_1  and  N_2
REMARK    2  A    between atoms: C_1  and  C_17
REMARK    3  A    between atoms: N_2  and  S_4
REMARK    4  A    between atoms: S_4  and  C_7
REMARK    5  A    between atoms: C_17  and  O_18
REMARK    6  A    between atoms: C_17  and  C_20
REMARK    7  A    between atoms: C_20  and  N_21
REMARK    8  A    between atoms: C_20  and  C_25
REMARK    9  A    between atoms: C_25  and  C_26
REMARK                            x       y       z     vdW  Elec       q    Type
REMARK                         _______ _______ _______ _____ _____    ______ ____
ROOT
ATOM      1  C   UNL     1      34.784 -22.923 -15.837  0.00  0.00    +0.118 C 
ENDROOT
BRANCH   1   2
ATOM      2  N   UNL     1      34.982 -22.780 -17.300  0.00  0.00    -0.177 NA
ATOM      3  H   UNL     1      35.383 -21.854 -17.453  0.00  0.00    +0.149 HD
BRANCH   2   4
ATOM      4  S   UNL     1      33.656 -22.924 -18.350  0.00  0.00    +0.060 S 
ATOM      5  O   UNL     1      32.427 -22.718 -17.609  0.00  0.00    -0.153 OA
ATOM      6  O   UNL     1      33.829 -24.117 -19.158  0.00  0.00    -0.153 OA
BRANCH   4   7
ATOM      7  C   UNL     1      33.886 -21.538 -19.422  0.00  0.00    +0.122 C 
ATOM      8  C   UNL     1      35.172 -21.141 -19.747  0.00  0.00    +0.020 C 
ATOM      9  C   UNL     1      35.372 -20.041 -20.596  0.00  0.00    +0.001 C 
ATOM     10  C   UNL     1      32.778 -20.876 -19.915  0.00  0.00    +0.020 C 
ATOM     11  C   UNL     1      34.248 -19.351 -21.111  0.00  0.00    +0.000 C 
ATOM     12  C   UNL     1      32.958 -19.782 -20.760  0.00  0.00    +0.001 C 
ATOM     13  C   UNL     1      36.662 -19.611 -20.947  0.00  0.00    +0.000 C 
ATOM     14  C   UNL     1      34.448 -18.250 -21.961  0.00  0.00    +0.000 C 
ATOM     15  C   UNL     1      36.842 -18.516 -21.793  0.00  0.00    +0.000 C 
ATOM     16  C   UNL     1      35.737 -17.837 -22.299  0.00  0.00    +0.000 C 
ENDBRANCH   4   7
ENDBRANCH   2   4
ENDBRANCH   1   2
BRANCH   1  17
ATOM     17  C   UNL     1      34.600 -24.404 -15.491  0.00  0.00    +0.108 C 
BRANCH  17  18
ATOM     18  O   UNL     1      35.879 -25.037 -15.443  0.00  0.00    -0.385 OA
ATOM     19  H   UNL     1      35.948 -25.683 -16.164  0.00  0.00    +0.210 HD
ENDBRANCH  17  18
BRANCH  17  20
ATOM     20  C   UNL     1      33.866 -24.618 -14.146  0.00  0.00    -0.032 C 
BRANCH  20  21
ATOM     21  N   UNL     1      34.835 -24.672 -13.044  0.00  0.00    +0.384 N 
ATOM     22  H   UNL     1      35.457 -25.470 -13.176  0.00  0.00    -0.089 HD
ATOM     23  H   UNL     1      34.339 -24.772 -12.158  0.00  0.00    -0.089 HD
ATOM     24  H   UNL     1      35.385 -23.812 -13.030  0.00  0.00    -0.089 HD
ENDBRANCH  20  21
BRANCH  20  25
ATOM     25  C   UNL     1      32.829 -23.516 -13.832  0.00  0.00    +0.007 C 
BRANCH  25  26
ATOM     26  C   UNL     1      31.445 -23.820 -14.353  0.00  0.00    -0.024 C 
ATOM     27  C   UNL     1      30.647 -22.781 -14.804  0.00  0.00    -0.004 C 
ATOM     28  C   UNL     1      30.998 -25.131 -14.370  0.00  0.00    -0.004 C 
ATOM     29  C   UNL     1      29.367 -23.061 -15.286  0.00  0.00    -0.000 C 
ATOM     30  C   UNL     1      29.720 -25.411 -14.853  0.00  0.00    -0.000 C 
ATOM     31  C   UNL     1      28.904 -24.376 -15.310  0.00  0.00    -0.000 C 
ENDBRANCH  25  26
ENDBRANCH  20  25
ENDBRANCH  17  20
ENDBRANCH   1  17
TORSDOF 9
ENDMDL
MODEL 2
REMARK VINA RESULT:     -10.6      7.352     10.244
REMARK  Name = 9543486
REMARK  9 active torsions:
REMARK  status: ('A' for Active; 'I' for Inactive)
REMARK    1  A    between atoms: C_1  and  N_2
REMARK    2  A    between atoms: C_1  and  C_17
REMARK    3  A    between atoms: N_2  and  S_4
REMARK    4  A    between atoms: S_4  and  C_7
REMARK    5  A    between atoms: C_17  and  O_18
REMARK    6  A    between atoms: C_17  and  C_20
REMARK    7  A    between atoms: C_20  and  N_21
REMARK    8  A    between atoms: C_20  and  C_25
REMARK    9  A    between atoms: C_25  and  C_26
REMARK                            x       y       z     vdW  Elec       q    Type
REMARK                         _______ _______ _______ _____ _____    ______ ____
ROOT
ATOM      1  C   UNL     1      34.901 -15.684 -23.514  0.00  0.00    +0.118 C 
ENDROOT
BRANCH   1   2
ATOM      2  N   UNL     1      34.564 -14.271 -23.215  0.00  0.00    -0.177 NA
ATOM      3  H   UNL     1      34.646 -14.156 -22.204  0.00  0.00    +0.149 HD
BRANCH   2   4
ATOM      4  S   UNL     1      33.048 -13.651 -23.660  0.00  0.00    +0.060 S 
ATOM      5  O   UNL     1      32.089 -13.915 -22.605  0.00  0.00    -0.153 OA
ATOM      6  O   UNL     1      32.761 -14.056 -25.024  0.00  0.00    -0.153 OA
BRANCH   4   7
ATOM      7  C   UNL     1      33.360 -11.912 -23.693  0.00  0.00    +0.122 C 
ATOM      8  C   UNL     1      32.576 -11.071 -22.921  0.00  0.00    +0.020 C 
ATOM      9  C   UNL     1      32.810  -9.687 -22.936  0.00  0.00    +0.001 C 
ATOM     10  C   UNL     1      34.378 -11.424 -24.488  0.00  0.00    +0.020 C 
ATOM     11  C   UNL     1      33.850  -9.169 -23.745  0.00  0.00    +0.000 C 
ATOM     12  C   UNL     1      34.625 -10.052 -24.515  0.00  0.00    +0.001 C 
ATOM     13  C   UNL     1      32.035  -8.804 -22.166  0.00  0.00    +0.000 C 
ATOM     14  C   UNL     1      34.084  -7.784 -23.761  0.00  0.00    +0.000 C 
ATOM     15  C   UNL     1      32.282  -7.431 -22.193  0.00  0.00    +0.000 C 
ATOM     16  C   UNL     1      33.304  -6.922 -22.989  0.00  0.00    +0.000 C 
ENDBRANCH   4   7
ENDBRANCH   2   4
ENDBRANCH   1   2
BRANCH   1  17
ATOM     17  C   UNL     1      34.950 -16.483 -22.208  0.00  0.00    +0.108 C 
BRANCH  17  18
ATOM     18  O   UNL     1      33.761 -16.231 -21.458  0.00  0.00    -0.385 OA
ATOM     19  H   UNL     1      33.295 -17.067 -21.301  0.00  0.00    +0.210 HD
ENDBRANCH  17  18
BRANCH  17  20
ATOM     20  C   UNL     1      35.101 -18.005 -22.442  0.00  0.00    -0.032 C 
BRANCH  20  21
ATOM     21  N   UNL     1      35.723 -18.258 -23.748  0.00  0.00    +0.384 N 
ATOM     22  H   UNL     1      36.636 -17.803 -23.783  0.00  0.00    -0.089 HD
ATOM     23  H   UNL     1      35.128 -17.883 -24.487  0.00  0.00    -0.089 HD
ATOM     24  H   UNL     1      35.839 -19.263 -23.882  0.00  0.00    -0.089 HD
ENDBRANCH  20  21
BRANCH  20  25
ATOM     25  C   UNL     1      35.941 -18.712 -21.355  0.00  0.00    +0.007 C 
BRANCH  25  26
ATOM     26  C   UNL     1      35.210 -19.834 -20.657  0.00  0.00    -0.024 C 
ATOM     27  C   UNL     1      35.940 -20.833 -20.033  0.00  0.00    -0.004 C 
ATOM     28  C   UNL     1      33.825 -19.843 -20.653  0.00  0.00    -0.004 C 
ATOM     29  C   UNL     1      35.265 -21.870 -19.387  0.00  0.00    -0.000 C 
ATOM     30  C   UNL     1      33.150 -20.879 -20.007  0.00  0.00    -0.000 C 
ATOM     31  C   UNL     1      33.870 -21.893 -19.374  0.00  0.00    -0.000 C 
ENDBRANCH  25  26
ENDBRANCH  20  25
ENDBRANCH  17  20
ENDBRANCH   1  17
TORSDOF 9
ENDMDL
MODEL 3
REMARK VINA RESULT:     -10.5      7.337     10.103
REMARK  Name = 9543486
REMARK  9 active torsions:
REMARK  status: ('A' for Active; 'I' for Inactive)
REMARK    1  A    between atoms: C_1  and  N_2
REMARK    2  A    between atoms: C_1  and  C_17
REMARK    3  A    between atoms: N_2  and  S_4
REMARK    4  A    between atoms: S_4  and  C_7
REMARK    5  A    between atoms: C_17  and  O_18
REMARK    6  A    between atoms: C_17  and  C_20
REMARK    7  A    between atoms: C_20  and  N_21
REMARK    8  A    between atoms: C_20  and  C_25
REMARK    9  A    between atoms: C_25  and  C_26
REMARK                            x       y       z     vdW  Elec       q    Type
REMARK                         _______ _______ _______ _____ _____    ______ ____
ROOT
ATOM      1  C   UNL     1      34.847 -15.130 -21.998  0.00  0.00    +0.118 C 
ENDROOT
BRANCH   1   2
ATOM      2  N   UNL     1      34.554 -13.993 -22.904  0.00  0.00    -0.177 NA
ATOM      3  H   UNL     1      34.906 -13.153 -22.445  0.00  0.00    +0.149 HD
BRANCH   2   4
ATOM      4  S   UNL     1      32.952 -13.670 -23.363  0.00  0.00    +0.060 S 
ATOM      5  O   UNL     1      32.043 -14.284 -22.414  0.00  0.00    -0.153 OA
ATOM      6  O   UNL     1      32.811 -13.935 -24.783  0.00  0.00    -0.153 OA
BRANCH   4   7
ATOM      7  C   UNL     1      32.858 -11.917 -23.154  0.00  0.00    +0.122 C 
ATOM      8  C   UNL     1      33.793 -11.111 -23.779  0.00  0.00    +0.020 C 
ATOM      9  C   UNL     1      33.733  -9.717 -23.622  0.00  0.00    +0.001 C 
ATOM     10  C   UNL     1      31.853 -11.385 -22.369  0.00  0.00    +0.020 C 
ATOM     11  C   UNL     1      32.710  -9.154 -22.822  0.00  0.00    +0.000 C 
ATOM     12  C   UNL     1      31.778 -10.003 -22.202  0.00  0.00    +0.001 C 
ATOM     13  C   UNL     1      34.665  -8.869 -24.242  0.00  0.00    +0.000 C 
ATOM     14  C   UNL     1      32.650  -7.760 -22.664  0.00  0.00    +0.000 C 
ATOM     15  C   UNL     1      34.590  -7.486 -24.076  0.00  0.00    +0.000 C 
ATOM     16  C   UNL     1      33.585  -6.932 -23.288  0.00  0.00    +0.000 C 
ENDBRANCH   4   7
ENDBRANCH   2   4
ENDBRANCH   1   2
BRANCH   1  17
ATOM     17  C   UNL     1      34.847 -16.434 -22.802  0.00  0.00    +0.108 C 
BRANCH  17  18
ATOM     18  O   UNL     1      35.714 -16.291 -23.928  0.00  0.00    -0.385 OA
ATOM     19  H   UNL     1      35.522 -15.453 -24.379  0.00  0.00    +0.210 HD
ENDBRANCH  17  18
BRANCH  17  20
ATOM     20  C   UNL     1      35.291 -17.656 -21.961  0.00  0.00    -0.032 C 
BRANCH  20  21
ATOM     21  N   UNL     1      35.217 -17.339 -20.529  0.00  0.00    +0.384 N 
ATOM     22  H   UNL     1      34.735 -18.093 -20.038  0.00  0.00    -0.089 HD
ATOM     23  H   UNL     1      34.704 -16.466 -20.399  0.00  0.00    -0.089 HD
ATOM     24  H   UNL     1      36.160 -17.238 -20.153  0.00  0.00    -0.089 HD
ENDBRANCH  20  21
BRANCH  20  25
ATOM     25  C   UNL     1      34.444 -18.921 -22.226  0.00  0.00    +0.007 C 
BRANCH  25  26
ATOM     26  C   UNL     1      34.515 -19.942 -21.117  0.00  0.00    -0.024 C 
ATOM     27  C   UNL     1      35.750 -20.442 -20.733  0.00  0.00    -0.004 C 
ATOM     28  C   UNL     1      33.346 -20.361 -20.503  0.00  0.00    -0.004 C 
ATOM     29  C   UNL     1      35.816 -21.386 -19.708  0.00  0.00    -0.000 C 
ATOM     30  C   UNL     1      33.413 -21.304 -19.477  0.00  0.00    -0.000 C 
ATOM     31  C   UNL     1      34.648 -21.817 -19.080  0.00  0.00    -0.000 C 
ENDBRANCH  25  26
ENDBRANCH  20  25
ENDBRANCH  17  20
ENDBRANCH   1  17
TORSDOF 9
ENDMDL
MODEL 4
REMARK VINA RESULT:     -10.4      0.604      1.470
REMARK  Name = 9543486
REMARK  9 active torsions:
REMARK  status: ('A' for Active; 'I' for Inactive)
REMARK    1  A    between atoms: C_1  and  N_2
REMARK    2  A    between atoms: C_1  and  C_17
REMARK    3  A    between atoms: N_2  and  S_4
REMARK    4  A    between atoms: S_4  and  C_7
REMARK    5  A    between atoms: C_17  and  O_18
REMARK    6  A    between atoms: C_17  and  C_20
REMARK    7  A    between atoms: C_20  and  N_21
REMARK    8  A    between atoms: C_20  and  C_25
REMARK    9  A    between atoms: C_25  and  C_26
REMARK                            x       y       z     vdW  Elec       q    Type
REMARK                         _______ _______ _______ _____ _____    ______ ____
ROOT
ATOM      1  C   UNL     1      34.350 -23.098 -15.852  0.00  0.00    +0.118 C 
ENDROOT
BRANCH   1   2
ATOM      2  N   UNL     1      34.850 -23.238 -17.242  0.00  0.00    -0.177 NA
ATOM      3  H   UNL     1      35.613 -22.568 -17.349  0.00  0.00    +0.149 HD
BRANCH   2   4
ATOM      4  S   UNL     1      33.794 -22.996 -18.548  0.00  0.00    +0.060 S 
ATOM      5  O   UNL     1      32.524 -22.498 -18.058  0.00  0.00    -0.153 OA
ATOM      6  O   UNL     1      33.836 -24.167 -19.404  0.00  0.00    -0.153 OA
BRANCH   4   7
ATOM      7  C   UNL     1      34.592 -21.686 -19.427  0.00  0.00    +0.122 C 
ATOM      8  C   UNL     1      33.819 -20.748 -20.089  0.00  0.00    +0.020 C 
ATOM      9  C   UNL     1      34.438 -19.702 -20.792  0.00  0.00    +0.001 C 
ATOM     10  C   UNL     1      35.972 -21.624 -19.436  0.00  0.00    +0.020 C 
ATOM     11  C   UNL     1      35.851 -19.622 -20.812  0.00  0.00    +0.000 C 
ATOM     12  C   UNL     1      36.603 -20.592 -20.129  0.00  0.00    +0.001 C 
ATOM     13  C   UNL     1      33.685 -18.732 -21.475  0.00  0.00    +0.000 C 
ATOM     14  C   UNL     1      36.469 -18.576 -21.516  0.00  0.00    +0.000 C 
ATOM     15  C   UNL     1      34.316 -17.699 -22.168  0.00  0.00    +0.000 C 
ATOM     16  C   UNL     1      35.706 -17.621 -22.189  0.00  0.00    +0.000 C 
ENDBRANCH   4   7
ENDBRANCH   2   4
ENDBRANCH   1   2
BRANCH   1  17
ATOM     17  C   UNL     1      34.666 -24.375 -15.068  0.00  0.00    +0.108 C 
BRANCH  17  18
ATOM     18  O   UNL     1      36.015 -24.320 -14.604  0.00  0.00    -0.385 OA
ATOM     19  H   UNL     1      36.066 -24.697 -13.711  0.00  0.00    +0.210 HD
ENDBRANCH  17  18
BRANCH  17  20
ATOM     20  C   UNL     1      33.715 -24.589 -13.865  0.00  0.00    -0.032 C 
BRANCH  20  21
ATOM     21  N   UNL     1      34.487 -24.685 -12.620  0.00  0.00    +0.384 N 
ATOM     22  H   UNL     1      33.885 -25.030 -11.872  0.00  0.00    -0.089 HD
ATOM     23  H   UNL     1      34.847 -23.764 -12.370  0.00  0.00    -0.089 HD
ATOM     24  H   UNL     1      35.267 -25.330 -12.751  0.00  0.00    -0.089 HD
ENDBRANCH  20  21
BRANCH  20  25
ATOM     25  C   UNL     1      32.667 -23.464 -13.705  0.00  0.00    +0.007 C 
BRANCH  25  26
ATOM     26  C   UNL     1      31.325 -23.795 -14.313  0.00  0.00    -0.024 C 
ATOM     27  C   UNL     1      30.620 -22.804 -14.978  0.00  0.00    -0.004 C 
ATOM     28  C   UNL     1      30.823 -25.080 -14.193  0.00  0.00    -0.004 C 
ATOM     29  C   UNL     1      29.379 -23.110 -15.540  0.00  0.00    -0.000 C 
ATOM     30  C   UNL     1      29.584 -25.385 -14.755  0.00  0.00    -0.000 C 
ATOM     31  C   UNL     1      28.861 -24.400 -15.428  0.00  0.00    -0.000 C 
ENDBRANCH  25  26
ENDBRANCH  20  25
ENDBRANCH  17  20
ENDBRANCH   1  17
TORSDOF 9
ENDMDL
MODEL 5
REMARK VINA RESULT:     -10.1      2.403      8.899
REMARK  Name = 9543486
REMARK  9 active torsions:
REMARK  status: ('A' for Active; 'I' for Inactive)
REMARK    1  A    between atoms: C_1  and  N_2
REMARK    2  A    between atoms: C_1  and  C_17
REMARK    3  A    between atoms: N_2  and  S_4
REMARK    4  A    between atoms: S_4  and  C_7
REMARK    5  A    between atoms: C_17  and  O_18
REMARK    6  A    between atoms: C_17  and  C_20
REMARK    7  A    between atoms: C_20  and  N_21
REMARK    8  A    between atoms: C_20  and  C_25
REMARK    9  A    between atoms: C_25  and  C_26
REMARK                            x       y       z     vdW  Elec       q    Type
REMARK                         _______ _______ _______ _____ _____    ______ ____
ROOT
ATOM      1  C   UNL     1      36.066 -21.328 -20.290  0.00  0.00    +0.118 C 
ENDROOT
BRANCH   1   2
ATOM      2  N   UNL     1      35.268 -21.696 -19.096  0.00  0.00    -0.177 NA
ATOM      3  H   UNL     1      35.895 -22.197 -18.466  0.00  0.00    +0.149 HD
BRANCH   2   4
ATOM      4  S   UNL     1      33.876 -22.653 -19.270  0.00  0.00    +0.060 S 
ATOM      5  O   UNL     1      34.236 -23.925 -19.869  0.00  0.00    -0.153 OA
ATOM      6  O   UNL     1      32.824 -21.844 -19.856  0.00  0.00    -0.153 OA
BRANCH   4   7
ATOM      7  C   UNL     1      33.423 -22.950 -17.588  0.00  0.00    +0.122 C 
ATOM      8  C   UNL     1      32.082 -22.964 -17.242  0.00  0.00    +0.020 C 
ATOM      9  C   UNL     1      31.706 -23.197 -15.910  0.00  0.00    +0.001 C 
ATOM     10  C   UNL     1      34.415 -23.162 -16.650  0.00  0.00    +0.020 C 
ATOM     11  C   UNL     1      32.708 -23.417 -14.936  0.00  0.00    +0.000 C 
ATOM     12  C   UNL     1      34.058 -23.395 -15.323  0.00  0.00    +0.001 C 
ATOM     13  C   UNL     1      30.356 -23.219 -15.523  0.00  0.00    +0.000 C 
ATOM     14  C   UNL     1      32.332 -23.650 -13.603  0.00  0.00    +0.000 C 
ATOM     15  C   UNL     1      29.999 -23.453 -14.195  0.00  0.00    +0.000 C 
ATOM     16  C   UNL     1      30.985 -23.668 -13.236  0.00  0.00    +0.000 C 
ENDBRANCH   4   7
ENDBRANCH   2   4
ENDBRANCH   1   2
BRANCH   1  17
ATOM     17  C   UNL     1      36.203 -19.805 -20.361  0.00  0.00    +0.108 C 
BRANCH  17  18
ATOM     18  O   UNL     1      37.537 -19.471 -20.746  0.00  0.00    -0.385 OA
ATOM     19  H   UNL     1      37.633 -18.506 -20.777  0.00  0.00    +0.210 HD
ENDBRANCH  17  18
BRANCH  17  20
ATOM     20  C   UNL     1      35.203 -19.158 -21.348  0.00  0.00    -0.032 C 
BRANCH  20  21
ATOM     21  N   UNL     1      33.825 -19.383 -20.894  0.00  0.00    +0.384 N 
ATOM     22  H   UNL     1      33.492 -18.558 -20.393  0.00  0.00    -0.089 HD
ATOM     23  H   UNL     1      33.799 -20.192 -20.272  0.00  0.00    -0.089 HD
ATOM     24  H   UNL     1      33.224 -19.556 -21.701  0.00  0.00    -0.089 HD
ENDBRANCH  20  21
BRANCH  20  25
ATOM     25  C   UNL     1      35.416 -17.638 -21.528  0.00  0.00    +0.007 C 
BRANCH  25  26
ATOM     26  C   UNL     1      34.940 -17.111 -22.861  0.00  0.00    -0.024 C 
ATOM     27  C   UNL     1      35.027 -17.923 -23.981  0.00  0.00    -0.004 C 
ATOM     28  C   UNL     1      34.425 -15.828 -22.939  0.00  0.00    -0.004 C 
ATOM     29  C   UNL     1      34.587 -17.437 -25.212  0.00  0.00    -0.000 C 
ATOM     30  C   UNL     1      33.984 -15.343 -24.171  0.00  0.00    -0.000 C 
ATOM     31  C   UNL     1      34.066 -16.147 -25.308  0.00  0.00    -0.000 C 
ENDBRANCH  25  26
ENDBRANCH  20  25
ENDBRANCH  17  20
ENDBRANCH   1  17
TORSDOF 9
ENDMDL
MODEL 6
REMARK VINA RESULT:     -10.1      6.001     10.250
REMARK  Name = 9543486
REMARK  9 active torsions:
REMARK  status: ('A' for Active; 'I' for Inactive)
REMARK    1  A    between atoms: C_1  and  N_2
REMARK    2  A    between atoms: C_1  and  C_17
REMARK    3  A    between atoms: N_2  and  S_4
REMARK    4  A    between atoms: S_4  and  C_7
REMARK    5  A    between atoms: C_17  and  O_18
REMARK    6  A    between atoms: C_17  and  C_20
REMARK    7  A    between atoms: C_20  and  N_21
REMARK    8  A    between atoms: C_20  and  C_25
REMARK    9  A    between atoms: C_25  and  C_26
REMARK                            x       y       z     vdW  Elec       q    Type
REMARK                         _______ _______ _______ _____ _____    ______ ____
ROOT
ATOM      1  C   UNL     1      33.787 -15.699 -22.207  0.00  0.00    +0.118 C 
ENDROOT
BRANCH   1   2
ATOM      2  N   UNL     1      34.933 -16.541 -21.788  0.00  0.00    -0.177 NA
ATOM      3  H   UNL     1      35.769 -15.960 -21.865  0.00  0.00    +0.149 HD
BRANCH   2   4
ATOM      4  S   UNL     1      35.263 -17.989 -22.610  0.00  0.00    +0.060 S 
ATOM      5  O   UNL     1      36.698 -18.161 -22.731  0.00  0.00    -0.153 OA
ATOM      6  O   UNL     1      34.419 -18.060 -23.788  0.00  0.00    -0.153 OA
BRANCH   4   7
ATOM      7  C   UNL     1      34.663 -19.201 -21.471  0.00  0.00    +0.122 C 
ATOM      8  C   UNL     1      35.563 -19.871 -20.661  0.00  0.00    +0.020 C 
ATOM      9  C   UNL     1      35.102 -20.837 -19.752  0.00  0.00    +0.001 C 
ATOM     10  C   UNL     1      33.306 -19.455 -21.411  0.00  0.00    +0.020 C 
ATOM     11  C   UNL     1      33.716 -21.111 -19.676  0.00  0.00    +0.000 C 
ATOM     12  C   UNL     1      32.831 -20.411 -20.513  0.00  0.00    +0.001 C 
ATOM     13  C   UNL     1      35.987 -21.537 -18.915  0.00  0.00    +0.000 C 
ATOM     14  C   UNL     1      33.255 -22.077 -18.767  0.00  0.00    +0.000 C 
ATOM     15  C   UNL     1      35.512 -22.492 -18.017  0.00  0.00    +0.000 C 
ATOM     16  C   UNL     1      34.148 -22.762 -17.943  0.00  0.00    +0.000 C 
ENDBRANCH   4   7
ENDBRANCH   2   4
ENDBRANCH   1   2
BRANCH   1  17
ATOM     17  C   UNL     1      34.212 -14.805 -23.376  0.00  0.00    +0.108 C 
BRANCH  17  18
ATOM     18  O   UNL     1      33.648 -15.314 -24.585  0.00  0.00    -0.385 OA
ATOM     19  H   UNL     1      33.972 -14.793 -25.337  0.00  0.00    +0.210 HD
ENDBRANCH  17  18
BRANCH  17  20
ATOM     20  C   UNL     1      33.785 -13.329 -23.188  0.00  0.00    -0.032 C 
BRANCH  20  21
ATOM     21  N   UNL     1      34.093 -12.555 -24.396  0.00  0.00    +0.384 N 
ATOM     22  H   UNL     1      35.058 -12.224 -24.352  0.00  0.00    -0.089 HD
ATOM     23  H   UNL     1      33.462 -11.756 -24.459  0.00  0.00    -0.089 HD
ATOM     24  H   UNL     1      33.976 -13.147 -25.220  0.00  0.00    -0.089 HD
ENDBRANCH  20  21
BRANCH  20  25
ATOM     25  C   UNL     1      32.282 -13.163 -22.870  0.00  0.00    +0.007 C 
BRANCH  25  26
ATOM     26  C   UNL     1      31.995 -12.099 -21.837  0.00  0.00    -0.024 C 
ATOM     27  C   UNL     1      31.846 -10.782 -22.244  0.00  0.00    -0.004 C 
ATOM     28  C   UNL     1      31.887 -12.458 -20.504  0.00  0.00    -0.004 C 
ATOM     29  C   UNL     1      31.580  -9.799 -21.290  0.00  0.00    -0.000 C 
ATOM     30  C   UNL     1      31.621 -11.475 -19.551  0.00  0.00    -0.000 C 
ATOM     31  C   UNL     1      31.468 -10.145 -19.943  0.00  0.00    -0.000 C 
ENDBRANCH  25  26
ENDBRANCH  20  25
ENDBRANCH  17  20
ENDBRANCH   1  17
TORSDOF 9
ENDMDL
MODEL 7
REMARK VINA RESULT:      -9.9      6.989     11.896
REMARK  Name = 9543486
REMARK  9 active torsions:
REMARK  status: ('A' for Active; 'I' for Inactive)
REMARK    1  A    between atoms: C_1  and  N_2
REMARK    2  A    between atoms: C_1  and  C_17
REMARK    3  A    between atoms: N_2  and  S_4
REMARK    4  A    between atoms: S_4  and  C_7
REMARK    5  A    between atoms: C_17  and  O_18
REMARK    6  A    between atoms: C_17  and  C_20
REMARK    7  A    between atoms: C_20  and  N_21
REMARK    8  A    between atoms: C_20  and  C_25
REMARK    9  A    between atoms: C_25  and  C_26
REMARK                            x       y       z     vdW  Elec       q    Type
REMARK                         _______ _______ _______ _____ _____    ______ ____
ROOT
ATOM      1  C   UNL     1      32.921 -14.197 -21.462  0.00  0.00    +0.118 C 
ENDROOT
BRANCH   1   2
ATOM      2  N   UNL     1      32.974 -15.597 -21.946  0.00  0.00    -0.177 NA
ATOM      3  H   UNL     1      32.879 -16.197 -21.126  0.00  0.00    +0.149 HD
BRANCH   2   4
ATOM      4  S   UNL     1      34.333 -16.145 -22.804  0.00  0.00    +0.060 S 
ATOM      5  O   UNL     1      35.430 -15.216 -22.614  0.00  0.00    -0.153 OA
ATOM      6  O   UNL     1      33.919 -16.521 -24.143  0.00  0.00    -0.153 OA
BRANCH   4   7
ATOM      7  C   UNL     1      34.728 -17.639 -21.947  0.00  0.00    +0.122 C 
ATOM      8  C   UNL     1      33.704 -18.402 -21.411  0.00  0.00    +0.020 C 
ATOM      9  C   UNL     1      34.002 -19.591 -20.727  0.00  0.00    +0.001 C 
ATOM     10  C   UNL     1      36.051 -18.017 -21.827  0.00  0.00    +0.020 C 
ATOM     11  C   UNL     1      35.352 -19.994 -20.595  0.00  0.00    +0.000 C 
ATOM     12  C   UNL     1      36.365 -19.196 -21.151  0.00  0.00    +0.001 C 
ATOM     13  C   UNL     1      32.989 -20.390 -20.170  0.00  0.00    +0.000 C 
ATOM     14  C   UNL     1      35.650 -21.184 -19.909  0.00  0.00    +0.000 C 
ATOM     15  C   UNL     1      33.303 -21.569 -19.494  0.00  0.00    +0.000 C 
ATOM     16  C   UNL     1      34.631 -21.965 -19.363  0.00  0.00    +0.000 C 
ENDBRANCH   4   7
ENDBRANCH   2   4
ENDBRANCH   1   2
BRANCH   1  17
ATOM     17  C   UNL     1      32.314 -13.305 -22.549  0.00  0.00    +0.108 C 
BRANCH  17  18
ATOM     18  O   UNL     1      31.323 -12.459 -21.964  0.00  0.00    -0.385 OA
ATOM     19  H   UNL     1      31.355 -12.544 -20.998  0.00  0.00    +0.210 HD
ENDBRANCH  17  18
BRANCH  17  20
ATOM     20  C   UNL     1      33.373 -12.437 -23.272  0.00  0.00    -0.032 C 
BRANCH  20  21
ATOM     21  N   UNL     1      34.163 -13.264 -24.192  0.00  0.00    +0.384 N 
ATOM     22  H   UNL     1      35.140 -13.266 -23.895  0.00  0.00    -0.089 HD
ATOM     23  H   UNL     1      34.096 -12.884 -25.136  0.00  0.00    -0.089 HD
ATOM     24  H   UNL     1      33.805 -14.220 -24.184  0.00  0.00    -0.089 HD
ENDBRANCH  20  21
BRANCH  20  25
ATOM     25  C   UNL     1      32.761 -11.265 -24.071  0.00  0.00    +0.007 C 
BRANCH  25  26
ATOM     26  C   UNL     1      33.250  -9.907 -23.626  0.00  0.00    -0.024 C 
ATOM     27  C   UNL     1      32.512  -9.191 -22.697  0.00  0.00    -0.004 C 
ATOM     28  C   UNL     1      34.427  -9.402 -24.155  0.00  0.00    -0.004 C 
ATOM     29  C   UNL     1      32.963  -7.936 -22.286  0.00  0.00    -0.000 C 
ATOM     30  C   UNL     1      34.879  -8.148 -23.743  0.00  0.00    -0.000 C 
ATOM     31  C   UNL     1      34.147  -7.415 -22.809  0.00  0.00    -0.000 C 
ENDBRANCH  25  26
ENDBRANCH  20  25
ENDBRANCH  17  20
ENDBRANCH   1  17
TORSDOF 9
ENDMDL
MODEL 8
REMARK VINA RESULT:      -9.9      5.117     10.238
REMARK  Name = 9543486
REMARK  9 active torsions:
REMARK  status: ('A' for Active; 'I' for Inactive)
REMARK    1  A    between atoms: C_1  and  N_2
REMARK    2  A    between atoms: C_1  and  C_17
REMARK    3  A    between atoms: N_2  and  S_4
REMARK    4  A    between atoms: S_4  and  C_7
REMARK    5  A    between atoms: C_17  and  O_18
REMARK    6  A    between atoms: C_17  and  C_20
REMARK    7  A    between atoms: C_20  and  N_21
REMARK    8  A    between atoms: C_20  and  C_25
REMARK    9  A    between atoms: C_25  and  C_26
REMARK                            x       y       z     vdW  Elec       q    Type
REMARK                         _______ _______ _______ _____ _____    ______ ____
ROOT
ATOM      1  C   UNL     1      34.282 -16.153 -21.558  0.00  0.00    +0.118 C 
ENDROOT
BRANCH   1   2
ATOM      2  N   UNL     1      34.192 -17.176 -22.627  0.00  0.00    -0.177 NA
ATOM      3  H   UNL     1      33.267 -17.601 -22.552  0.00  0.00    +0.149 HD
BRANCH   2   4
ATOM      4  S   UNL     1      35.316 -18.448 -22.677  0.00  0.00    +0.060 S 
ATOM      5  O   UNL     1      36.608 -17.969 -22.223  0.00  0.00    -0.153 OA
ATOM      6  O   UNL     1      35.198 -19.125 -23.955  0.00  0.00    -0.153 OA
BRANCH   4   7
ATOM      7  C   UNL     1      34.679 -19.548 -21.449  0.00  0.00    +0.122 C 
ATOM      8  C   UNL     1      35.560 -20.193 -20.598  0.00  0.00    +0.020 C 
ATOM      9  C   UNL     1      35.070 -21.070 -19.617  0.00  0.00    +0.001 C 
ATOM     10  C   UNL     1      33.314 -19.743 -21.362  0.00  0.00    +0.020 C 
ATOM     11  C   UNL     1      33.674 -21.282 -19.513  0.00  0.00    +0.000 C 
ATOM     12  C   UNL     1      32.810 -20.611 -20.394  0.00  0.00    +0.001 C 
ATOM     13  C   UNL     1      35.934 -21.741 -18.737  0.00  0.00    +0.000 C 
ATOM     14  C   UNL     1      33.184 -22.160 -18.533  0.00  0.00    +0.000 C 
ATOM     15  C   UNL     1      35.430 -22.609 -17.768  0.00  0.00    +0.000 C 
ATOM     16  C   UNL     1      34.057 -22.819 -17.666  0.00  0.00    +0.000 C 
ENDBRANCH   4   7
ENDBRANCH   2   4
ENDBRANCH   1   2
BRANCH   1  17
ATOM     17  C   UNL     1      32.895 -15.552 -21.312  0.00  0.00    +0.108 C 
BRANCH  17  18
ATOM     18  O   UNL     1      32.739 -15.284 -19.918  0.00  0.00    -0.385 OA
ATOM     19  H   UNL     1      33.159 -14.437 -19.702  0.00  0.00    +0.210 HD
ENDBRANCH  17  18
BRANCH  17  20
ATOM     20  C   UNL     1      32.654 -14.252 -22.117  0.00  0.00    -0.032 C 
BRANCH  20  21
ATOM     21  N   UNL     1      32.214 -13.175 -21.221  0.00  0.00    +0.384 N 
ATOM     22  H   UNL     1      33.025 -12.639 -20.910  0.00  0.00    -0.089 HD
ATOM     23  H   UNL     1      31.742 -13.577 -20.411  0.00  0.00    -0.089 HD
ATOM     24  H   UNL     1      31.571 -12.559 -21.719  0.00  0.00    -0.089 HD
ENDBRANCH  20  21
BRANCH  20  25
ATOM     25  C   UNL     1      33.904 -13.768 -22.887  0.00  0.00    +0.007 C 
BRANCH  25  26
ATOM     26  C   UNL     1      33.669 -13.577 -24.366  0.00  0.00    -0.024 C 
ATOM     27  C   UNL     1      33.272 -14.659 -25.135  0.00  0.00    -0.004 C 
ATOM     28  C   UNL     1      33.856 -12.324 -24.927  0.00  0.00    -0.004 C 
ATOM     29  C   UNL     1      33.055 -14.483 -26.502  0.00  0.00    -0.000 C 
ATOM     30  C   UNL     1      33.638 -12.148 -26.293  0.00  0.00    -0.000 C 
ATOM     31  C   UNL     1      33.238 -13.227 -27.082  0.00  0.00    -0.000 C 
ENDBRANCH  25  26
ENDBRANCH  20  25
ENDBRANCH  17  20
ENDBRANCH   1  17
TORSDOF 9
ENDMDL
MODEL 9
REMARK VINA RESULT:      -9.8      2.482      4.743
REMARK  Name = 9543486
REMARK  9 active torsions:
REMARK  status: ('A' for Active; 'I' for Inactive)
REMARK    1  A    between atoms: C_1  and  N_2
REMARK    2  A    between atoms: C_1  and  C_17
REMARK    3  A    between atoms: N_2  and  S_4
REMARK    4  A    between atoms: S_4  and  C_7
REMARK    5  A    between atoms: C_17  and  O_18
REMARK    6  A    between atoms: C_17  and  C_20
REMARK    7  A    between atoms: C_20  and  N_21
REMARK    8  A    between atoms: C_20  and  C_25
REMARK    9  A    between atoms: C_25  and  C_26
REMARK                            x       y       z     vdW  Elec       q    Type
REMARK                         _______ _______ _______ _____ _____    ______ ____
ROOT
ATOM      1  C   UNL     1      34.221 -23.957 -15.876  0.00  0.00    +0.118 C 
ENDROOT
BRANCH   1   2
ATOM      2  N   UNL     1      34.690 -23.150 -17.029  0.00  0.00    -0.177 NA
ATOM      3  H   UNL     1      34.867 -22.209 -16.677  0.00  0.00    +0.149 HD
BRANCH   2   4
ATOM      4  S   UNL     1      33.706 -22.987 -18.402  0.00  0.00    +0.060 S 
ATOM      5  O   UNL     1      32.411 -22.463 -18.010  0.00  0.00    -0.153 OA
ATOM      6  O   UNL     1      33.792 -24.205 -19.186  0.00  0.00    -0.153 OA
BRANCH   4   7
ATOM      7  C   UNL     1      34.551 -21.728 -19.310  0.00  0.00    +0.122 C 
ATOM      8  C   UNL     1      33.815 -20.826 -20.060  0.00  0.00    +0.020 C 
ATOM      9  C   UNL     1      34.472 -19.821 -20.787  0.00  0.00    +0.001 C 
ATOM     10  C   UNL     1      35.930 -21.669 -19.255  0.00  0.00    +0.020 C 
ATOM     11  C   UNL     1      35.884 -19.745 -20.743  0.00  0.00    +0.000 C 
ATOM     12  C   UNL     1      36.599 -20.677 -19.972  0.00  0.00    +0.001 C 
ATOM     13  C   UNL     1      33.758 -18.889 -21.558  0.00  0.00    +0.000 C 
ATOM     14  C   UNL     1      36.541 -18.739 -21.472  0.00  0.00    +0.000 C 
ATOM     15  C   UNL     1      34.427 -17.896 -22.275  0.00  0.00    +0.000 C 
ATOM     16  C   UNL     1      35.816 -17.821 -22.232  0.00  0.00    +0.000 C 
ENDBRANCH   4   7
ENDBRANCH   2   4
ENDBRANCH   1   2
BRANCH   1  17
ATOM     17  C   UNL     1      34.315 -23.119 -14.597  0.00  0.00    +0.108 C 
BRANCH  17  18
ATOM     18  O   UNL     1      33.062 -23.166 -13.912  0.00  0.00    -0.385 OA
ATOM     19  H   UNL     1      32.801 -24.091 -13.779  0.00  0.00    +0.210 HD
ENDBRANCH  17  18
BRANCH  17  20
ATOM     20  C   UNL     1      35.441 -23.596 -13.649  0.00  0.00    -0.032 C 
BRANCH  20  21
ATOM     21  N   UNL     1      34.966 -23.598 -12.260  0.00  0.00    +0.384 N 
ATOM     22  H   UNL     1      34.142 -24.194 -12.182  0.00  0.00    -0.089 HD
ATOM     23  H   UNL     1      34.724 -22.646 -11.981  0.00  0.00    -0.089 HD
ATOM     24  H   UNL     1      35.701 -23.955 -11.648  0.00  0.00    -0.089 HD
ENDBRANCH  20  21
BRANCH  20  25
ATOM     25  C   UNL     1      35.968 -25.009 -13.987  0.00  0.00    +0.007 C 
BRANCH  25  26
ATOM     26  C   UNL     1      37.454 -25.056 -14.248  0.00  0.00    -0.024 C 
ATOM     27  C   UNL     1      38.250 -25.898 -13.487  0.00  0.00    -0.004 C 
ATOM     28  C   UNL     1      37.995 -24.257 -15.242  0.00  0.00    -0.004 C 
ATOM     29  C   UNL     1      39.624 -25.941 -13.727  0.00  0.00    -0.000 C 
ATOM     30  C   UNL     1      39.369 -24.301 -15.482  0.00  0.00    -0.000 C 
ATOM     31  C   UNL     1      40.183 -25.143 -14.725  0.00  0.00    -0.000 C 
ENDBRANCH  25  26
ENDBRANCH  20  25
ENDBRANCH  17  20
ENDBRANCH   1  17
TORSDOF 9
ENDMDL
