MODEL 1
REMARK VINA RESULT:      -9.3      0.000      0.000
REMARK  Name = 25273623
REMARK  3 active torsions:
REMARK  status: ('A' for Active; 'I' for Inactive)
REMARK    1  A    between atoms: N_3  and  C_25
REMARK    2  A    between atoms: C_4  and  N_14
REMARK    3  A    between atoms: C_12  and  C_24
REMARK                            x       y       z     vdW  Elec       q    Type
REMARK                         _______ _______ _______ _____ _____    ______ ____
ROOT
ATOM      1  F   UNL     1      30.866 -10.156 -20.370  0.00  0.00    -0.203 F 
ATOM      2  O   UNL     1      32.304 -14.595 -22.266  0.00  0.00    -0.286 OA
ATOM      3  N   UNL     1      33.746 -11.805 -24.865  0.00  0.00    -0.287 N 
ATOM      4  C   UNL     1      32.054  -9.591 -22.346  0.00  0.00    +0.077 C 
ATOM      5  C   UNL     1      32.775  -9.995 -23.473  0.00  0.00    +0.032 C 
ATOM      6  C   UNL     1      33.015 -11.354 -23.728  0.00  0.00    +0.056 C 
ATOM      7  C   UNL     1      31.558 -10.537 -21.453  0.00  0.00    +0.153 C 
ATOM      8  C   UNL     1      32.504 -12.298 -22.810  0.00  0.00    +0.055 C 
ATOM      9  C   UNL     1      31.781 -11.893 -21.682  0.00  0.00    +0.035 C 
ATOM     10  C   UNL     1      33.946 -13.158 -25.054  0.00  0.00    +0.075 C 
ATOM     11  C   UNL     1      32.733 -13.750 -23.040  0.00  0.00    +0.204 C 
ATOM     12  C   UNL     1      33.505 -14.129 -24.249  0.00  0.00    +0.133 C 
ENDROOT
BRANCH   4  14
ATOM     13  N   UNL     1      32.338  -6.287 -24.008  0.00  0.00    +0.389 N 
ATOM     14  N   UNL     1      31.828  -8.217 -22.114  0.00  0.00    -0.312 N 
ATOM     15  C   UNL     1      32.378  -6.040 -22.489  0.00  0.00    -0.036 C 
ATOM     16  C   UNL     1      30.739  -7.516 -22.751  0.00  0.00    +0.050 C 
ATOM     17  C   UNL     1      30.906  -6.132 -22.114  0.00  0.00    -0.002 C 
ATOM     18  C   UNL     1      31.144  -7.233 -24.200  0.00  0.00    -0.057 C 
ATOM     19  C   UNL     1      32.939  -7.332 -21.859  0.00  0.00    +0.070 C 
ATOM     20  C   UNL     1      32.268  -5.039 -24.828  0.00  0.00    -0.100 C 
ATOM     21  H   UNL     1      33.207  -6.699 -24.348  0.00  0.00    -0.080 HD
ENDBRANCH   4  14
BRANCH  12  24
ATOM     22  O   UNL     1      33.439 -15.927 -25.757  0.00  0.00    -0.240 OA
ATOM     23  O   UNL     1      34.405 -16.228 -23.705  0.00  0.00    -0.240 OA
ATOM     24  C   UNL     1      33.812 -15.565 -24.604  0.00  0.00    +0.392 C 
ENDBRANCH  12  24
BRANCH   3  25
ATOM     25  C   UNL     1      34.303 -10.858 -25.856  0.00  0.00    +0.077 C 
ATOM     26  C   UNL     1      35.373 -11.277 -26.821  0.00  0.00    +0.022 C 
ATOM     27  C   UNL     1      35.695 -10.314 -25.717  0.00  0.00    +0.022 C 
ENDBRANCH   3  25
TORSDOF 3
ENDMDL
MODEL 2
REMARK VINA RESULT:      -8.8      9.011     12.208
REMARK  Name = 25273623
REMARK  3 active torsions:
REMARK  status: ('A' for Active; 'I' for Inactive)
REMARK    1  A    between atoms: N_3  and  C_25
REMARK    2  A    between atoms: C_4  and  N_14
REMARK    3  A    between atoms: C_12  and  C_24
REMARK                            x       y       z     vdW  Elec       q    Type
REMARK                         _______ _______ _______ _____ _____    ______ ____
ROOT
ATOM      1  F   UNL     1      32.533 -19.953 -21.455  0.00  0.00    -0.203 F 
ATOM      2  O   UNL     1      31.366 -22.714 -17.407  0.00  0.00    -0.286 OA
ATOM      3  N   UNL     1      35.434 -22.441 -17.379  0.00  0.00    -0.287 N 
ATOM      4  C   UNL     1      34.631 -20.458 -20.467  0.00  0.00    +0.077 C 
ATOM      5  C   UNL     1      35.365 -21.077 -19.451  0.00  0.00    +0.032 C 
ATOM      6  C   UNL     1      34.722 -21.797 -18.431  0.00  0.00    +0.056 C 
ATOM      7  C   UNL     1      33.242 -20.546 -20.483  0.00  0.00    +0.153 C 
ATOM      8  C   UNL     1      33.312 -21.874 -18.467  0.00  0.00    +0.055 C 
ATOM      9  C   UNL     1      32.578 -21.253 -19.484  0.00  0.00    +0.035 C 
ATOM     10  C   UNL     1      34.737 -23.132 -16.408  0.00  0.00    +0.075 C 
ATOM     11  C   UNL     1      32.587 -22.626 -17.407  0.00  0.00    +0.204 C 
ATOM     12  C   UNL     1      33.409 -23.265 -16.350  0.00  0.00    +0.133 C 
ENDROOT
BRANCH   4  14
ATOM     13  N   UNL     1      34.477 -17.262 -22.343  0.00  0.00    +0.389 N 
ATOM     14  N   UNL     1      35.304 -19.740 -21.479  0.00  0.00    -0.312 N 
ATOM     15  C   UNL     1      35.254 -18.266 -23.213  0.00  0.00    -0.036 C 
ATOM     16  C   UNL     1      36.085 -18.565 -21.175  0.00  0.00    +0.050 C 
ATOM     17  C   UNL     1      36.633 -18.242 -22.569  0.00  0.00    -0.002 C 
ATOM     18  C   UNL     1      35.117 -17.399 -20.953  0.00  0.00    -0.057 C 
ATOM     19  C   UNL     1      34.747 -19.666 -22.809  0.00  0.00    +0.070 C 
ATOM     20  C   UNL     1      34.473 -15.866 -22.878  0.00  0.00    -0.100 C 
ATOM     21  H   UNL     1      33.479 -17.470 -22.323  0.00  0.00    -0.080 HD
ENDBRANCH   4  14
BRANCH  12  24
ATOM     22  O   UNL     1      33.637 -24.579 -14.418  0.00  0.00    -0.240 OA
ATOM     23  O   UNL     1      31.541 -24.102 -15.200  0.00  0.00    -0.240 OA
ATOM     24  C   UNL     1      32.805 -24.058 -15.215  0.00  0.00    +0.392 C 
ENDBRANCH  12  24
BRANCH   3  25
ATOM     25  C   UNL     1      36.910 -22.391 -17.296  0.00  0.00    +0.077 C 
ATOM     26  C   UNL     1      37.633 -22.745 -16.030  0.00  0.00    +0.022 C 
ATOM     27  C   UNL     1      37.610 -21.323 -16.508  0.00  0.00    +0.022 C 
ENDBRANCH   3  25
TORSDOF 3
ENDMDL
MODEL 3
REMARK VINA RESULT:      -8.6      3.577      7.756
REMARK  Name = 25273623
REMARK  3 active torsions:
REMARK  status: ('A' for Active; 'I' for Inactive)
REMARK    1  A    between atoms: N_3  and  C_25
REMARK    2  A    between atoms: C_4  and  N_14
REMARK    3  A    between atoms: C_12  and  C_24
REMARK                            x       y       z     vdW  Elec       q    Type
REMARK                         _______ _______ _______ _____ _____    ______ ____
ROOT
ATOM      1  F   UNL     1      32.335 -16.600 -20.485  0.00  0.00    -0.203 F 
ATOM      2  O   UNL     1      31.272 -11.677 -20.389  0.00  0.00    -0.286 OA
ATOM      3  N   UNL     1      33.464 -12.232 -23.782  0.00  0.00    -0.287 N 
ATOM      4  C   UNL     1      33.362 -15.741 -22.445  0.00  0.00    +0.077 C 
ATOM      5  C   UNL     1      33.649 -14.654 -23.276  0.00  0.00    +0.032 C 
ATOM      6  C   UNL     1      33.193 -13.364 -22.961  0.00  0.00    +0.056 C 
ATOM      7  C   UNL     1      32.614 -15.560 -21.285  0.00  0.00    +0.153 C 
ATOM      8  C   UNL     1      32.435 -13.203 -21.780  0.00  0.00    +0.055 C 
ATOM      9  C   UNL     1      32.148 -14.292 -20.949  0.00  0.00    +0.035 C 
ATOM     10  C   UNL     1      32.983 -10.991 -23.413  0.00  0.00    +0.075 C 
ATOM     11  C   UNL     1      31.931 -11.854 -21.406  0.00  0.00    +0.204 C 
ATOM     12  C   UNL     1      32.260 -10.732 -22.319  0.00  0.00    +0.133 C 
ENDROOT
BRANCH   4  14
ATOM     13  N   UNL     1      36.432 -17.821 -22.349  0.00  0.00    +0.389 N 
ATOM     14  N   UNL     1      33.834 -17.027 -22.787  0.00  0.00    -0.312 N 
ATOM     15  C   UNL     1      35.530 -18.388 -23.460  0.00  0.00    -0.036 C 
ATOM     16  C   UNL     1      34.134 -18.011 -21.774  0.00  0.00    +0.050 C 
ATOM     17  C   UNL     1      34.517 -19.199 -22.663  0.00  0.00    -0.002 C 
ATOM     18  C   UNL     1      35.486 -17.650 -21.151  0.00  0.00    -0.057 C 
ATOM     19  C   UNL     1      34.664 -17.210 -23.953  0.00  0.00    +0.070 C 
ATOM     20  C   UNL     1      37.640 -18.653 -22.059  0.00  0.00    -0.100 C 
ATOM     21  H   UNL     1      36.861 -16.937 -22.623  0.00  0.00    -0.080 HD
ENDBRANCH   4  14
BRANCH  12  24
ATOM     22  O   UNL     1      32.207  -8.811 -20.971  0.00  0.00    -0.240 OA
ATOM     23  O   UNL     1      31.098  -8.800 -22.971  0.00  0.00    -0.240 OA
ATOM     24  C   UNL     1      31.811  -9.312 -22.062  0.00  0.00    +0.392 C 
ENDBRANCH  12  24
BRANCH   3  25
ATOM     25  C   UNL     1      34.252 -12.347 -25.029  0.00  0.00    +0.077 C 
ATOM     26  C   UNL     1      34.525 -11.151 -25.893  0.00  0.00    +0.022 C 
ATOM     27  C   UNL     1      33.600 -12.230 -26.376  0.00  0.00    +0.022 C 
ENDBRANCH   3  25
TORSDOF 3
ENDMDL
MODEL 4
REMARK VINA RESULT:      -8.5     12.261     15.752
REMARK  Name = 25273623
REMARK  3 active torsions:
REMARK  status: ('A' for Active; 'I' for Inactive)
REMARK    1  A    between atoms: N_3  and  C_25
REMARK    2  A    between atoms: C_4  and  N_14
REMARK    3  A    between atoms: C_12  and  C_24
REMARK                            x       y       z     vdW  Elec       q    Type
REMARK                         _______ _______ _______ _____ _____    ______ ____
ROOT
ATOM      1  F   UNL     1      38.846 -22.895 -15.875  0.00  0.00    -0.203 F 
ATOM      2  O   UNL     1      36.300 -20.624 -19.581  0.00  0.00    -0.286 OA
ATOM      3  N   UNL     1      33.510 -22.772 -17.525  0.00  0.00    -0.287 N 
ATOM      4  C   UNL     1      36.604 -23.606 -15.564  0.00  0.00    +0.077 C 
ATOM      5  C   UNL     1      35.266 -23.581 -15.970  0.00  0.00    +0.032 C 
ATOM      6  C   UNL     1      34.863 -22.824 -17.081  0.00  0.00    +0.056 C 
ATOM      7  C   UNL     1      37.562 -22.876 -16.260  0.00  0.00    +0.153 C 
ATOM      8  C   UNL     1      35.851 -22.090 -17.773  0.00  0.00    +0.055 C 
ATOM      9  C   UNL     1      37.190 -22.115 -17.366  0.00  0.00    +0.035 C 
ATOM     10  C   UNL     1      33.182 -22.005 -18.626  0.00  0.00    +0.075 C 
ATOM     11  C   UNL     1      35.470 -21.273 -18.957  0.00  0.00    +0.204 C 
ATOM     12  C   UNL     1      34.039 -21.277 -19.348  0.00  0.00    +0.133 C 
ENDROOT
BRANCH   4  14
ATOM     13  N   UNL     1      36.087 -23.831 -11.898  0.00  0.00    +0.389 N 
ATOM     14  N   UNL     1      36.981 -24.376 -14.443  0.00  0.00    -0.312 N 
ATOM     15  C   UNL     1      37.425 -24.525 -12.215  0.00  0.00    -0.036 C 
ATOM     16  C   UNL     1      36.048 -25.265 -13.793  0.00  0.00    +0.050 C 
ATOM     17  C   UNL     1      36.964 -25.881 -12.730  0.00  0.00    -0.002 C 
ATOM     18  C   UNL     1      35.111 -24.416 -12.929  0.00  0.00    -0.057 C 
ATOM     19  C   UNL     1      37.953 -23.865 -13.506  0.00  0.00    +0.070 C 
ATOM     20  C   UNL     1      35.642 -23.984 -10.479  0.00  0.00    -0.100 C 
ATOM     21  H   UNL     1      36.159 -22.817 -11.975  0.00  0.00    -0.080 HD
ENDBRANCH   4  14
BRANCH  12  24
ATOM     22  O   UNL     1      32.276 -20.235 -20.495  0.00  0.00    -0.240 OA
ATOM     23  O   UNL     1      34.375 -20.190 -21.402  0.00  0.00    -0.240 OA
ATOM     24  C   UNL     1      33.513 -20.493 -20.528  0.00  0.00    +0.392 C 
ENDBRANCH  12  24
BRANCH   3  25
ATOM     25  C   UNL     1      32.437 -23.522 -16.836  0.00  0.00    +0.077 C 
ATOM     26  C   UNL     1      31.084 -22.915 -16.605  0.00  0.00    +0.022 C 
ATOM     27  C   UNL     1      32.004 -23.160 -15.445  0.00  0.00    +0.022 C 
ENDBRANCH   3  25
TORSDOF 3
ENDMDL
MODEL 5
REMARK VINA RESULT:      -8.3     10.189     13.453
REMARK  Name = 25273623
REMARK  3 active torsions:
REMARK  status: ('A' for Active; 'I' for Inactive)
REMARK    1  A    between atoms: N_3  and  C_25
REMARK    2  A    between atoms: C_4  and  N_14
REMARK    3  A    between atoms: C_12  and  C_24
REMARK                            x       y       z     vdW  Elec       q    Type
REMARK                         _______ _______ _______ _____ _____    ______ ____
ROOT
ATOM      1  F   UNL     1      37.347 -20.615 -19.995  0.00  0.00    -0.203 F 
ATOM      2  O   UNL     1      37.708 -23.010 -15.578  0.00  0.00    -0.286 OA
ATOM      3  N   UNL     1      33.744 -23.108 -16.527  0.00  0.00    -0.287 N 
ATOM      4  C   UNL     1      35.116 -21.247 -19.488  0.00  0.00    +0.077 C 
ATOM      5  C   UNL     1      34.208 -21.868 -18.626  0.00  0.00    +0.032 C 
ATOM      6  C   UNL     1      34.639 -22.465 -17.430  0.00  0.00    +0.056 C 
ATOM      7  C   UNL     1      36.471 -21.209 -19.171  0.00  0.00    +0.153 C 
ATOM      8  C   UNL     1      36.017 -22.415 -17.128  0.00  0.00    +0.055 C 
ATOM      9  C   UNL     1      36.926 -21.793 -17.992  0.00  0.00    +0.035 C 
ATOM     10  C   UNL     1      34.237 -23.675 -15.368  0.00  0.00    +0.075 C 
ATOM     11  C   UNL     1      36.520 -23.034 -15.872  0.00  0.00    +0.204 C 
ATOM     12  C   UNL     1      35.519 -23.682 -14.990  0.00  0.00    +0.133 C 
ENDROOT
BRANCH   4  14
ATOM     13  N   UNL     1      34.151 -17.960 -20.910  0.00  0.00    +0.389 N 
ATOM     14  N   UNL     1      34.655 -20.656 -20.684  0.00  0.00    -0.312 N 
ATOM     15  C   UNL     1      33.447 -19.045 -21.746  0.00  0.00    -0.036 C 
ATOM     16  C   UNL     1      35.513 -19.819 -21.488  0.00  0.00    +0.050 C 
ATOM     17  C   UNL     1      34.569 -19.519 -22.659  0.00  0.00    -0.002 C 
ATOM     18  C   UNL     1      35.604 -18.448 -20.814  0.00  0.00    -0.057 C 
ATOM     19  C   UNL     1      33.273 -20.260 -20.811  0.00  0.00    +0.070 C 
ATOM     20  C   UNL     1      34.006 -16.577 -21.459  0.00  0.00    -0.100 C 
ATOM     21  H   UNL     1      33.724 -17.854 -19.990  0.00  0.00    -0.080 HD
ENDBRANCH   4  14
BRANCH  12  24
ATOM     22  O   UNL     1      36.457 -25.473 -13.797  0.00  0.00    -0.240 OA
ATOM     23  O   UNL     1      35.587 -23.700 -12.644  0.00  0.00    -0.240 OA
ATOM     24  C   UNL     1      35.889 -24.349 -13.686  0.00  0.00    +0.392 C 
ENDBRANCH  12  24
BRANCH   3  25
ATOM     25  C   UNL     1      32.292 -23.187 -16.796  0.00  0.00    +0.077 C 
ATOM     26  C   UNL     1      31.284 -22.707 -15.792  0.00  0.00    +0.022 C 
ATOM     27  C   UNL     1      31.419 -24.174 -16.077  0.00  0.00    +0.022 C 
ENDBRANCH   3  25
TORSDOF 3
ENDMDL
MODEL 6
REMARK VINA RESULT:      -8.3      2.175      4.024
REMARK  Name = 25273623
REMARK  3 active torsions:
REMARK  status: ('A' for Active; 'I' for Inactive)
REMARK    1  A    between atoms: N_3  and  C_25
REMARK    2  A    between atoms: C_4  and  N_14
REMARK    3  A    between atoms: C_12  and  C_24
REMARK                            x       y       z     vdW  Elec       q    Type
REMARK                         _______ _______ _______ _____ _____    ______ ____
ROOT
ATOM      1  F   UNL     1      34.151  -9.840 -25.573  0.00  0.00    -0.203 F 
ATOM      2  O   UNL     1      34.219 -14.334 -23.300  0.00  0.00    -0.286 OA
ATOM      3  N   UNL     1      31.829 -11.992 -20.971  0.00  0.00    -0.287 N 
ATOM      4  C   UNL     1      32.771  -9.550 -23.665  0.00  0.00    +0.077 C 
ATOM      5  C   UNL     1      32.186 -10.081 -22.511  0.00  0.00    +0.032 C 
ATOM      6  C   UNL     1      32.407 -11.416 -22.137  0.00  0.00    +0.056 C 
ATOM      7  C   UNL     1      33.588 -10.343 -24.466  0.00  0.00    +0.153 C 
ATOM      8  C   UNL     1      33.239 -12.203 -22.964  0.00  0.00    +0.055 C 
ATOM      9  C   UNL     1      33.825 -11.671 -24.119  0.00  0.00    +0.035 C 
ATOM     10  C   UNL     1      32.088 -13.313 -20.662  0.00  0.00    +0.075 C 
ATOM     11  C   UNL     1      33.503 -13.623 -22.607  0.00  0.00    +0.204 C 
ATOM     12  C   UNL     1      32.859 -14.141 -21.375  0.00  0.00    +0.133 C 
ENDROOT
BRANCH   4  14
ATOM     13  N   UNL     1      31.138  -6.471 -22.395  0.00  0.00    +0.389 N 
ATOM     14  N   UNL     1      32.530  -8.204 -24.017  0.00  0.00    -0.312 N 
ATOM     15  C   UNL     1      31.210  -6.351 -23.929  0.00  0.00    -0.036 C 
ATOM     16  C   UNL     1      33.213  -7.120 -23.353  0.00  0.00    +0.050 C 
ATOM     17  C   UNL     1      32.657  -5.932 -24.145  0.00  0.00    -0.002 C 
ATOM     18  C   UNL     1      32.552  -6.910 -21.988  0.00  0.00    -0.057 C 
ATOM     19  C   UNL     1      31.222  -7.796 -24.471  0.00  0.00    +0.070 C 
ATOM     20  C   UNL     1      30.661  -5.232 -21.708  0.00  0.00    -0.100 C 
ATOM     21  H   UNL     1      30.431  -7.145 -22.101  0.00  0.00    -0.080 HD
ENDBRANCH   4  14
BRANCH  12  24
ATOM     22  O   UNL     1      34.227 -15.887 -20.608  0.00  0.00    -0.240 OA
ATOM     23  O   UNL     1      31.981 -16.251 -20.839  0.00  0.00    -0.240 OA
ATOM     24  C   UNL     1      33.040 -15.562 -20.895  0.00  0.00    +0.392 C 
ENDBRANCH  12  24
BRANCH   3  25
ATOM     25  C   UNL     1      30.950 -11.212 -20.072  0.00  0.00    +0.077 C 
ATOM     26  C   UNL     1      31.367  -9.869 -19.546  0.00  0.00    +0.022 C 
ATOM     27  C   UNL     1      31.277 -11.044 -18.616  0.00  0.00    +0.022 C 
ENDBRANCH   3  25
TORSDOF 3
ENDMDL
MODEL 7
REMARK VINA RESULT:      -8.1      3.327      7.344
REMARK  Name = 25273623
REMARK  3 active torsions:
REMARK  status: ('A' for Active; 'I' for Inactive)
REMARK    1  A    between atoms: N_3  and  C_25
REMARK    2  A    between atoms: C_4  and  N_14
REMARK    3  A    between atoms: C_12  and  C_24
REMARK                            x       y       z     vdW  Elec       q    Type
REMARK                         _______ _______ _______ _____ _____    ______ ____
ROOT
ATOM      1  F   UNL     1      32.525 -15.414 -19.628  0.00  0.00    -0.203 F 
ATOM      2  O   UNL     1      30.916 -10.746 -20.627  0.00  0.00    -0.286 OA
ATOM      3  N   UNL     1      33.452 -11.680 -23.679  0.00  0.00    -0.287 N 
ATOM      4  C   UNL     1      33.622 -14.838 -21.653  0.00  0.00    +0.077 C 
ATOM      5  C   UNL     1      33.859 -13.909 -22.670  0.00  0.00    +0.032 C 
ATOM      6  C   UNL     1      33.236 -12.651 -22.661  0.00  0.00    +0.056 C 
ATOM      7  C   UNL     1      32.757 -14.527 -20.607  0.00  0.00    +0.153 C 
ATOM      8  C   UNL     1      32.362 -12.357 -21.591  0.00  0.00    +0.055 C 
ATOM      9  C   UNL     1      32.125 -13.287 -20.572  0.00  0.00    +0.035 C 
ATOM     10  C   UNL     1      32.805 -10.462 -23.608  0.00  0.00    +0.075 C 
ATOM     11  C   UNL     1      31.679 -11.036 -21.539  0.00  0.00    +0.204 C 
ATOM     12  C   UNL     1      31.962 -10.085 -22.642  0.00  0.00    +0.133 C 
ENDROOT
BRANCH   4  14
ATOM     13  N   UNL     1      34.074 -17.798 -23.842  0.00  0.00    +0.389 N 
ATOM     14  N   UNL     1      34.262 -16.095 -21.688  0.00  0.00    -0.312 N 
ATOM     15  C   UNL     1      34.315 -18.260 -22.393  0.00  0.00    -0.036 C 
ATOM     16  C   UNL     1      35.409 -16.331 -22.532  0.00  0.00    +0.050 C 
ATOM     17  C   UNL     1      35.735 -17.776 -22.138  0.00  0.00    -0.002 C 
ATOM     18  C   UNL     1      34.908 -16.515 -23.968  0.00  0.00    -0.057 C 
ATOM     19  C   UNL     1      33.497 -17.304 -21.498  0.00  0.00    +0.070 C 
ATOM     20  C   UNL     1      34.387 -18.834 -24.872  0.00  0.00    -0.100 C 
ATOM     21  H   UNL     1      33.085 -17.628 -24.026  0.00  0.00    -0.080 HD
ENDBRANCH   4  14
BRANCH  12  24
ATOM     22  O   UNL     1      31.666  -7.919 -21.786  0.00  0.00    -0.240 OA
ATOM     23  O   UNL     1      30.564  -8.523 -23.697  0.00  0.00    -0.240 OA
ATOM     24  C   UNL     1      31.337  -8.711 -22.715  0.00  0.00    +0.392 C 
ENDBRANCH  12  24
BRANCH   3  25
ATOM     25  C   UNL     1      34.357 -11.938 -24.821  0.00  0.00    +0.077 C 
ATOM     26  C   UNL     1      34.754 -10.843 -25.767  0.00  0.00    +0.022 C 
ATOM     27  C   UNL     1      33.847 -11.944 -26.233  0.00  0.00    +0.022 C 
ENDBRANCH   3  25
TORSDOF 3
ENDMDL
MODEL 8
REMARK VINA RESULT:      -8.0      2.220      3.924
REMARK  Name = 25273623
REMARK  3 active torsions:
REMARK  status: ('A' for Active; 'I' for Inactive)
REMARK    1  A    between atoms: N_3  and  C_25
REMARK    2  A    between atoms: C_4  and  N_14
REMARK    3  A    between atoms: C_12  and  C_24
REMARK                            x       y       z     vdW  Elec       q    Type
REMARK                         _______ _______ _______ _____ _____    ______ ____
ROOT
ATOM      1  F   UNL     1      33.222 -10.388 -25.880  0.00  0.00    -0.203 F 
ATOM      2  O   UNL     1      33.647 -15.340 -26.697  0.00  0.00    -0.286 OA
ATOM      3  N   UNL     1      34.201 -14.866 -22.686  0.00  0.00    -0.287 N 
ATOM      4  C   UNL     1      33.648 -11.300 -23.732  0.00  0.00    +0.077 C 
ATOM      5  C   UNL     1      33.894 -12.415 -22.925  0.00  0.00    +0.032 C 
ATOM      6  C   UNL     1      33.954 -13.706 -23.474  0.00  0.00    +0.056 C 
ATOM      7  C   UNL     1      33.458 -11.454 -25.102  0.00  0.00    +0.153 C 
ATOM      8  C   UNL     1      33.758 -13.839 -24.867  0.00  0.00    +0.055 C 
ATOM      9  C   UNL     1      33.512 -12.722 -25.674  0.00  0.00    +0.035 C 
ATOM     10  C   UNL     1      34.245 -16.106 -23.292  0.00  0.00    +0.075 C 
ATOM     11  C   UNL     1      33.812 -15.187 -25.493  0.00  0.00    +0.204 C 
ATOM     12  C   UNL     1      34.074 -16.339 -24.597  0.00  0.00    +0.133 C 
ENDROOT
BRANCH   4  14
ATOM     13  N   UNL     1      31.889  -8.051 -24.052  0.00  0.00    +0.389 N 
ATOM     14  N   UNL     1      33.593 -10.014 -23.152  0.00  0.00    -0.312 N 
ATOM     15  C   UNL     1      33.234  -7.775 -23.356  0.00  0.00    -0.036 C 
ATOM     16  C   UNL     1      32.469  -9.601 -22.347  0.00  0.00    +0.050 C 
ATOM     17  C   UNL     1      32.944  -8.205 -21.925  0.00  0.00    -0.002 C 
ATOM     18  C   UNL     1      31.314  -9.254 -23.291  0.00  0.00    -0.057 C 
ATOM     19  C   UNL     1      34.195  -8.888 -23.825  0.00  0.00    +0.070 C 
ATOM     20  C   UNL     1      30.976  -6.868 -24.105  0.00  0.00    -0.100 C 
ATOM     21  H   UNL     1      32.010  -8.252 -25.045  0.00  0.00    -0.080 HD
ENDBRANCH   4  14
BRANCH  12  24
ATOM     22  O   UNL     1      35.119 -18.441 -24.640  0.00  0.00    -0.240 OA
ATOM     23  O   UNL     1      33.248 -18.100 -25.912  0.00  0.00    -0.240 OA
ATOM     24  C   UNL     1      34.155 -17.763 -25.098  0.00  0.00    +0.392 C 
ENDBRANCH  12  24
BRANCH   3  25
ATOM     25  C   UNL     1      34.412 -14.781 -21.224  0.00  0.00    +0.077 C 
ATOM     26  C   UNL     1      34.458 -16.013 -20.368  0.00  0.00    +0.022 C 
ATOM     27  C   UNL     1      33.299 -15.065 -20.258  0.00  0.00    +0.022 C 
ENDBRANCH   3  25
TORSDOF 3
ENDMDL
MODEL 9
REMARK VINA RESULT:      -7.6      2.009      3.468
REMARK  Name = 25273623
REMARK  3 active torsions:
REMARK  status: ('A' for Active; 'I' for Inactive)
REMARK    1  A    between atoms: N_3  and  C_25
REMARK    2  A    between atoms: C_4  and  N_14
REMARK    3  A    between atoms: C_12  and  C_24
REMARK                            x       y       z     vdW  Elec       q    Type
REMARK                         _______ _______ _______ _____ _____    ______ ____
ROOT
ATOM      1  F   UNL     1      33.434  -7.008 -24.528  0.00  0.00    -0.203 F 
ATOM      2  O   UNL     1      34.564 -11.872 -25.183  0.00  0.00    -0.286 OA
ATOM      3  N   UNL     1      32.015 -11.785 -22.002  0.00  0.00    -0.287 N 
ATOM      4  C   UNL     1      32.216  -8.125 -22.826  0.00  0.00    +0.077 C 
ATOM      5  C   UNL     1      31.855  -9.316 -22.187  0.00  0.00    +0.032 C 
ATOM      6  C   UNL     1      32.359 -10.551 -22.625  0.00  0.00    +0.056 C 
ATOM      7  C   UNL     1      33.085  -8.146 -23.912  0.00  0.00    +0.153 C 
ATOM      8  C   UNL     1      33.239 -10.550 -23.730  0.00  0.00    +0.055 C 
ATOM      9  C   UNL     1      33.599  -9.358 -24.368  0.00  0.00    +0.035 C 
ATOM     10  C   UNL     1      32.546 -12.964 -22.486  0.00  0.00    +0.075 C 
ATOM     11  C   UNL     1      33.798 -11.835 -24.229  0.00  0.00    +0.204 C 
ATOM     12  C   UNL     1      33.385 -13.072 -23.520  0.00  0.00    +0.133 C 
ENDROOT
BRANCH   4  14
ATOM     13  N   UNL     1      31.669  -4.620 -23.908  0.00  0.00    +0.389 N 
ATOM     14  N   UNL     1      31.694  -6.897 -22.364  0.00  0.00    -0.312 N 
ATOM     15  C   UNL     1      31.718  -4.621 -22.369  0.00  0.00    -0.036 C 
ATOM     16  C   UNL     1      30.448  -6.373 -22.869  0.00  0.00    +0.050 C 
ATOM     17  C   UNL     1      30.323  -5.111 -22.009  0.00  0.00    -0.002 C 
ATOM     18  C   UNL     1      30.714  -5.772 -24.252  0.00  0.00    -0.057 C 
ATOM     19  C   UNL     1      32.585  -5.833 -21.969  0.00  0.00    +0.070 C 
ATOM     20  C   UNL     1      31.282  -3.305 -24.506  0.00  0.00    -0.100 C 
ATOM     21  H   UNL     1      32.594  -4.758 -24.317  0.00  0.00    -0.080 HD
ENDBRANCH   4  14
BRANCH  12  24
ATOM     22  O   UNL     1      33.269 -14.969 -24.899  0.00  0.00    -0.240 OA
ATOM     23  O   UNL     1      34.831 -14.898 -23.229  0.00  0.00    -0.240 OA
ATOM     24  C   UNL     1      33.875 -14.444 -23.921  0.00  0.00    +0.392 C 
ENDBRANCH  12  24
BRANCH   3  25
ATOM     25  C   UNL     1      31.097 -11.841 -20.843  0.00  0.00    +0.077 C 
ATOM     26  C   UNL     1      30.861 -10.639 -19.976  0.00  0.00    +0.022 C 
ATOM     27  C   UNL     1      31.618 -11.817 -19.435  0.00  0.00    +0.022 C 
ENDBRANCH   3  25
TORSDOF 3
ENDMDL
