MODEL 1
REMARK VINA RESULT:      -8.0      0.000      0.000
REMARK  Name = 54767229
REMARK  6 active torsions:
REMARK  status: ('A' for Active; 'I' for Inactive)
REMARK    1  A    between atoms: C_2  and  C_7
REMARK    2  A    between atoms: C_3  and  S_19
REMARK    3  A    between atoms: C_11  and  C_18
REMARK    4  A    between atoms: S_19  and  C_20
REMARK    5  A    between atoms: C_20  and  C_24
REMARK    6  A    between atoms: C_24  and  O_25
REMARK                            x       y       z     vdW  Elec       q    Type
REMARK                         _______ _______ _______ _____ _____    ______ ____
ROOT
ATOM      1  N   UNL     1      32.833 -15.398 -26.355  0.00  0.00    -0.242 NA
ATOM      2  C   UNL     1      33.272 -13.978 -24.449  0.00  0.00    +0.025 C 
ATOM      3  C   UNL     1      34.100 -14.954 -23.903  0.00  0.00    +0.029 C 
ATOM      4  C   UNL     1      32.668 -14.247 -25.666  0.00  0.00    +0.099 C 
ATOM      5  C   UNL     1      34.294 -16.151 -24.583  0.00  0.00    +0.027 C 
ATOM      6  C   UNL     1      33.644 -16.322 -25.794  0.00  0.00    +0.099 C 
ENDROOT
BRANCH   2   7
ATOM      7  C   UNL     1      33.017 -12.701 -23.802  0.00  0.00    +0.002 C 
ATOM      8  C   UNL     1      33.684 -11.523 -24.176  0.00  0.00    +0.001 C 
ATOM      9  C   UNL     1      33.386 -10.315 -23.501  0.00  0.00    +0.010 C 
ATOM     10  C   UNL     1      32.071 -12.689 -22.777  0.00  0.00    +0.001 C 
ATOM     11  C   UNL     1      32.431 -10.321 -22.472  0.00  0.00    +0.068 C 
ATOM     12  C   UNL     1      34.640 -11.517 -25.206  0.00  0.00    +0.000 C 
ATOM     13  C   UNL     1      31.778 -11.501 -22.113  0.00  0.00    +0.010 C 
ATOM     14  C   UNL     1      34.052  -9.136 -23.876  0.00  0.00    +0.001 C 
ATOM     15  C   UNL     1      35.292 -10.337 -25.564  0.00  0.00    +0.000 C 
ATOM     16  C   UNL     1      34.999  -9.150 -24.901  0.00  0.00    +0.000 C 
BRANCH  11  18
ATOM     17  N   UNL     1      31.793  -8.177 -21.156  0.00  0.00    -0.191 NA
ATOM     18  C   UNL     1      32.078  -9.136 -21.745  0.00  0.00    +0.100 C 
ENDBRANCH  11  18
ENDBRANCH   2   7
BRANCH   3  19
ATOM     19  S   UNL     1      34.943 -14.736 -22.338  0.00  0.00    -0.104 S 
BRANCH  19  20
ATOM     20  C   UNL     1      34.085 -15.946 -21.295  0.00  0.00    +0.132 C 
ATOM     21  C   UNL     1      32.594 -15.897 -21.651  0.00  0.00    +0.022 C 
ATOM     22  C   UNL     1      34.282 -15.584 -19.822  0.00  0.00    +0.022 C 
BRANCH  20  24
ATOM     23  O   UNL     1      35.773 -17.547 -22.023  0.00  0.00    -0.249 OA
ATOM     24  C   UNL     1      34.654 -17.336 -21.572  0.00  0.00    +0.322 C 
BRANCH  24  25
ATOM     25  O   UNL     1      33.784 -18.343 -21.301  0.00  0.00    -0.480 OA
ATOM     26  H   UNL     1      33.933 -18.908 -20.568  0.00  0.00    +0.295 HD
ENDBRANCH  24  25
ENDBRANCH  20  24
ENDBRANCH  19  20
ENDBRANCH   3  19
TORSDOF 6
ENDMDL
MODEL 2
REMARK VINA RESULT:      -7.9      4.150      8.066
REMARK  Name = 54767229
REMARK  6 active torsions:
REMARK  status: ('A' for Active; 'I' for Inactive)
REMARK    1  A    between atoms: C_2  and  C_7
REMARK    2  A    between atoms: C_3  and  S_19
REMARK    3  A    between atoms: C_11  and  C_18
REMARK    4  A    between atoms: S_19  and  C_20
REMARK    5  A    between atoms: C_20  and  C_24
REMARK    6  A    between atoms: C_24  and  O_25
REMARK                            x       y       z     vdW  Elec       q    Type
REMARK                         _______ _______ _______ _____ _____    ______ ____
ROOT
ATOM      1  N   UNL     1      34.716 -18.153 -25.260  0.00  0.00    -0.242 NA
ATOM      2  C   UNL     1      34.451 -18.432 -22.873  0.00  0.00    +0.025 C 
ATOM      3  C   UNL     1      34.732 -17.085 -22.677  0.00  0.00    +0.029 C 
ATOM      4  C   UNL     1      34.456 -18.913 -24.173  0.00  0.00    +0.099 C 
ATOM      5  C   UNL     1      35.005 -16.271 -23.771  0.00  0.00    +0.027 C 
ATOM      6  C   UNL     1      34.984 -16.849 -25.030  0.00  0.00    +0.099 C 
ENDROOT
BRANCH   2   7
ATOM      7  C   UNL     1      34.156 -19.349 -21.783  0.00  0.00    +0.002 C 
ATOM      8  C   UNL     1      35.159 -19.893 -20.966  0.00  0.00    +0.001 C 
ATOM      9  C   UNL     1      34.797 -20.781 -19.924  0.00  0.00    +0.010 C 
ATOM     10  C   UNL     1      32.814 -19.674 -21.578  0.00  0.00    +0.001 C 
ATOM     11  C   UNL     1      33.443 -21.097 -19.731  0.00  0.00    +0.068 C 
ATOM     12  C   UNL     1      36.514 -19.577 -21.159  0.00  0.00    +0.000 C 
ATOM     13  C   UNL     1      32.459 -20.547 -20.553  0.00  0.00    +0.010 C 
ATOM     14  C   UNL     1      35.801 -21.324 -19.106  0.00  0.00    +0.001 C 
ATOM     15  C   UNL     1      37.497 -20.127 -20.336  0.00  0.00    +0.000 C 
ATOM     16  C   UNL     1      37.141 -20.998 -19.312  0.00  0.00    +0.000 C 
BRANCH  11  18
ATOM     17  N   UNL     1      32.645 -22.708 -17.859  0.00  0.00    -0.191 NA
ATOM     18  C   UNL     1      33.002 -21.988 -18.696  0.00  0.00    +0.100 C 
ENDBRANCH  11  18
ENDBRANCH   2   7
BRANCH   3  19
ATOM     19  S   UNL     1      34.758 -16.333 -21.052  0.00  0.00    -0.104 S 
BRANCH  19  20
ATOM     20  C   UNL     1      33.217 -15.380 -21.070  0.00  0.00    +0.132 C 
ATOM     21  C   UNL     1      33.183 -14.518 -19.802  0.00  0.00    +0.022 C 
ATOM     22  C   UNL     1      32.022 -16.336 -21.082  0.00  0.00    +0.022 C 
BRANCH  20  24
ATOM     23  O   UNL     1      32.296 -14.510 -23.153  0.00  0.00    -0.249 OA
ATOM     24  C   UNL     1      33.190 -14.496 -22.315  0.00  0.00    +0.322 C 
BRANCH  24  25
ATOM     25  O   UNL     1      34.283 -13.699 -22.440  0.00  0.00    -0.480 OA
ATOM     26  H   UNL     1      34.337 -12.898 -21.956  0.00  0.00    +0.295 HD
ENDBRANCH  24  25
ENDBRANCH  20  24
ENDBRANCH  19  20
ENDBRANCH   3  19
TORSDOF 6
ENDMDL
MODEL 3
REMARK VINA RESULT:      -7.8      4.013      8.178
REMARK  Name = 54767229
REMARK  6 active torsions:
REMARK  status: ('A' for Active; 'I' for Inactive)
REMARK    1  A    between atoms: C_2  and  C_7
REMARK    2  A    between atoms: C_3  and  S_19
REMARK    3  A    between atoms: C_11  and  C_18
REMARK    4  A    between atoms: S_19  and  C_20
REMARK    5  A    between atoms: C_20  and  C_24
REMARK    6  A    between atoms: C_24  and  O_25
REMARK                            x       y       z     vdW  Elec       q    Type
REMARK                         _______ _______ _______ _____ _____    ______ ____
ROOT
ATOM      1  N   UNL     1      34.661 -18.135 -25.324  0.00  0.00    -0.242 NA
ATOM      2  C   UNL     1      35.096 -18.214 -22.948  0.00  0.00    +0.025 C 
ATOM      3  C   UNL     1      34.836 -16.852 -22.847  0.00  0.00    +0.029 C 
ATOM      4  C   UNL     1      34.996 -18.803 -24.198  0.00  0.00    +0.099 C 
ATOM      5  C   UNL     1      34.487 -16.131 -23.983  0.00  0.00    +0.027 C 
ATOM      6  C   UNL     1      34.414 -16.813 -25.187  0.00  0.00    +0.099 C 
ENDROOT
BRANCH   2   7
ATOM      7  C   UNL     1      35.466 -19.039 -21.808  0.00  0.00    +0.002 C 
ATOM      8  C   UNL     1      34.520 -19.769 -21.070  0.00  0.00    +0.001 C 
ATOM      9  C   UNL     1      34.952 -20.550 -19.971  0.00  0.00    +0.010 C 
ATOM     10  C   UNL     1      36.819 -19.077 -21.467  0.00  0.00    +0.001 C 
ATOM     11  C   UNL     1      36.317 -20.577 -19.643  0.00  0.00    +0.068 C 
ATOM     12  C   UNL     1      33.154 -19.742 -21.399  0.00  0.00    +0.000 C 
ATOM     13  C   UNL     1      37.243 -19.845 -20.387  0.00  0.00    +0.010 C 
ATOM     14  C   UNL     1      34.006 -21.280 -19.234  0.00  0.00    +0.001 C 
ATOM     15  C   UNL     1      32.229 -20.474 -20.655  0.00  0.00    +0.000 C 
ATOM     16  C   UNL     1      32.654 -21.241 -19.575  0.00  0.00    +0.000 C 
BRANCH  11  18
ATOM     17  N   UNL     1      37.239 -21.966 -17.654  0.00  0.00    -0.191 NA
ATOM     18  C   UNL     1      36.827 -21.344 -18.543  0.00  0.00    +0.100 C 
ENDBRANCH  11  18
ENDBRANCH   2   7
BRANCH   3  19
ATOM     19  S   UNL     1      34.928 -15.967 -21.293  0.00  0.00    -0.104 S 
BRANCH  19  20
ATOM     20  C   UNL     1      33.288 -15.198 -21.218  0.00  0.00    +0.132 C 
ATOM     21  C   UNL     1      33.140 -14.542 -19.839  0.00  0.00    +0.022 C 
ATOM     22  C   UNL     1      32.211 -16.268 -21.405  0.00  0.00    +0.022 C 
BRANCH  20  24
ATOM     23  O   UNL     1      34.106 -13.444 -22.700  0.00  0.00    -0.249 OA
ATOM     24  C   UNL     1      33.178 -14.148 -22.321  0.00  0.00    +0.322 C 
BRANCH  24  25
ATOM     25  O   UNL     1      31.927 -14.032 -22.838  0.00  0.00    -0.480 OA
ATOM     26  H   UNL     1      31.812 -13.841 -23.749  0.00  0.00    +0.295 HD
ENDBRANCH  24  25
ENDBRANCH  20  24
ENDBRANCH  19  20
ENDBRANCH   3  19
TORSDOF 6
ENDMDL
MODEL 4
REMARK VINA RESULT:      -7.5      1.659      2.410
REMARK  Name = 54767229
REMARK  6 active torsions:
REMARK  status: ('A' for Active; 'I' for Inactive)
REMARK    1  A    between atoms: C_2  and  C_7
REMARK    2  A    between atoms: C_3  and  S_19
REMARK    3  A    between atoms: C_11  and  C_18
REMARK    4  A    between atoms: S_19  and  C_20
REMARK    5  A    between atoms: C_20  and  C_24
REMARK    6  A    between atoms: C_24  and  O_25
REMARK                            x       y       z     vdW  Elec       q    Type
REMARK                         _______ _______ _______ _____ _____    ______ ____
ROOT
ATOM      1  N   UNL     1      33.826 -16.043 -26.183  0.00  0.00    -0.242 NA
ATOM      2  C   UNL     1      33.689 -15.303 -23.886  0.00  0.00    +0.025 C 
ATOM      3  C   UNL     1      34.489 -16.368 -23.488  0.00  0.00    +0.029 C 
ATOM      4  C   UNL     1      33.389 -15.186 -25.234  0.00  0.00    +0.099 C 
ATOM      5  C   UNL     1      34.958 -17.271 -24.436  0.00  0.00    +0.027 C 
ATOM      6  C   UNL     1      34.601 -17.065 -25.758  0.00  0.00    +0.099 C 
ENDROOT
BRANCH   2   7
ATOM      7  C   UNL     1      33.160 -14.317 -22.958  0.00  0.00    +0.002 C 
ATOM      8  C   UNL     1      33.175 -12.940 -23.234  0.00  0.00    +0.001 C 
ATOM      9  C   UNL     1      32.644 -12.037 -22.282  0.00  0.00    +0.010 C 
ATOM     10  C   UNL     1      32.628 -14.797 -21.760  0.00  0.00    +0.001 C 
ATOM     11  C   UNL     1      32.112 -12.538 -21.083  0.00  0.00    +0.068 C 
ATOM     12  C   UNL     1      33.707 -12.439 -24.434  0.00  0.00    +0.000 C 
ATOM     13  C   UNL     1      32.105 -13.909 -20.824  0.00  0.00    +0.010 C 
ATOM     14  C   UNL     1      32.659 -10.660 -22.558  0.00  0.00    +0.001 C 
ATOM     15  C   UNL     1      33.714 -11.068 -24.691  0.00  0.00    +0.000 C 
ATOM     16  C   UNL     1      33.191 -10.181 -23.756  0.00  0.00    +0.000 C 
BRANCH  11  18
ATOM     17  N   UNL     1      31.108 -10.992 -19.256  0.00  0.00    -0.191 NA
ATOM     18  C   UNL     1      31.557 -11.683 -20.073  0.00  0.00    +0.100 C 
ENDBRANCH  11  18
ENDBRANCH   2   7
BRANCH   3  19
ATOM     19  S   UNL     1      34.954 -16.637 -21.779  0.00  0.00    -0.104 S 
BRANCH  19  20
ATOM     20  C   UNL     1      34.785 -18.437 -21.638  0.00  0.00    +0.132 C 
ATOM     21  C   UNL     1      34.547 -18.996 -23.046  0.00  0.00    +0.022 C 
ATOM     22  C   UNL     1      33.596 -18.771 -20.736  0.00  0.00    +0.022 C 
BRANCH  20  24
ATOM     23  O   UNL     1      36.110 -19.719 -20.044  0.00  0.00    -0.249 OA
ATOM     24  C   UNL     1      36.068 -19.014 -21.045  0.00  0.00    +0.322 C 
BRANCH  24  25
ATOM     25  O   UNL     1      37.191 -18.646 -21.715  0.00  0.00    -0.480 OA
ATOM     26  H   UNL     1      37.559 -17.794 -21.582  0.00  0.00    +0.295 HD
ENDBRANCH  24  25
ENDBRANCH  20  24
ENDBRANCH  19  20
ENDBRANCH   3  19
TORSDOF 6
ENDMDL
MODEL 5
REMARK VINA RESULT:      -7.4     10.264     13.134
REMARK  Name = 54767229
REMARK  6 active torsions:
REMARK  status: ('A' for Active; 'I' for Inactive)
REMARK    1  A    between atoms: C_2  and  C_7
REMARK    2  A    between atoms: C_3  and  S_19
REMARK    3  A    between atoms: C_11  and  C_18
REMARK    4  A    between atoms: S_19  and  C_20
REMARK    5  A    between atoms: C_20  and  C_24
REMARK    6  A    between atoms: C_24  and  O_25
REMARK                            x       y       z     vdW  Elec       q    Type
REMARK                         _______ _______ _______ _____ _____    ______ ____
ROOT
ATOM      1  N   UNL     1      32.609 -25.048 -13.323  0.00  0.00    -0.242 NA
ATOM      2  C   UNL     1      32.664 -23.736 -15.353  0.00  0.00    +0.025 C 
ATOM      3  C   UNL     1      31.287 -23.555 -15.282  0.00  0.00    +0.029 C 
ATOM      4  C   UNL     1      33.272 -24.484 -14.357  0.00  0.00    +0.099 C 
ATOM      5  C   UNL     1      30.571 -24.120 -14.233  0.00  0.00    +0.027 C 
ATOM      6  C   UNL     1      31.272 -24.850 -13.288  0.00  0.00    +0.099 C 
ENDROOT
BRANCH   2   7
ATOM      7  C   UNL     1      33.485 -23.179 -16.416  0.00  0.00    +0.002 C 
ATOM      8  C   UNL     1      34.847 -22.888 -16.241  0.00  0.00    +0.001 C 
ATOM      9  C   UNL     1      35.584 -22.345 -17.321  0.00  0.00    +0.010 C 
ATOM     10  C   UNL     1      32.857 -22.937 -17.639  0.00  0.00    +0.001 C 
ATOM     11  C   UNL     1      34.936 -22.109 -18.543  0.00  0.00    +0.068 C 
ATOM     12  C   UNL     1      35.496 -23.125 -15.017  0.00  0.00    +0.000 C 
ATOM     13  C   UNL     1      33.581 -22.403 -18.700  0.00  0.00    +0.010 C 
ATOM     14  C   UNL     1      36.947 -22.056 -17.145  0.00  0.00    +0.001 C 
ATOM     15  C   UNL     1      36.850 -22.830 -14.861  0.00  0.00    +0.000 C 
ATOM     16  C   UNL     1      37.574 -22.297 -15.922  0.00  0.00    +0.000 C 
BRANCH  11  18
ATOM     17  N   UNL     1      36.171 -21.118 -20.600  0.00  0.00    -0.191 NA
ATOM     18  C   UNL     1      35.619 -21.561 -19.680  0.00  0.00    +0.100 C 
ENDBRANCH  11  18
ENDBRANCH   2   7
BRANCH   3  19
ATOM     19  S   UNL     1      30.376 -22.611 -16.502  0.00  0.00    -0.104 S 
BRANCH  19  20
ATOM     20  C   UNL     1      28.664 -22.933 -16.001  0.00  0.00    +0.132 C 
ATOM     21  C   UNL     1      28.384 -22.113 -14.735  0.00  0.00    +0.022 C 
ATOM     22  C   UNL     1      28.487 -24.424 -15.706  0.00  0.00    +0.022 C 
BRANCH  20  24
ATOM     23  O   UNL     1      27.234 -21.391 -17.234  0.00  0.00    -0.249 OA
ATOM     24  C   UNL     1      27.725 -22.509 -17.128  0.00  0.00    +0.322 C 
BRANCH  24  25
ATOM     25  O   UNL     1      27.445 -23.506 -18.007  0.00  0.00    -0.480 OA
ATOM     26  H   UNL     1      27.739 -24.379 -17.835  0.00  0.00    +0.295 HD
ENDBRANCH  24  25
ENDBRANCH  20  24
ENDBRANCH  19  20
ENDBRANCH   3  19
TORSDOF 6
ENDMDL
MODEL 6
REMARK VINA RESULT:      -7.2      0.956      2.502
REMARK  Name = 54767229
REMARK  6 active torsions:
REMARK  status: ('A' for Active; 'I' for Inactive)
REMARK    1  A    between atoms: C_2  and  C_7
REMARK    2  A    between atoms: C_3  and  S_19
REMARK    3  A    between atoms: C_11  and  C_18
REMARK    4  A    between atoms: S_19  and  C_20
REMARK    5  A    between atoms: C_20  and  C_24
REMARK    6  A    between atoms: C_24  and  O_25
REMARK                            x       y       z     vdW  Elec       q    Type
REMARK                         _______ _______ _______ _____ _____    ______ ____
ROOT
ATOM      1  N   UNL     1      32.659 -15.233 -26.580  0.00  0.00    -0.242 NA
ATOM      2  C   UNL     1      33.527 -13.676 -24.947  0.00  0.00    +0.025 C 
ATOM      3  C   UNL     1      34.044 -14.732 -24.204  0.00  0.00    +0.029 C 
ATOM      4  C   UNL     1      32.849 -13.977 -26.117  0.00  0.00    +0.099 C 
ATOM      5  C   UNL     1      33.869 -16.038 -24.648  0.00  0.00    +0.027 C 
ATOM      6  C   UNL     1      33.176 -16.233 -25.831  0.00  0.00    +0.099 C 
ENDROOT
BRANCH   2   7
ATOM      7  C   UNL     1      33.667 -12.283 -24.552  0.00  0.00    +0.002 C 
ATOM      8  C   UNL     1      32.921 -11.720 -23.504  0.00  0.00    +0.001 C 
ATOM      9  C   UNL     1      33.109 -10.356 -23.176  0.00  0.00    +0.010 C 
ATOM     10  C   UNL     1      34.586 -11.513 -25.266  0.00  0.00    +0.001 C 
ATOM     11  C   UNL     1      34.038  -9.596 -23.905  0.00  0.00    +0.068 C 
ATOM     12  C   UNL     1      31.992 -12.481 -22.775  0.00  0.00    +0.000 C 
ATOM     13  C   UNL     1      34.771 -10.172 -24.943  0.00  0.00    +0.010 C 
ATOM     14  C   UNL     1      32.363  -9.793 -22.127  0.00  0.00    +0.001 C 
ATOM     15  C   UNL     1      31.259 -11.904 -21.737  0.00  0.00    +0.000 C 
ATOM     16  C   UNL     1      31.445 -10.564 -21.414  0.00  0.00    +0.000 C 
BRANCH  11  18
ATOM     17  N   UNL     1      34.478  -7.088 -23.404  0.00  0.00    -0.191 NA
ATOM     18  C   UNL     1      34.281  -8.210 -23.628  0.00  0.00    +0.100 C 
ENDBRANCH  11  18
ENDBRANCH   2   7
BRANCH   3  19
ATOM     19  S   UNL     1      34.942 -14.484 -22.674  0.00  0.00    -0.104 S 
BRANCH  19  20
ATOM     20  C   UNL     1      34.173 -15.726 -21.600  0.00  0.00    +0.132 C 
ATOM     21  C   UNL     1      32.656 -15.658 -21.817  0.00  0.00    +0.022 C 
ATOM     22  C   UNL     1      34.505 -15.417 -20.139  0.00  0.00    +0.022 C 
BRANCH  20  24
ATOM     23  O   UNL     1      34.107 -18.157 -21.762  0.00  0.00    -0.249 OA
ATOM     24  C   UNL     1      34.703 -17.107 -21.974  0.00  0.00    +0.322 C 
BRANCH  24  25
ATOM     25  O   UNL     1      35.936 -17.081 -22.545  0.00  0.00    -0.480 OA
ATOM     26  H   UNL     1      36.112 -16.493 -23.252  0.00  0.00    +0.295 HD
ENDBRANCH  24  25
ENDBRANCH  20  24
ENDBRANCH  19  20
ENDBRANCH   3  19
TORSDOF 6
ENDMDL
MODEL 7
REMARK VINA RESULT:      -6.9     11.640     14.407
REMARK  Name = 54767229
REMARK  6 active torsions:
REMARK  status: ('A' for Active; 'I' for Inactive)
REMARK    1  A    between atoms: C_2  and  C_7
REMARK    2  A    between atoms: C_3  and  S_19
REMARK    3  A    between atoms: C_11  and  C_18
REMARK    4  A    between atoms: S_19  and  C_20
REMARK    5  A    between atoms: C_20  and  C_24
REMARK    6  A    between atoms: C_24  and  O_25
REMARK                            x       y       z     vdW  Elec       q    Type
REMARK                         _______ _______ _______ _____ _____    ______ ____
ROOT
ATOM      1  N   UNL     1      36.970 -27.052 -15.868  0.00  0.00    -0.242 NA
ATOM      2  C   UNL     1      35.593 -25.211 -15.119  0.00  0.00    +0.025 C 
ATOM      3  C   UNL     1      36.673 -24.675 -14.426  0.00  0.00    +0.029 C 
ATOM      4  C   UNL     1      35.792 -26.391 -15.818  0.00  0.00    +0.099 C 
ATOM      5  C   UNL     1      37.901 -25.327 -14.454  0.00  0.00    +0.027 C 
ATOM      6  C   UNL     1      37.996 -26.501 -15.183  0.00  0.00    +0.099 C 
ENDROOT
BRANCH   2   7
ATOM      7  C   UNL     1      34.277 -24.592 -15.140  0.00  0.00    +0.002 C 
ATOM      8  C   UNL     1      33.836 -23.801 -16.213  0.00  0.00    +0.001 C 
ATOM      9  C   UNL     1      32.543 -23.228 -16.164  0.00  0.00    +0.010 C 
ATOM     10  C   UNL     1      33.455 -24.816 -14.035  0.00  0.00    +0.001 C 
ATOM     11  C   UNL     1      31.729 -23.464 -15.045  0.00  0.00    +0.068 C 
ATOM     12  C   UNL     1      34.651 -23.564 -17.333  0.00  0.00    +0.000 C 
ATOM     13  C   UNL     1      32.183 -24.253 -13.987  0.00  0.00    +0.010 C 
ATOM     14  C   UNL     1      32.102 -22.436 -17.238  0.00  0.00    +0.001 C 
ATOM     15  C   UNL     1      34.196 -22.775 -18.389  0.00  0.00    +0.000 C 
ATOM     16  C   UNL     1      32.924 -22.213 -18.342  0.00  0.00    +0.000 C 
BRANCH  11  18
ATOM     17  N   UNL     1      29.339 -22.474 -14.831  0.00  0.00    -0.191 NA
ATOM     18  C   UNL     1      30.408 -22.917 -14.927  0.00  0.00    +0.100 C 
ENDBRANCH  11  18
ENDBRANCH   2   7
BRANCH   3  19
ATOM     19  S   UNL     1      36.555 -23.157 -13.484  0.00  0.00    -0.104 S 
BRANCH  19  20
ATOM     20  C   UNL     1      37.007 -23.728 -11.823  0.00  0.00    +0.132 C 
ATOM     21  C   UNL     1      36.772 -22.567 -10.849  0.00  0.00    +0.022 C 
ATOM     22  C   UNL     1      38.481 -24.135 -11.804  0.00  0.00    +0.022 C 
BRANCH  20  24
ATOM     23  O   UNL     1      34.981 -24.833 -11.037  0.00  0.00    -0.249 OA
ATOM     24  C   UNL     1      36.132 -24.922 -11.450  0.00  0.00    +0.322 C 
BRANCH  24  25
ATOM     25  O   UNL     1      36.759 -26.119 -11.583  0.00  0.00    -0.480 OA
ATOM     26  H   UNL     1      37.642 -26.222 -11.289  0.00  0.00    +0.295 HD
ENDBRANCH  24  25
ENDBRANCH  20  24
ENDBRANCH  19  20
ENDBRANCH   3  19
TORSDOF 6
ENDMDL
MODEL 8
REMARK VINA RESULT:      -6.7     10.961     14.964
REMARK  Name = 54767229
REMARK  6 active torsions:
REMARK  status: ('A' for Active; 'I' for Inactive)
REMARK    1  A    between atoms: C_2  and  C_7
REMARK    2  A    between atoms: C_3  and  S_19
REMARK    3  A    between atoms: C_11  and  C_18
REMARK    4  A    between atoms: S_19  and  C_20
REMARK    5  A    between atoms: C_20  and  C_24
REMARK    6  A    between atoms: C_24  and  O_25
REMARK                            x       y       z     vdW  Elec       q    Type
REMARK                         _______ _______ _______ _____ _____    ______ ____
ROOT
ATOM      1  N   UNL     1      31.942 -24.815 -13.493  0.00  0.00    -0.242 NA
ATOM      2  C   UNL     1      34.157 -24.481 -14.403  0.00  0.00    +0.025 C 
ATOM      3  C   UNL     1      33.666 -23.499 -15.256  0.00  0.00    +0.029 C 
ATOM      4  C   UNL     1      33.262 -25.104 -13.548  0.00  0.00    +0.099 C 
ATOM      5  C   UNL     1      32.314 -23.174 -15.229  0.00  0.00    +0.027 C 
ATOM      6  C   UNL     1      31.502 -23.856 -14.337  0.00  0.00    +0.099 C 
ENDROOT
BRANCH   2   7
ATOM      7  C   UNL     1      35.556 -24.877 -14.370  0.00  0.00    +0.002 C 
ATOM      8  C   UNL     1      36.464 -24.353 -13.436  0.00  0.00    +0.001 C 
ATOM      9  C   UNL     1      37.812 -24.784 -13.464  0.00  0.00    +0.010 C 
ATOM     10  C   UNL     1      35.970 -25.814 -15.318  0.00  0.00    +0.001 C 
ATOM     11  C   UNL     1      38.211 -25.727 -14.425  0.00  0.00    +0.068 C 
ATOM     12  C   UNL     1      36.064 -23.409 -12.475  0.00  0.00    +0.000 C 
ATOM     13  C   UNL     1      37.295 -26.238 -15.346  0.00  0.00    +0.010 C 
ATOM     14  C   UNL     1      38.720 -24.260 -12.530  0.00  0.00    +0.001 C 
ATOM     15  C   UNL     1      36.980 -22.899 -11.555  0.00  0.00    +0.000 C 
ATOM     16  C   UNL     1      38.305 -23.324 -11.583  0.00  0.00    +0.000 C 
BRANCH  11  18
ATOM     17  N   UNL     1      40.650 -26.600 -14.583  0.00  0.00    -0.191 NA
ATOM     18  C   UNL     1      39.559 -26.210 -14.513  0.00  0.00    +0.100 C 
ENDBRANCH  11  18
ENDBRANCH   2   7
BRANCH   3  19
ATOM     19  S   UNL     1      34.713 -22.615 -16.410  0.00  0.00    -0.104 S 
BRANCH  19  20
ATOM     20  C   UNL     1      33.817 -22.857 -17.968  0.00  0.00    +0.132 C 
ATOM     21  C   UNL     1      32.381 -22.357 -17.766  0.00  0.00    +0.022 C 
ATOM     22  C   UNL     1      33.805 -24.345 -18.326  0.00  0.00    +0.022 C 
BRANCH  20  24
ATOM     23  O   UNL     1      35.672 -22.228 -19.419  0.00  0.00    -0.249 OA
ATOM     24  C   UNL     1      34.508 -22.061 -19.071  0.00  0.00    +0.322 C 
BRANCH  24  25
ATOM     25  O   UNL     1      33.721 -21.104 -19.627  0.00  0.00    -0.480 OA
ATOM     26  H   UNL     1      33.741 -20.959 -20.553  0.00  0.00    +0.295 HD
ENDBRANCH  24  25
ENDBRANCH  20  24
ENDBRANCH  19  20
ENDBRANCH   3  19
TORSDOF 6
ENDMDL
MODEL 9
REMARK VINA RESULT:      -6.7      3.899      6.818
REMARK  Name = 54767229
REMARK  6 active torsions:
REMARK  status: ('A' for Active; 'I' for Inactive)
REMARK    1  A    between atoms: C_2  and  C_7
REMARK    2  A    between atoms: C_3  and  S_19
REMARK    3  A    between atoms: C_11  and  C_18
REMARK    4  A    between atoms: S_19  and  C_20
REMARK    5  A    between atoms: C_20  and  C_24
REMARK    6  A    between atoms: C_24  and  O_25
REMARK                            x       y       z     vdW  Elec       q    Type
REMARK                         _______ _______ _______ _____ _____    ______ ____
ROOT
ATOM      1  N   UNL     1      32.780  -7.898 -20.048  0.00  0.00    -0.242 NA
ATOM      2  C   UNL     1      32.936  -7.817 -22.459  0.00  0.00    +0.025 C 
ATOM      3  C   UNL     1      32.366  -9.082 -22.546  0.00  0.00    +0.029 C 
ATOM      4  C   UNL     1      33.120  -7.274 -21.197  0.00  0.00    +0.099 C 
ATOM      5  C   UNL     1      32.002  -9.755 -21.385  0.00  0.00    +0.027 C 
ATOM      6  C   UNL     1      32.228  -9.126 -20.172  0.00  0.00    +0.099 C 
ENDROOT
BRANCH   2   7
ATOM      7  C   UNL     1      33.343  -7.047 -23.624  0.00  0.00    +0.002 C 
ATOM      8  C   UNL     1      32.560  -6.006 -24.148  0.00  0.00    +0.001 C 
ATOM      9  C   UNL     1      33.019  -5.301 -25.286  0.00  0.00    +0.010 C 
ATOM     10  C   UNL     1      34.562  -7.388 -24.212  0.00  0.00    +0.001 C 
ATOM     11  C   UNL     1      34.247  -5.657 -25.866  0.00  0.00    +0.068 C 
ATOM     12  C   UNL     1      31.330  -5.650 -23.569  0.00  0.00    +0.000 C 
ATOM     13  C   UNL     1      35.013  -6.694 -25.331  0.00  0.00    +0.010 C 
ATOM     14  C   UNL     1      32.235  -4.260 -25.811  0.00  0.00    +0.001 C 
ATOM     15  C   UNL     1      30.566  -4.613 -24.103  0.00  0.00    +0.000 C 
ATOM     16  C   UNL     1      31.017  -3.920 -25.222  0.00  0.00    +0.000 C 
BRANCH  11  18
ATOM     17  N   UNL     1      35.202  -4.445 -27.953  0.00  0.00    -0.191 NA
ATOM     18  C   UNL     1      34.775  -4.987 -27.019  0.00  0.00    +0.100 C 
ENDBRANCH  11  18
ENDBRANCH   2   7
BRANCH   3  19
ATOM     19  S   UNL     1      32.071  -9.899 -24.112  0.00  0.00    -0.104 S 
BRANCH  19  20
ATOM     20  C   UNL     1      33.491 -11.022 -24.205  0.00  0.00    +0.132 C 
ATOM     21  C   UNL     1      34.708 -10.287 -23.630  0.00  0.00    +0.022 C 
ATOM     22  C   UNL     1      33.752 -11.400 -25.665  0.00  0.00    +0.022 C 
BRANCH  20  24
ATOM     23  O   UNL     1      32.105 -12.524 -22.876  0.00  0.00    -0.249 OA
ATOM     24  C   UNL     1      33.191 -12.276 -23.388  0.00  0.00    +0.322 C 
BRANCH  24  25
ATOM     25  O   UNL     1      34.261 -13.100 -23.242  0.00  0.00    -0.480 OA
ATOM     26  H   UNL     1      34.136 -13.987 -22.966  0.00  0.00    +0.295 HD
ENDBRANCH  24  25
ENDBRANCH  20  24
ENDBRANCH  19  20
ENDBRANCH   3  19
TORSDOF 6
ENDMDL
