MODEL 1
REMARK VINA RESULT:     -13.1      0.000      0.000
REMARK  Name = 11167118
REMARK  6 active torsions:
REMARK  status: ('A' for Active; 'I' for Inactive)
REMARK    1  A    between atoms: N_2  and  C_6
REMARK    2  A    between atoms: N_2  and  C_15
REMARK    3  A    between atoms: C_8  and  O_25
REMARK    4  A    between atoms: C_17  and  C_24
REMARK    5  A    between atoms: O_25  and  C_27
REMARK    6  A    between atoms: C_30  and  C_34
REMARK                            x       y       z     vdW  Elec       q    Type
REMARK                         _______ _______ _______ _____ _____    ______ ____
ROOT
ATOM      1  N   UNL     1      35.050 -21.891 -18.907  0.00  0.00    -0.302 N 
ATOM      2  N   UNL     1      32.841 -21.760 -19.115  0.00  0.00    -0.302 N 
ATOM      3  C   UNL     1      34.828 -20.930 -19.860  0.00  0.00    +0.063 C 
ATOM      4  C   UNL     1      33.441 -20.867 -19.972  0.00  0.00    +0.060 C 
ATOM      5  C   UNL     1      33.833 -22.357 -18.492  0.00  0.00    +0.225 C 
ATOM      6  C   UNL     1      35.694 -20.134 -20.613  0.00  0.00    +0.053 C 
ATOM      7  C   UNL     1      35.105 -19.240 -21.512  0.00  0.00    +0.147 C 
ATOM      8  C   UNL     1      32.867 -19.963 -20.882  0.00  0.00    +0.019 C 
ATOM      9  C   UNL     1      33.718 -19.155 -21.646  0.00  0.00    +0.039 C 
ATOM     10  H   UNL     1      35.929 -22.190 -18.581  0.00  0.00    +0.150 HD
ATOM     11  H   UNL     1      31.877 -21.919 -18.993  0.00  0.00    +0.150 HD
ENDROOT
BRANCH   5  12
ATOM     12  N   UNL     1      33.806 -23.319 -17.545  0.00  0.00    -0.303 N 
ATOM     13  H   UNL     1      34.462 -24.043 -17.672  0.00  0.00    +0.150 HD
BRANCH  12  15
ATOM     14 CL   UNL     1      30.403 -23.895 -12.728  0.00  0.00    -0.082 Cl
ATOM     15  C   UNL     1      32.980 -23.455 -16.393  0.00  0.00    +0.047 C 
ATOM     16  C   UNL     1      31.618 -23.209 -16.495  0.00  0.00    +0.019 C 
ATOM     17  C   UNL     1      30.810 -23.342 -15.366  0.00  0.00    +0.083 C 
ATOM     18  C   UNL     1      33.550 -23.831 -15.185  0.00  0.00    +0.015 C 
ATOM     19  C   UNL     1      31.372 -23.720 -14.146  0.00  0.00    +0.062 C 
ATOM     20  C   UNL     1      32.742 -23.964 -14.055  0.00  0.00    +0.013 C 
BRANCH  17  24
ATOM     21  F   UNL     1      28.593 -24.123 -15.104  0.00  0.00    -0.166 F 
ATOM     22  F   UNL     1      28.947 -22.005 -14.771  0.00  0.00    -0.166 F 
ATOM     23  F   UNL     1      29.019 -22.813 -16.794  0.00  0.00    -0.166 F 
ATOM     24  C   UNL     1      29.347 -23.071 -15.505  0.00  0.00    +0.419 C 
ENDBRANCH  17  24
ENDBRANCH  12  15
ENDBRANCH   5  12
BRANCH   7  25
ATOM     25  O   UNL     1      35.903 -18.438 -22.274  0.00  0.00    -0.453 OA
BRANCH  25  27
ATOM     26  N   UNL     1      34.043 -15.757 -24.847  0.00  0.00    -0.239 NA
ATOM     27  C   UNL     1      35.284 -17.546 -23.131  0.00  0.00    +0.149 C 
ATOM     28  C   UNL     1      34.946 -16.291 -22.669  0.00  0.00    +0.061 C 
ATOM     29  C   UNL     1      35.018 -17.928 -24.428  0.00  0.00    +0.058 C 
ATOM     30  C   UNL     1      34.327 -15.434 -23.565  0.00  0.00    +0.137 C 
ATOM     31  C   UNL     1      34.396 -16.999 -25.246  0.00  0.00    +0.102 C 
BRANCH  30  34
ATOM     32  O   UNL     1      33.555 -13.879 -21.989  0.00  0.00    -0.268 OA
ATOM     33  N   UNL     1      34.048 -13.079 -24.108  0.00  0.00    -0.298 N 
ATOM     34  C   UNL     1      33.941 -14.096 -23.152  0.00  0.00    +0.264 C 
ATOM     35  C   UNL     1      33.724 -11.694 -23.843  0.00  0.00    +0.111 C 
ATOM     36  H   UNL     1      34.360 -13.319 -25.010  0.00  0.00    +0.150 HD
ENDBRANCH  30  34
ENDBRANCH  25  27
ENDBRANCH   7  25
TORSDOF 6
ENDMDL
MODEL 2
REMARK VINA RESULT:     -13.0      1.271      1.921
REMARK  Name = 11167118
REMARK  6 active torsions:
REMARK  status: ('A' for Active; 'I' for Inactive)
REMARK    1  A    between atoms: N_2  and  C_6
REMARK    2  A    between atoms: N_2  and  C_15
REMARK    3  A    between atoms: C_8  and  O_25
REMARK    4  A    between atoms: C_17  and  C_24
REMARK    5  A    between atoms: O_25  and  C_27
REMARK    6  A    between atoms: C_30  and  C_34
REMARK                            x       y       z     vdW  Elec       q    Type
REMARK                         _______ _______ _______ _____ _____    ______ ____
ROOT
ATOM      1  N   UNL     1      33.526 -21.419 -20.020  0.00  0.00    -0.302 N 
ATOM      2  N   UNL     1      35.367 -21.934 -18.888  0.00  0.00    -0.302 N 
ATOM      3  C   UNL     1      34.491 -20.561 -20.481  0.00  0.00    +0.063 C 
ATOM      4  C   UNL     1      35.631 -20.903 -19.759  0.00  0.00    +0.060 C 
ATOM      5  C   UNL     1      34.097 -22.220 -19.070  0.00  0.00    +0.225 C 
ATOM      6  C   UNL     1      34.466 -19.545 -21.439  0.00  0.00    +0.053 C 
ATOM      7  C   UNL     1      35.664 -18.858 -21.658  0.00  0.00    +0.147 C 
ATOM      8  C   UNL     1      36.826 -20.201 -19.992  0.00  0.00    +0.019 C 
ATOM      9  C   UNL     1      36.824 -19.179 -20.949  0.00  0.00    +0.039 C 
ATOM     10  H   UNL     1      32.589 -21.452 -20.320  0.00  0.00    +0.150 HD
ATOM     11  H   UNL     1      35.993 -22.367 -18.263  0.00  0.00    +0.150 HD
ENDROOT
BRANCH   5  12
ATOM     12  N   UNL     1      33.325 -23.153 -18.472  0.00  0.00    -0.303 N 
ATOM     13  H   UNL     1      33.123 -23.941 -19.026  0.00  0.00    +0.150 HD
BRANCH  12  15
ATOM     14 CL   UNL     1      31.003 -23.270 -13.021  0.00  0.00    -0.082 Cl
ATOM     15  C   UNL     1      32.758 -23.179 -17.166  0.00  0.00    +0.047 C 
ATOM     16  C   UNL     1      31.390 -23.001 -17.010  0.00  0.00    +0.019 C 
ATOM     17  C   UNL     1      30.835 -23.027 -15.731  0.00  0.00    +0.083 C 
ATOM     18  C   UNL     1      33.582 -23.382 -16.067  0.00  0.00    +0.015 C 
ATOM     19  C   UNL     1      31.654 -23.230 -14.619  0.00  0.00    +0.062 C 
ATOM     20  C   UNL     1      33.027 -23.407 -14.787  0.00  0.00    +0.013 C 
BRANCH  17  24
ATOM     21  F   UNL     1      28.740 -23.947 -15.132  0.00  0.00    -0.166 F 
ATOM     22  F   UNL     1      29.048 -21.832 -14.737  0.00  0.00    -0.166 F 
ATOM     23  F   UNL     1      28.795 -22.528 -16.786  0.00  0.00    -0.166 F 
ATOM     24  C   UNL     1      29.360 -22.834 -15.593  0.00  0.00    +0.419 C 
ENDBRANCH  17  24
ENDBRANCH  12  15
ENDBRANCH   5  12
BRANCH   7  25
ATOM     25  O   UNL     1      35.699 -17.856 -22.582  0.00  0.00    -0.453 OA
BRANCH  25  27
ATOM     26  N   UNL     1      33.810 -14.282 -21.620  0.00  0.00    -0.239 NA
ATOM     27  C   UNL     1      35.070 -16.666 -22.261  0.00  0.00    +0.149 C 
ATOM     28  C   UNL     1      34.694 -15.808 -23.273  0.00  0.00    +0.061 C 
ATOM     29  C   UNL     1      34.831 -16.364 -20.938  0.00  0.00    +0.058 C 
ATOM     30  C   UNL     1      34.068 -14.629 -22.901  0.00  0.00    +0.137 C 
ATOM     31  C   UNL     1      34.199 -15.160 -20.669  0.00  0.00    +0.102 C 
BRANCH  30  34
ATOM     32  O   UNL     1      32.805 -13.996 -24.772  0.00  0.00    -0.268 OA
ATOM     33  N   UNL     1      34.199 -12.391 -23.847  0.00  0.00    -0.298 N 
ATOM     34  C   UNL     1      33.643 -13.675 -23.910  0.00  0.00    +0.264 C 
ATOM     35  C   UNL     1      33.861 -11.326 -24.764  0.00  0.00    +0.111 C 
ATOM     36  H   UNL     1      34.857 -12.204 -23.139  0.00  0.00    +0.150 HD
ENDBRANCH  30  34
ENDBRANCH  25  27
ENDBRANCH   7  25
TORSDOF 6
ENDMDL
MODEL 3
REMARK VINA RESULT:     -12.9      5.579     10.646
REMARK  Name = 11167118
REMARK  6 active torsions:
REMARK  status: ('A' for Active; 'I' for Inactive)
REMARK    1  A    between atoms: N_2  and  C_6
REMARK    2  A    between atoms: N_2  and  C_15
REMARK    3  A    between atoms: C_8  and  O_25
REMARK    4  A    between atoms: C_17  and  C_24
REMARK    5  A    between atoms: O_25  and  C_27
REMARK    6  A    between atoms: C_30  and  C_34
REMARK                            x       y       z     vdW  Elec       q    Type
REMARK                         _______ _______ _______ _____ _____    ______ ____
ROOT
ATOM      1  N   UNL     1      34.484 -19.242 -21.146  0.00  0.00    -0.302 N 
ATOM      2  N   UNL     1      36.581 -19.603 -20.505  0.00  0.00    -0.302 N 
ATOM      3  C   UNL     1      34.427 -20.318 -20.298  0.00  0.00    +0.063 C 
ATOM      4  C   UNL     1      35.749 -20.523 -19.912  0.00  0.00    +0.060 C 
ATOM      5  C   UNL     1      35.790 -18.850 -21.238  0.00  0.00    +0.225 C 
ATOM      6  C   UNL     1      33.366 -21.106 -19.849  0.00  0.00    +0.053 C 
ATOM      7  C   UNL     1      33.682 -22.144 -18.968  0.00  0.00    +0.147 C 
ATOM      8  C   UNL     1      36.048 -21.572 -19.026  0.00  0.00    +0.019 C 
ATOM      9  C   UNL     1      34.998 -22.375 -18.562  0.00  0.00    +0.039 C 
ATOM     10  H   UNL     1      33.719 -18.826 -21.607  0.00  0.00    +0.150 HD
ATOM     11  H   UNL     1      37.557 -19.523 -20.404  0.00  0.00    +0.150 HD
ENDROOT
BRANCH   5  12
ATOM     12  N   UNL     1      36.088 -17.795 -22.028  0.00  0.00    -0.303 N 
ATOM     13  H   UNL     1      36.977 -17.401 -21.873  0.00  0.00    +0.150 HD
BRANCH  12  15
ATOM     14 CL   UNL     1      32.906 -15.197 -26.298  0.00  0.00    -0.082 Cl
ATOM     15  C   UNL     1      35.322 -17.163 -23.048  0.00  0.00    +0.047 C 
ATOM     16  C   UNL     1      34.828 -15.883 -22.839  0.00  0.00    +0.019 C 
ATOM     17  C   UNL     1      34.078 -15.264 -23.838  0.00  0.00    +0.083 C 
ATOM     18  C   UNL     1      35.081 -17.836 -24.237  0.00  0.00    +0.015 C 
ATOM     19  C   UNL     1      33.829 -15.931 -25.038  0.00  0.00    +0.062 C 
ATOM     20  C   UNL     1      34.330 -17.218 -25.237  0.00  0.00    +0.013 C 
BRANCH  17  24
ATOM     21  F   UNL     1      33.922 -13.419 -22.366  0.00  0.00    -0.166 F 
ATOM     22  F   UNL     1      34.013 -12.989 -24.495  0.00  0.00    -0.166 F 
ATOM     23  F   UNL     1      32.206 -13.856 -23.639  0.00  0.00    -0.166 F 
ATOM     24  C   UNL     1      33.559 -13.885 -23.586  0.00  0.00    +0.419 C 
ENDBRANCH  17  24
ENDBRANCH  12  15
ENDBRANCH   5  12
BRANCH   7  25
ATOM     25  O   UNL     1      32.685 -22.947 -18.497  0.00  0.00    -0.453 OA
BRANCH  25  27
ATOM     26  N   UNL     1      32.294 -23.317 -14.377  0.00  0.00    -0.239 NA
ATOM     27  C   UNL     1      32.555 -23.070 -17.125  0.00  0.00    +0.149 C 
ATOM     28  C   UNL     1      33.635 -23.494 -16.381  0.00  0.00    +0.061 C 
ATOM     29  C   UNL     1      31.349 -22.765 -16.532  0.00  0.00    +0.058 C 
ATOM     30  C   UNL     1      33.454 -23.602 -15.011  0.00  0.00    +0.137 C 
ATOM     31  C   UNL     1      31.269 -22.905 -15.155  0.00  0.00    +0.102 C 
BRANCH  30  34
ATOM     32  O   UNL     1      35.439 -24.784 -14.610  0.00  0.00    -0.268 OA
ATOM     33  N   UNL     1      34.552 -23.577 -12.840  0.00  0.00    -0.298 N 
ATOM     34  C   UNL     1      34.546 -24.043 -14.160  0.00  0.00    +0.264 C 
ATOM     35  C   UNL     1      35.581 -23.908 -11.879  0.00  0.00    +0.111 C 
ATOM     36  H   UNL     1      33.815 -22.993 -12.549  0.00  0.00    +0.150 HD
ENDBRANCH  30  34
ENDBRANCH  25  27
ENDBRANCH   7  25
TORSDOF 6
ENDMDL
MODEL 4
REMARK VINA RESULT:     -12.7      6.551     11.521
REMARK  Name = 11167118
REMARK  6 active torsions:
REMARK  status: ('A' for Active; 'I' for Inactive)
REMARK    1  A    between atoms: N_2  and  C_6
REMARK    2  A    between atoms: N_2  and  C_15
REMARK    3  A    between atoms: C_8  and  O_25
REMARK    4  A    between atoms: C_17  and  C_24
REMARK    5  A    between atoms: O_25  and  C_27
REMARK    6  A    between atoms: C_30  and  C_34
REMARK                            x       y       z     vdW  Elec       q    Type
REMARK                         _______ _______ _______ _____ _____    ______ ____
ROOT
ATOM      1  N   UNL     1      33.652 -14.639 -22.537  0.00  0.00    -0.302 N 
ATOM      2  N   UNL     1      33.479 -14.896 -24.737  0.00  0.00    -0.302 N 
ATOM      3  C   UNL     1      34.248 -15.842 -22.812  0.00  0.00    +0.063 C 
ATOM      4  C   UNL     1      34.127 -15.980 -24.192  0.00  0.00    +0.060 C 
ATOM      5  C   UNL     1      33.208 -14.112 -23.717  0.00  0.00    +0.225 C 
ATOM      6  C   UNL     1      34.865 -16.795 -21.998  0.00  0.00    +0.053 C 
ATOM      7  C   UNL     1      35.375 -17.930 -22.634  0.00  0.00    +0.147 C 
ATOM      8  C   UNL     1      34.645 -17.128 -24.814  0.00  0.00    +0.019 C 
ATOM      9  C   UNL     1      35.269 -18.097 -24.017  0.00  0.00    +0.039 C 
ATOM     10  H   UNL     1      33.560 -14.228 -21.646  0.00  0.00    +0.150 HD
ATOM     11  H   UNL     1      33.263 -14.740 -25.685  0.00  0.00    +0.150 HD
ENDROOT
BRANCH   5  12
ATOM     12  N   UNL     1      32.581 -12.915 -23.689  0.00  0.00    -0.303 N 
ATOM     13  H   UNL     1      31.599 -12.964 -23.655  0.00  0.00    +0.150 HD
BRANCH  12  15
ATOM     14 CL   UNL     1      34.835  -7.435 -23.765  0.00  0.00    -0.082 Cl
ATOM     15  C   UNL     1      33.116 -11.596 -23.701  0.00  0.00    +0.047 C 
ATOM     16  C   UNL     1      32.567 -10.628 -22.871  0.00  0.00    +0.019 C 
ATOM     17  C   UNL     1      33.091  -9.335 -22.882  0.00  0.00    +0.083 C 
ATOM     18  C   UNL     1      34.178 -11.297 -24.542  0.00  0.00    +0.015 C 
ATOM     19  C   UNL     1      34.160  -9.023 -23.724  0.00  0.00    +0.062 C 
ATOM     20  C   UNL     1      34.703 -10.004 -24.554  0.00  0.00    +0.013 C 
BRANCH  17  24
ATOM     21  F   UNL     1      33.410  -7.687 -21.216  0.00  0.00    -0.166 F 
ATOM     22  F   UNL     1      31.823  -7.347 -22.662  0.00  0.00    -0.166 F 
ATOM     23  F   UNL     1      31.588  -8.883 -21.133  0.00  0.00    -0.166 F 
ATOM     24  C   UNL     1      32.481  -8.314 -21.978  0.00  0.00    +0.419 C 
ENDBRANCH  17  24
ENDBRANCH  12  15
ENDBRANCH   5  12
BRANCH   7  25
ATOM     25  O   UNL     1      35.988 -18.894 -21.888  0.00  0.00    -0.453 OA
BRANCH  25  27
ATOM     26  N   UNL     1      33.586 -21.298 -19.497  0.00  0.00    -0.239 NA
ATOM     27  C   UNL     1      35.188 -19.694 -21.092  0.00  0.00    +0.149 C 
ATOM     28  C   UNL     1      35.767 -20.435 -20.083  0.00  0.00    +0.061 C 
ATOM     29  C   UNL     1      33.830 -19.734 -21.323  0.00  0.00    +0.058 C 
ATOM     30  C   UNL     1      34.923 -21.221 -19.314  0.00  0.00    +0.137 C 
ATOM     31  C   UNL     1      33.072 -20.550 -20.499  0.00  0.00    +0.102 C 
BRANCH  30  34
ATOM     32  O   UNL     1      34.842 -23.030 -17.826  0.00  0.00    -0.268 OA
ATOM     33  N   UNL     1      36.696 -21.644 -17.702  0.00  0.00    -0.298 N 
ATOM     34  C   UNL     1      35.459 -22.030 -18.233  0.00  0.00    +0.264 C 
ATOM     35  C   UNL     1      37.369 -22.359 -16.641  0.00  0.00    +0.111 C 
ATOM     36  H   UNL     1      37.131 -20.841 -18.071  0.00  0.00    +0.150 HD
ENDBRANCH  30  34
ENDBRANCH  25  27
ENDBRANCH   7  25
TORSDOF 6
ENDMDL
MODEL 5
REMARK VINA RESULT:     -12.6      4.542      7.374
REMARK  Name = 11167118
REMARK  6 active torsions:
REMARK  status: ('A' for Active; 'I' for Inactive)
REMARK    1  A    between atoms: N_2  and  C_6
REMARK    2  A    between atoms: N_2  and  C_15
REMARK    3  A    between atoms: C_8  and  O_25
REMARK    4  A    between atoms: C_17  and  C_24
REMARK    5  A    between atoms: O_25  and  C_27
REMARK    6  A    between atoms: C_30  and  C_34
REMARK                            x       y       z     vdW  Elec       q    Type
REMARK                         _______ _______ _______ _____ _____    ______ ____
ROOT
ATOM      1  N   UNL     1      34.260 -16.146 -21.772  0.00  0.00    -0.302 N 
ATOM      2  N   UNL     1      35.143 -15.611 -23.739  0.00  0.00    -0.302 N 
ATOM      3  C   UNL     1      33.607 -15.008 -22.168  0.00  0.00    +0.063 C 
ATOM      4  C   UNL     1      34.177 -14.694 -23.399  0.00  0.00    +0.060 C 
ATOM      5  C   UNL     1      35.167 -16.468 -22.742  0.00  0.00    +0.225 C 
ATOM      6  C   UNL     1      32.598 -14.247 -21.575  0.00  0.00    +0.053 C 
ATOM      7  C   UNL     1      32.161 -13.121 -22.279  0.00  0.00    +0.147 C 
ATOM      8  C   UNL     1      33.726 -13.558 -24.093  0.00  0.00    +0.019 C 
ATOM      9  C   UNL     1      32.714 -12.781 -23.516  0.00  0.00    +0.039 C 
ATOM     10  H   UNL     1      34.102 -16.644 -20.937  0.00  0.00    +0.150 HD
ATOM     11  H   UNL     1      35.698 -15.625 -24.553  0.00  0.00    +0.150 HD
ENDROOT
BRANCH   5  12
ATOM     12  N   UNL     1      35.932 -17.567 -22.564  0.00  0.00    -0.303 N 
ATOM     13  H   UNL     1      36.709 -17.632 -23.165  0.00  0.00    +0.150 HD
BRANCH  12  15
ATOM     14 CL   UNL     1      35.401 -22.059 -18.736  0.00  0.00    -0.082 Cl
ATOM     15  C   UNL     1      35.794 -18.646 -21.646  0.00  0.00    +0.047 C 
ATOM     16  C   UNL     1      34.540 -19.196 -21.419  0.00  0.00    +0.019 C 
ATOM     17  C   UNL     1      34.406 -20.254 -20.520  0.00  0.00    +0.083 C 
ATOM     18  C   UNL     1      36.917 -19.133 -20.991  0.00  0.00    +0.015 C 
ATOM     19  C   UNL     1      35.528 -20.751 -19.855  0.00  0.00    +0.062 C 
ATOM     20  C   UNL     1      36.783 -20.190 -20.090  0.00  0.00    +0.013 C 
BRANCH  17  24
ATOM     21  F   UNL     1      32.554 -20.515 -19.072  0.00  0.00    -0.166 F 
ATOM     22  F   UNL     1      32.141 -20.379 -21.202  0.00  0.00    -0.166 F 
ATOM     23  F   UNL     1      33.063 -22.178 -20.387  0.00  0.00    -0.166 F 
ATOM     24  C   UNL     1      33.044 -20.827 -20.296  0.00  0.00    +0.419 C 
ENDBRANCH  17  24
ENDBRANCH  12  15
ENDBRANCH   5  12
BRANCH   7  25
ATOM     25  O   UNL     1      31.178 -12.341 -21.747  0.00  0.00    -0.453 OA
BRANCH  25  27
ATOM     26  N   UNL     1      32.334  -8.915 -19.699  0.00  0.00    -0.239 NA
ATOM     27  C   UNL     1      31.563 -11.200 -21.065  0.00  0.00    +0.149 C 
ATOM     28  C   UNL     1      31.846 -10.053 -21.775  0.00  0.00    +0.061 C 
ATOM     29  C   UNL     1      31.654 -11.234 -19.690  0.00  0.00    +0.058 C 
ATOM     30  C   UNL     1      32.227  -8.937 -21.047  0.00  0.00    +0.137 C 
ATOM     31  C   UNL     1      32.044 -10.067 -19.054  0.00  0.00    +0.102 C 
BRANCH  30  34
ATOM     32  O   UNL     1      33.622  -7.555 -22.327  0.00  0.00    -0.268 OA
ATOM     33  N   UNL     1      31.572  -6.683 -21.685  0.00  0.00    -0.298 N 
ATOM     34  C   UNL     1      32.542  -7.692 -21.725  0.00  0.00    +0.264 C 
ATOM     35  C   UNL     1      31.727  -5.398 -22.330  0.00  0.00    +0.111 C 
ATOM     36  H   UNL     1      30.739  -6.857 -21.190  0.00  0.00    +0.150 HD
ENDBRANCH  30  34
ENDBRANCH  25  27
ENDBRANCH   7  25
TORSDOF 6
ENDMDL
MODEL 6
REMARK VINA RESULT:     -12.4      5.587     10.402
REMARK  Name = 11167118
REMARK  6 active torsions:
REMARK  status: ('A' for Active; 'I' for Inactive)
REMARK    1  A    between atoms: N_2  and  C_6
REMARK    2  A    between atoms: N_2  and  C_15
REMARK    3  A    between atoms: C_8  and  O_25
REMARK    4  A    between atoms: C_17  and  C_24
REMARK    5  A    between atoms: O_25  and  C_27
REMARK    6  A    between atoms: C_30  and  C_34
REMARK                            x       y       z     vdW  Elec       q    Type
REMARK                         _______ _______ _______ _____ _____    ______ ____
ROOT
ATOM      1  N   UNL     1      36.059 -19.818 -20.593  0.00  0.00    -0.302 N 
ATOM      2  N   UNL     1      33.963 -19.505 -21.263  0.00  0.00    -0.302 N 
ATOM      3  C   UNL     1      35.305 -20.695 -19.858  0.00  0.00    +0.063 C 
ATOM      4  C   UNL     1      34.000 -20.481 -20.294  0.00  0.00    +0.060 C 
ATOM      5  C   UNL     1      35.213 -19.129 -21.418  0.00  0.00    +0.225 C 
ATOM      6  C   UNL     1      35.640 -21.631 -18.877  0.00  0.00    +0.053 C 
ATOM      7  C   UNL     1      34.590 -22.372 -18.328  0.00  0.00    +0.147 C 
ATOM      8  C   UNL     1      32.956 -21.234 -19.731  0.00  0.00    +0.019 C 
ATOM      9  C   UNL     1      33.271 -22.179 -18.746  0.00  0.00    +0.039 C 
ATOM     10  H   UNL     1      37.035 -19.704 -20.537  0.00  0.00    +0.150 HD
ATOM     11  H   UNL     1      33.172 -19.161 -21.738  0.00  0.00    +0.150 HD
ENDROOT
BRANCH   5  12
ATOM     12  N   UNL     1      35.741 -18.200 -22.244  0.00  0.00    -0.303 N 
ATOM     13  H   UNL     1      36.718 -18.097 -22.181  0.00  0.00    +0.150 HD
BRANCH  12  15
ATOM     14 CL   UNL     1      33.119 -14.675 -26.221  0.00  0.00    -0.082 Cl
ATOM     15  C   UNL     1      35.109 -17.346 -23.192  0.00  0.00    +0.047 C 
ATOM     16  C   UNL     1      34.681 -16.086 -22.800  0.00  0.00    +0.019 C 
ATOM     17  C   UNL     1      34.062 -15.249 -23.729  0.00  0.00    +0.083 C 
ATOM     18  C   UNL     1      34.932 -17.787 -24.497  0.00  0.00    +0.015 C 
ATOM     19  C   UNL     1      33.879 -15.682 -25.043  0.00  0.00    +0.062 C 
ATOM     20  C   UNL     1      34.313 -16.951 -25.427  0.00  0.00    +0.013 C 
BRANCH  17  24
ATOM     21  F   UNL     1      34.198 -12.902 -23.985  0.00  0.00    -0.166 F 
ATOM     22  F   UNL     1      32.273 -13.731 -23.407  0.00  0.00    -0.166 F 
ATOM     23  F   UNL     1      33.914 -13.694 -21.973  0.00  0.00    -0.166 F 
ATOM     24  C   UNL     1      33.611 -13.898 -23.278  0.00  0.00    +0.419 C 
ENDBRANCH  17  24
ENDBRANCH  12  15
ENDBRANCH   5  12
BRANCH   7  25
ATOM     25  O   UNL     1      34.859 -23.300 -17.366  0.00  0.00    -0.453 OA
BRANCH  25  27
ATOM     26  N   UNL     1      32.174 -23.638 -14.212  0.00  0.00    -0.239 NA
ATOM     27  C   UNL     1      33.965 -23.412 -16.316  0.00  0.00    +0.149 C 
ATOM     28  C   UNL     1      32.613 -23.468 -16.583  0.00  0.00    +0.061 C 
ATOM     29  C   UNL     1      34.444 -23.468 -15.024  0.00  0.00    +0.058 C 
ATOM     30  C   UNL     1      31.759 -23.580 -15.498  0.00  0.00    +0.137 C 
ATOM     31  C   UNL     1      33.509 -23.580 -14.008  0.00  0.00    +0.102 C 
BRANCH  30  34
ATOM     32  O   UNL     1      29.620 -24.410 -15.015  0.00  0.00    -0.268 OA
ATOM     33  N   UNL     1      29.778 -22.796 -16.671  0.00  0.00    -0.298 N 
ATOM     34  C   UNL     1      30.322 -23.644 -15.700  0.00  0.00    +0.264 C 
ATOM     35  C   UNL     1      28.365 -22.727 -16.973  0.00  0.00    +0.111 C 
ATOM     36  H   UNL     1      30.390 -22.215 -17.178  0.00  0.00    +0.150 HD
ENDBRANCH  30  34
ENDBRANCH  25  27
ENDBRANCH   7  25
TORSDOF 6
ENDMDL
MODEL 7
REMARK VINA RESULT:     -12.4      5.640     10.281
REMARK  Name = 11167118
REMARK  6 active torsions:
REMARK  status: ('A' for Active; 'I' for Inactive)
REMARK    1  A    between atoms: N_2  and  C_6
REMARK    2  A    between atoms: N_2  and  C_15
REMARK    3  A    between atoms: C_8  and  O_25
REMARK    4  A    between atoms: C_17  and  C_24
REMARK    5  A    between atoms: O_25  and  C_27
REMARK    6  A    between atoms: C_30  and  C_34
REMARK                            x       y       z     vdW  Elec       q    Type
REMARK                         _______ _______ _______ _____ _____    ______ ____
ROOT
ATOM      1  N   UNL     1      34.410 -19.026 -21.270  0.00  0.00    -0.302 N 
ATOM      2  N   UNL     1      36.569 -19.040 -20.742  0.00  0.00    -0.302 N 
ATOM      3  C   UNL     1      34.590 -20.142 -20.493  0.00  0.00    +0.063 C 
ATOM      4  C   UNL     1      35.946 -20.128 -20.177  0.00  0.00    +0.060 C 
ATOM      5  C   UNL     1      35.619 -18.401 -21.390  0.00  0.00    +0.225 C 
ATOM      6  C   UNL     1      33.710 -21.133 -20.052  0.00  0.00    +0.053 C 
ATOM      7  C   UNL     1      34.252 -22.146 -19.255  0.00  0.00    +0.147 C 
ATOM      8  C   UNL     1      36.473 -21.154 -19.375  0.00  0.00    +0.019 C 
ATOM      9  C   UNL     1      35.608 -22.158 -18.921  0.00  0.00    +0.039 C 
ATOM     10  H   UNL     1      33.560 -18.730 -21.669  0.00  0.00    +0.150 HD
ATOM     11  H   UNL     1      37.519 -18.791 -20.677  0.00  0.00    +0.150 HD
ENDROOT
BRANCH   5  12
ATOM     12  N   UNL     1      35.683 -17.267 -22.121  0.00  0.00    -0.303 N 
ATOM     13  H   UNL     1      36.453 -17.211 -22.732  0.00  0.00    +0.150 HD
BRANCH  12  15
ATOM     14 CL   UNL     1      32.065 -12.574 -22.190  0.00  0.00    -0.082 Cl
ATOM     15  C   UNL     1      34.815 -16.139 -22.148  0.00  0.00    +0.047 C 
ATOM     16  C   UNL     1      34.459 -15.578 -23.366  0.00  0.00    +0.019 C 
ATOM     17  C   UNL     1      33.607 -14.473 -23.392  0.00  0.00    +0.083 C 
ATOM     18  C   UNL     1      34.336 -15.616 -20.954  0.00  0.00    +0.015 C 
ATOM     19  C   UNL     1      33.120 -13.939 -22.198  0.00  0.00    +0.062 C 
ATOM     20  C   UNL     1      33.485 -14.511 -20.979  0.00  0.00    +0.013 C 
BRANCH  17  24
ATOM     21  F   UNL     1      33.718 -14.628 -25.749  0.00  0.00    -0.166 F 
ATOM     22  F   UNL     1      31.899 -13.805 -24.890  0.00  0.00    -0.166 F 
ATOM     23  F   UNL     1      33.740 -12.639 -24.856  0.00  0.00    -0.166 F 
ATOM     24  C   UNL     1      33.240 -13.891 -24.718  0.00  0.00    +0.419 C 
ENDBRANCH  17  24
ENDBRANCH  12  15
ENDBRANCH   5  12
BRANCH   7  25
ATOM     25  O   UNL     1      33.440 -23.141 -18.797  0.00  0.00    -0.453 OA
BRANCH  25  27
ATOM     26  N   UNL     1      32.528 -23.169 -14.743  0.00  0.00    -0.239 NA
ATOM     27  C   UNL     1      33.137 -23.150 -17.447  0.00  0.00    +0.149 C 
ATOM     28  C   UNL     1      31.818 -23.063 -17.051  0.00  0.00    +0.061 C 
ATOM     29  C   UNL     1      34.157 -23.247 -16.526  0.00  0.00    +0.058 C 
ATOM     30  C   UNL     1      31.567 -23.076 -15.689  0.00  0.00    +0.137 C 
ATOM     31  C   UNL     1      33.802 -23.252 -15.187  0.00  0.00    +0.102 C 
BRANCH  30  34
ATOM     32  O   UNL     1      29.952 -23.181 -13.992  0.00  0.00    -0.268 OA
ATOM     33  N   UNL     1      29.210 -22.655 -16.124  0.00  0.00    -0.298 N 
ATOM     34  C   UNL     1      30.203 -22.988 -15.195  0.00  0.00    +0.264 C 
ATOM     35  C   UNL     1      27.813 -22.507 -15.783  0.00  0.00    +0.111 C 
ATOM     36  H   UNL     1      29.477 -22.516 -17.061  0.00  0.00    +0.150 HD
ENDBRANCH  30  34
ENDBRANCH  25  27
ENDBRANCH   7  25
TORSDOF 6
ENDMDL
MODEL 8
REMARK VINA RESULT:     -12.4      2.143      2.778
REMARK  Name = 11167118
REMARK  6 active torsions:
REMARK  status: ('A' for Active; 'I' for Inactive)
REMARK    1  A    between atoms: N_2  and  C_6
REMARK    2  A    between atoms: N_2  and  C_15
REMARK    3  A    between atoms: C_8  and  O_25
REMARK    4  A    between atoms: C_17  and  C_24
REMARK    5  A    between atoms: O_25  and  C_27
REMARK    6  A    between atoms: C_30  and  C_34
REMARK                            x       y       z     vdW  Elec       q    Type
REMARK                         _______ _______ _______ _____ _____    ______ ____
ROOT
ATOM      1  N   UNL     1      33.064 -21.135 -19.599  0.00  0.00    -0.302 N 
ATOM      2  N   UNL     1      34.775 -22.306 -18.799  0.00  0.00    -0.302 N 
ATOM      3  C   UNL     1      34.189 -20.499 -20.057  0.00  0.00    +0.063 C 
ATOM      4  C   UNL     1      35.243 -21.249 -19.544  0.00  0.00    +0.060 C 
ATOM      5  C   UNL     1      33.464 -22.209 -18.854  0.00  0.00    +0.225 C 
ATOM      6  C   UNL     1      34.370 -19.365 -20.852  0.00  0.00    +0.053 C 
ATOM      7  C   UNL     1      35.690 -18.994 -21.126  0.00  0.00    +0.147 C 
ATOM      8  C   UNL     1      36.563 -20.861 -19.830  0.00  0.00    +0.019 C 
ATOM      9  C   UNL     1      36.768 -19.727 -20.626  0.00  0.00    +0.039 C 
ATOM     10  H   UNL     1      32.133 -20.867 -19.777  0.00  0.00    +0.150 HD
ATOM     11  H   UNL     1      35.304 -22.990 -18.328  0.00  0.00    +0.150 HD
ENDROOT
BRANCH   5  12
ATOM     12  N   UNL     1      32.515 -22.991 -18.296  0.00  0.00    -0.303 N 
ATOM     13  H   UNL     1      32.033 -23.571 -18.929  0.00  0.00    +0.150 HD
BRANCH  12  15
ATOM     14 CL   UNL     1      30.754 -23.475 -12.659  0.00  0.00    -0.082 Cl
ATOM     15  C   UNL     1      32.101 -23.112 -16.939  0.00  0.00    +0.047 C 
ATOM     16  C   UNL     1      32.983 -23.621 -15.997  0.00  0.00    +0.019 C 
ATOM     17  C   UNL     1      32.577 -23.739 -14.668  0.00  0.00    +0.083 C 
ATOM     18  C   UNL     1      30.820 -22.718 -16.579  0.00  0.00    +0.015 C 
ATOM     19  C   UNL     1      31.292 -23.346 -14.294  0.00  0.00    +0.062 C 
ATOM     20  C   UNL     1      30.413 -22.836 -15.249  0.00  0.00    +0.013 C 
BRANCH  17  24
ATOM     21  F   UNL     1      34.673 -24.759 -14.268  0.00  0.00    -0.166 F 
ATOM     22  F   UNL     1      33.945 -23.361 -12.771  0.00  0.00    -0.166 F 
ATOM     23  F   UNL     1      33.005 -25.317 -12.979  0.00  0.00    -0.166 F 
ATOM     24  C   UNL     1      33.549 -24.290 -13.675  0.00  0.00    +0.419 C 
ENDBRANCH  17  24
ENDBRANCH  12  15
ENDBRANCH   5  12
BRANCH   7  25
ATOM     25  O   UNL     1      35.927 -17.894 -21.897  0.00  0.00    -0.453 OA
BRANCH  25  27
ATOM     26  N   UNL     1      33.998 -17.664 -25.571  0.00  0.00    -0.239 NA
ATOM     27  C   UNL     1      35.285 -17.818 -23.120  0.00  0.00    +0.149 C 
ATOM     28  C   UNL     1      34.884 -16.587 -23.596  0.00  0.00    +0.061 C 
ATOM     29  C   UNL     1      35.060 -18.973 -23.838  0.00  0.00    +0.058 C 
ATOM     30  C   UNL     1      34.246 -16.563 -24.826  0.00  0.00    +0.137 C 
ATOM     31  C   UNL     1      34.413 -18.844 -25.057  0.00  0.00    +0.102 C 
BRANCH  30  34
ATOM     32  O   UNL     1      33.454 -15.234 -26.587  0.00  0.00    -0.268 OA
ATOM     33  N   UNL     1      33.740 -14.202 -24.531  0.00  0.00    -0.298 N 
ATOM     34  C   UNL     1      33.794 -15.304 -25.392  0.00  0.00    +0.264 C 
ATOM     35  C   UNL     1      33.292 -12.888 -24.939  0.00  0.00    +0.111 C 
ATOM     36  H   UNL     1      34.025 -14.326 -23.597  0.00  0.00    +0.150 HD
ENDBRANCH  30  34
ENDBRANCH  25  27
ENDBRANCH   7  25
TORSDOF 6
ENDMDL
MODEL 9
REMARK VINA RESULT:     -12.4      4.663      7.579
REMARK  Name = 11167118
REMARK  6 active torsions:
REMARK  status: ('A' for Active; 'I' for Inactive)
REMARK    1  A    between atoms: N_2  and  C_6
REMARK    2  A    between atoms: N_2  and  C_15
REMARK    3  A    between atoms: C_8  and  O_25
REMARK    4  A    between atoms: C_17  and  C_24
REMARK    5  A    between atoms: O_25  and  C_27
REMARK    6  A    between atoms: C_30  and  C_34
REMARK                            x       y       z     vdW  Elec       q    Type
REMARK                         _______ _______ _______ _____ _____    ______ ____
ROOT
ATOM      1  N   UNL     1      33.820 -16.108 -21.646  0.00  0.00    -0.302 N 
ATOM      2  N   UNL     1      35.070 -15.698 -23.437  0.00  0.00    -0.302 N 
ATOM      3  C   UNL     1      33.372 -14.910 -22.139  0.00  0.00    +0.063 C 
ATOM      4  C   UNL     1      34.169 -14.676 -23.257  0.00  0.00    +0.060 C 
ATOM      5  C   UNL     1      34.834 -16.540 -22.455  0.00  0.00    +0.225 C 
ATOM      6  C   UNL     1      32.368 -14.035 -21.717  0.00  0.00    +0.053 C 
ATOM      7  C   UNL     1      32.181 -12.877 -22.478  0.00  0.00    +0.147 C 
ATOM      8  C   UNL     1      33.967 -13.507 -24.009  0.00  0.00    +0.019 C 
ATOM      9  C   UNL     1      32.965 -12.616 -23.604  0.00  0.00    +0.039 C 
ATOM     10  H   UNL     1      33.472 -16.574 -20.852  0.00  0.00    +0.150 HD
ATOM     11  H   UNL     1      35.747 -15.783 -24.147  0.00  0.00    +0.150 HD
ENDROOT
BRANCH   5  12
ATOM     12  N   UNL     1      35.433 -17.714 -22.158  0.00  0.00    -0.303 N 
ATOM     13  H   UNL     1      36.336 -17.824 -22.535  0.00  0.00    +0.150 HD
BRANCH  12  15
ATOM     14 CL   UNL     1      33.453 -22.297 -18.967  0.00  0.00    -0.082 Cl
ATOM     15  C   UNL     1      34.967 -18.817 -21.389  0.00  0.00    +0.047 C 
ATOM     16  C   UNL     1      35.867 -19.550 -20.628  0.00  0.00    +0.019 C 
ATOM     17  C   UNL     1      35.410 -20.630 -19.873  0.00  0.00    +0.083 C 
ATOM     18  C   UNL     1      33.618 -19.143 -21.410  0.00  0.00    +0.015 C 
ATOM     19  C   UNL     1      34.056 -20.968 -19.888  0.00  0.00    +0.062 C 
ATOM     20  C   UNL     1      33.160 -20.224 -20.656  0.00  0.00    +0.013 C 
BRANCH  17  24
ATOM     21  F   UNL     1      37.050 -20.616 -18.169  0.00  0.00    -0.166 F 
ATOM     22  F   UNL     1      35.823 -22.401 -18.355  0.00  0.00    -0.166 F 
ATOM     23  F   UNL     1      37.343 -21.966 -19.856  0.00  0.00    -0.166 F 
ATOM     24  C   UNL     1      36.401 -21.401 -19.063  0.00  0.00    +0.419 C 
ENDBRANCH  17  24
ENDBRANCH  12  15
ENDBRANCH   5  12
BRANCH   7  25
ATOM     25  O   UNL     1      31.216 -11.987 -22.112  0.00  0.00    -0.453 OA
BRANCH  25  27
ATOM     26  N   UNL     1      32.083  -9.374 -18.999  0.00  0.00    -0.239 NA
ATOM     27  C   UNL     1      31.504 -11.118 -21.075  0.00  0.00    +0.149 C 
ATOM     28  C   UNL     1      31.768  -9.794 -21.359  0.00  0.00    +0.061 C 
ATOM     29  C   UNL     1      31.522 -11.591 -19.781  0.00  0.00    +0.058 C 
ATOM     30  C   UNL     1      32.052  -8.963 -20.287  0.00  0.00    +0.137 C 
ATOM     31  C   UNL     1      31.817 -10.681 -18.779  0.00  0.00    +0.102 C 
BRANCH  30  34
ATOM     32  O   UNL     1      33.025  -6.916 -19.688  0.00  0.00    -0.268 OA
ATOM     33  N   UNL     1      31.837  -6.979 -21.678  0.00  0.00    -0.298 N 
ATOM     34  C   UNL     1      32.340  -7.556 -20.506  0.00  0.00    +0.264 C 
ATOM     35  C   UNL     1      32.057  -5.598 -22.048  0.00  0.00    +0.111 C 
ATOM     36  H   UNL     1      31.302  -7.543 -22.282  0.00  0.00    +0.150 HD
ENDBRANCH  30  34
ENDBRANCH  25  27
ENDBRANCH   7  25
TORSDOF 6
ENDMDL
