MODEL 1
REMARK VINA RESULT:      -6.8      0.000      0.000
REMARK  Name = 7172
REMARK  5 active torsions:
REMARK  status: ('A' for Active; 'I' for Inactive)
REMARK    1  A    between atoms: C_1  and  C_2
REMARK    2  A    between atoms: C_1  and  O_10
REMARK    3  A    between atoms: C_1  and  C_12
REMARK    4  A    between atoms: C_7  and  O_8
REMARK    5  A    between atoms: C_12  and  N_13
REMARK                            x       y       z     vdW  Elec       q    Type
REMARK                         _______ _______ _______ _____ _____    ______ ____
ROOT
ATOM      1  C   UNL     1      35.789 -18.426 -21.799  0.00  0.00    +0.112 C 
ENDROOT
BRANCH   1   2
ATOM      2  C   UNL     1      35.011 -19.447 -21.040  0.00  0.00    +0.002 C 
ATOM      3  C   UNL     1      35.678 -20.462 -20.351  0.00  0.00    +0.001 C 
ATOM      4  C   UNL     1      33.618 -19.388 -21.017  0.00  0.00    +0.001 C 
ATOM      5  C   UNL     1      34.950 -21.417 -19.640  0.00  0.00    +0.036 C 
ATOM      6  C   UNL     1      32.891 -20.343 -20.306  0.00  0.00    +0.036 C 
ATOM      7  C   UNL     1      33.557 -21.357 -19.618  0.00  0.00    +0.134 C 
BRANCH   7   8
ATOM      8  O   UNL     1      32.848 -22.290 -18.925  0.00  0.00    -0.506 OA
ATOM      9  H   UNL     1      32.731 -22.198 -18.000  0.00  0.00    +0.292 HD
ENDBRANCH   7   8
ENDBRANCH   1   2
BRANCH   1  10
ATOM     10  O   UNL     1      37.186 -18.726 -21.689  0.00  0.00    -0.382 OA
ATOM     11  H   UNL     1      37.691 -18.136 -22.271  0.00  0.00    +0.211 HD
ENDBRANCH   1  10
BRANCH   1  12
ATOM     12  C   UNL     1      35.390 -18.378 -23.288  0.00  0.00    -0.047 C 
BRANCH  12  13
ATOM     13  N   UNL     1      35.472 -17.022 -23.823  0.00  0.00    +0.384 N 
ATOM     14  C   UNL     1      34.767 -16.923 -25.091  0.00  0.00    -0.106 C 
ATOM     15  H   UNL     1      36.452 -16.777 -23.965  0.00  0.00    -0.085 HD
ATOM     16  H   UNL     1      35.040 -16.380 -23.157  0.00  0.00    -0.085 HD
ENDBRANCH  12  13
ENDBRANCH   1  12
TORSDOF 5
ENDMDL
MODEL 2
REMARK VINA RESULT:      -6.7      1.073      1.168
REMARK  Name = 7172
REMARK  5 active torsions:
REMARK  status: ('A' for Active; 'I' for Inactive)
REMARK    1  A    between atoms: C_1  and  C_2
REMARK    2  A    between atoms: C_1  and  O_10
REMARK    3  A    between atoms: C_1  and  C_12
REMARK    4  A    between atoms: C_7  and  O_8
REMARK    5  A    between atoms: C_12  and  N_13
REMARK                            x       y       z     vdW  Elec       q    Type
REMARK                         _______ _______ _______ _____ _____    ______ ____
ROOT
ATOM      1  C   UNL     1      34.568 -18.233 -21.752  0.00  0.00    +0.112 C 
ENDROOT
BRANCH   1   2
ATOM      2  C   UNL     1      34.573 -19.478 -20.932  0.00  0.00    +0.002 C 
ATOM      3  C   UNL     1      35.783 -20.079 -20.583  0.00  0.00    +0.001 C 
ATOM      4  C   UNL     1      33.367 -20.042 -20.513  0.00  0.00    +0.001 C 
ATOM      5  C   UNL     1      35.787 -21.244 -19.815  0.00  0.00    +0.036 C 
ATOM      6  C   UNL     1      33.373 -21.206 -19.746  0.00  0.00    +0.036 C 
ATOM      7  C   UNL     1      34.582 -21.808 -19.396  0.00  0.00    +0.134 C 
BRANCH   7   8
ATOM      8  O   UNL     1      34.587 -22.945 -18.648  0.00  0.00    -0.506 OA
ATOM      9  H   UNL     1      34.515 -23.781 -19.065  0.00  0.00    +0.292 HD
ENDBRANCH   7   8
ENDBRANCH   1   2
BRANCH   1  10
ATOM     10  O   UNL     1      35.218 -17.187 -21.018  0.00  0.00    -0.382 OA
ATOM     11  H   UNL     1      35.040 -17.298 -20.071  0.00  0.00    +0.211 HD
ENDBRANCH   1  10
BRANCH   1  12
ATOM     12  C   UNL     1      35.277 -18.426 -23.108  0.00  0.00    -0.047 C 
BRANCH  12  13
ATOM     13  N   UNL     1      35.469 -17.154 -23.800  0.00  0.00    +0.384 N 
ATOM     14  C   UNL     1      34.713 -17.122 -25.042  0.00  0.00    -0.106 C 
ATOM     15  H   UNL     1      36.460 -17.032 -24.008  0.00  0.00    -0.085 HD
ATOM     16  H   UNL     1      35.138 -16.399 -23.197  0.00  0.00    -0.085 HD
ENDBRANCH  12  13
ENDBRANCH   1  12
TORSDOF 5
ENDMDL
MODEL 3
REMARK VINA RESULT:      -6.5      1.934      2.587
REMARK  Name = 7172
REMARK  5 active torsions:
REMARK  status: ('A' for Active; 'I' for Inactive)
REMARK    1  A    between atoms: C_1  and  C_2
REMARK    2  A    between atoms: C_1  and  O_10
REMARK    3  A    between atoms: C_1  and  C_12
REMARK    4  A    between atoms: C_7  and  O_8
REMARK    5  A    between atoms: C_12  and  N_13
REMARK                            x       y       z     vdW  Elec       q    Type
REMARK                         _______ _______ _______ _____ _____    ______ ____
ROOT
ATOM      1  C   UNL     1      35.044 -18.950 -21.758  0.00  0.00    +0.112 C 
ENDROOT
BRANCH   1   2
ATOM      2  C   UNL     1      34.850 -20.041 -20.760  0.00  0.00    +0.002 C 
ATOM      3  C   UNL     1      33.561 -20.422 -20.384  0.00  0.00    +0.001 C 
ATOM      4  C   UNL     1      35.957 -20.681 -20.203  0.00  0.00    +0.001 C 
ATOM      5  C   UNL     1      33.380 -21.443 -19.451  0.00  0.00    +0.036 C 
ATOM      6  C   UNL     1      35.775 -21.702 -19.270  0.00  0.00    +0.036 C 
ATOM      7  C   UNL     1      34.487 -22.083 -18.894  0.00  0.00    +0.134 C 
BRANCH   7   8
ATOM      8  O   UNL     1      34.309 -23.078 -17.982  0.00  0.00    -0.506 OA
ATOM      9  H   UNL     1      33.554 -23.631 -18.033  0.00  0.00    +0.292 HD
ENDBRANCH   7   8
ENDBRANCH   1   2
BRANCH   1  10
ATOM     10  O   UNL     1      34.625 -19.416 -23.047  0.00  0.00    -0.382 OA
ATOM     11  H   UNL     1      34.243 -18.679 -23.549  0.00  0.00    +0.211 HD
ENDBRANCH   1  10
BRANCH   1  12
ATOM     12  C   UNL     1      34.254 -17.677 -21.390  0.00  0.00    -0.047 C 
BRANCH  12  13
ATOM     13  N   UNL     1      35.058 -16.759 -20.588  0.00  0.00    +0.384 N 
ATOM     14  C   UNL     1      34.483 -15.423 -20.601  0.00  0.00    -0.106 C 
ATOM     15  H   UNL     1      36.003 -16.721 -20.969  0.00  0.00    -0.085 HD
ATOM     16  H   UNL     1      35.078 -17.097 -19.625  0.00  0.00    -0.085 HD
ENDBRANCH  12  13
ENDBRANCH   1  12
TORSDOF 5
ENDMDL
MODEL 4
REMARK VINA RESULT:      -6.4      2.511      5.341
REMARK  Name = 7172
REMARK  5 active torsions:
REMARK  status: ('A' for Active; 'I' for Inactive)
REMARK    1  A    between atoms: C_1  and  C_2
REMARK    2  A    between atoms: C_1  and  O_10
REMARK    3  A    between atoms: C_1  and  C_12
REMARK    4  A    between atoms: C_7  and  O_8
REMARK    5  A    between atoms: C_12  and  N_13
REMARK                            x       y       z     vdW  Elec       q    Type
REMARK                         _______ _______ _______ _____ _____    ______ ____
ROOT
ATOM      1  C   UNL     1      35.688 -18.397 -21.635  0.00  0.00    +0.112 C 
ENDROOT
BRANCH   1   2
ATOM      2  C   UNL     1      35.177 -17.725 -22.864  0.00  0.00    +0.002 C 
ATOM      3  C   UNL     1      35.004 -18.457 -24.039  0.00  0.00    +0.001 C 
ATOM      4  C   UNL     1      34.873 -16.364 -22.839  0.00  0.00    +0.001 C 
ATOM      5  C   UNL     1      34.526 -17.829 -25.189  0.00  0.00    +0.036 C 
ATOM      6  C   UNL     1      34.395 -15.736 -23.989  0.00  0.00    +0.036 C 
ATOM      7  C   UNL     1      34.221 -16.467 -25.164  0.00  0.00    +0.134 C 
BRANCH   7   8
ATOM      8  O   UNL     1      33.756 -15.854 -26.287  0.00  0.00    -0.506 OA
ATOM      9  H   UNL     1      32.835 -15.819 -26.454  0.00  0.00    +0.292 HD
ENDBRANCH   7   8
ENDBRANCH   1   2
BRANCH   1  10
ATOM     10  O   UNL     1      35.515 -17.519 -20.515  0.00  0.00    -0.382 OA
ATOM     11  H   UNL     1      35.397 -16.610 -20.833  0.00  0.00    +0.211 HD
ENDBRANCH   1  10
BRANCH   1  12
ATOM     12  C   UNL     1      34.965 -19.731 -21.357  0.00  0.00    -0.047 C 
BRANCH  12  13
ATOM     13  N   UNL     1      33.602 -19.514 -20.879  0.00  0.00    +0.384 N 
ATOM     14  C   UNL     1      33.160 -20.629 -20.056  0.00  0.00    -0.106 C 
ATOM     15  H   UNL     1      32.978 -19.421 -21.680  0.00  0.00    -0.085 HD
ATOM     16  H   UNL     1      33.584 -18.664 -20.315  0.00  0.00    -0.085 HD
ENDBRANCH  12  13
ENDBRANCH   1  12
TORSDOF 5
ENDMDL
MODEL 5
REMARK VINA RESULT:      -6.4      2.515      5.391
REMARK  Name = 7172
REMARK  5 active torsions:
REMARK  status: ('A' for Active; 'I' for Inactive)
REMARK    1  A    between atoms: C_1  and  C_2
REMARK    2  A    between atoms: C_1  and  O_10
REMARK    3  A    between atoms: C_1  and  C_12
REMARK    4  A    between atoms: C_7  and  O_8
REMARK    5  A    between atoms: C_12  and  N_13
REMARK                            x       y       z     vdW  Elec       q    Type
REMARK                         _______ _______ _______ _____ _____    ______ ____
ROOT
ATOM      1  C   UNL     1      35.744 -18.276 -21.575  0.00  0.00    +0.112 C 
ENDROOT
BRANCH   1   2
ATOM      2  C   UNL     1      35.217 -17.643 -22.818  0.00  0.00    +0.002 C 
ATOM      3  C   UNL     1      34.906 -16.282 -22.831  0.00  0.00    +0.001 C 
ATOM      4  C   UNL     1      35.034 -18.411 -23.968  0.00  0.00    +0.001 C 
ATOM      5  C   UNL     1      34.414 -15.690 -23.994  0.00  0.00    +0.036 C 
ATOM      6  C   UNL     1      34.542 -17.817 -25.131  0.00  0.00    +0.036 C 
ATOM      7  C   UNL     1      34.232 -16.458 -25.145  0.00  0.00    +0.134 C 
BRANCH   7   8
ATOM      8  O   UNL     1      33.750 -15.879 -26.279  0.00  0.00    -0.506 OA
ATOM      9  H   UNL     1      34.134 -16.083 -27.108  0.00  0.00    +0.292 HD
ENDBRANCH   7   8
ENDBRANCH   1   2
BRANCH   1  10
ATOM     10  O   UNL     1      35.534 -17.385 -20.472  0.00  0.00    -0.382 OA
ATOM     11  H   UNL     1      35.386 -16.486 -20.806  0.00  0.00    +0.211 HD
ENDBRANCH   1  10
BRANCH   1  12
ATOM     12  C   UNL     1      35.066 -19.629 -21.278  0.00  0.00    -0.047 C 
BRANCH  12  13
ATOM     13  N   UNL     1      33.688 -19.453 -20.827  0.00  0.00    +0.384 N 
ATOM     14  C   UNL     1      33.236 -20.618 -20.083  0.00  0.00    -0.106 C 
ATOM     15  H   UNL     1      33.085 -19.318 -21.638  0.00  0.00    -0.085 HD
ATOM     16  H   UNL     1      33.646 -18.637 -20.214  0.00  0.00    -0.085 HD
ENDBRANCH  12  13
ENDBRANCH   1  12
TORSDOF 5
ENDMDL
MODEL 6
REMARK VINA RESULT:      -6.3      3.438      5.983
REMARK  Name = 7172
REMARK  5 active torsions:
REMARK  status: ('A' for Active; 'I' for Inactive)
REMARK    1  A    between atoms: C_1  and  C_2
REMARK    2  A    between atoms: C_1  and  O_10
REMARK    3  A    between atoms: C_1  and  C_12
REMARK    4  A    between atoms: C_7  and  O_8
REMARK    5  A    between atoms: C_12  and  N_13
REMARK                            x       y       z     vdW  Elec       q    Type
REMARK                         _______ _______ _______ _____ _____    ______ ____
ROOT
ATOM      1  C   UNL     1      33.726 -22.719 -18.763  0.00  0.00    +0.112 C 
ENDROOT
BRANCH   1   2
ATOM      2  C   UNL     1      34.297 -21.569 -19.521  0.00  0.00    +0.002 C 
ATOM      3  C   UNL     1      33.448 -20.661 -20.156  0.00  0.00    +0.001 C 
ATOM      4  C   UNL     1      35.679 -21.400 -19.595  0.00  0.00    +0.001 C 
ATOM      5  C   UNL     1      33.982 -19.585 -20.865  0.00  0.00    +0.036 C 
ATOM      6  C   UNL     1      36.213 -20.323 -20.304  0.00  0.00    +0.036 C 
ATOM      7  C   UNL     1      35.365 -19.416 -20.939  0.00  0.00    +0.134 C 
BRANCH   7   8
ATOM      8  O   UNL     1      35.885 -18.366 -21.632  0.00  0.00    -0.506 OA
ATOM      9  H   UNL     1      35.978 -18.419 -22.563  0.00  0.00    +0.292 HD
ENDBRANCH   7   8
ENDBRANCH   1   2
BRANCH   1  10
ATOM     10  O   UNL     1      33.968 -23.927 -19.494  0.00  0.00    -0.382 OA
ATOM     11  H   UNL     1      34.770 -23.825 -20.031  0.00  0.00    +0.211 HD
ENDBRANCH   1  10
BRANCH   1  12
ATOM     12  C   UNL     1      34.332 -22.843 -17.350  0.00  0.00    -0.047 C 
BRANCH  12  13
ATOM     13  N   UNL     1      33.437 -23.558 -16.443  0.00  0.00    +0.384 N 
ATOM     14  C   UNL     1      32.068 -23.092 -16.595  0.00  0.00    -0.106 C 
ATOM     15  H   UNL     1      33.740 -23.401 -15.482  0.00  0.00    -0.085 HD
ATOM     16  H   UNL     1      33.470 -24.553 -16.667  0.00  0.00    -0.085 HD
ENDBRANCH  12  13
ENDBRANCH   1  12
TORSDOF 5
ENDMDL
MODEL 7
REMARK VINA RESULT:      -6.2      2.604      5.310
REMARK  Name = 7172
REMARK  5 active torsions:
REMARK  status: ('A' for Active; 'I' for Inactive)
REMARK    1  A    between atoms: C_1  and  C_2
REMARK    2  A    between atoms: C_1  and  O_10
REMARK    3  A    between atoms: C_1  and  C_12
REMARK    4  A    between atoms: C_7  and  O_8
REMARK    5  A    between atoms: C_12  and  N_13
REMARK                            x       y       z     vdW  Elec       q    Type
REMARK                         _______ _______ _______ _____ _____    ______ ____
ROOT
ATOM      1  C   UNL     1      34.781 -19.263 -20.866  0.00  0.00    +0.112 C 
ENDROOT
BRANCH   1   2
ATOM      2  C   UNL     1      34.785 -18.570 -22.186  0.00  0.00    +0.002 C 
ATOM      3  C   UNL     1      34.929 -17.183 -22.245  0.00  0.00    +0.001 C 
ATOM      4  C   UNL     1      34.646 -19.307 -23.362  0.00  0.00    +0.001 C 
ATOM      5  C   UNL     1      34.933 -16.534 -23.480  0.00  0.00    +0.036 C 
ATOM      6  C   UNL     1      34.651 -18.658 -24.596  0.00  0.00    +0.036 C 
ATOM      7  C   UNL     1      34.794 -17.272 -24.656  0.00  0.00    +0.134 C 
BRANCH   7   8
ATOM      8  O   UNL     1      34.798 -16.637 -25.860  0.00  0.00    -0.506 OA
ATOM      9  H   UNL     1      35.561 -16.664 -26.402  0.00  0.00    +0.292 HD
ENDBRANCH   7   8
ENDBRANCH   1   2
BRANCH   1  10
ATOM     10  O   UNL     1      33.490 -19.848 -20.649  0.00  0.00    -0.382 OA
ATOM     11  H   UNL     1      33.538 -20.472 -19.908  0.00  0.00    +0.211 HD
ENDBRANCH   1  10
BRANCH   1  12
ATOM     12  C   UNL     1      35.862 -20.360 -20.780  0.00  0.00    -0.047 C 
BRANCH  12  13
ATOM     13  N   UNL     1      36.506 -20.378 -19.470  0.00  0.00    +0.384 N 
ATOM     14  C   UNL     1      36.209 -21.615 -18.765  0.00  0.00    -0.106 C 
ATOM     15  H   UNL     1      36.167 -19.589 -18.919  0.00  0.00    -0.085 HD
ATOM     16  H   UNL     1      37.517 -20.311 -19.600  0.00  0.00    -0.085 HD
ENDBRANCH  12  13
ENDBRANCH   1  12
TORSDOF 5
ENDMDL
MODEL 8
REMARK VINA RESULT:      -6.2      3.083      5.682
REMARK  Name = 7172
REMARK  5 active torsions:
REMARK  status: ('A' for Active; 'I' for Inactive)
REMARK    1  A    between atoms: C_1  and  C_2
REMARK    2  A    between atoms: C_1  and  O_10
REMARK    3  A    between atoms: C_1  and  C_12
REMARK    4  A    between atoms: C_7  and  O_8
REMARK    5  A    between atoms: C_12  and  N_13
REMARK                            x       y       z     vdW  Elec       q    Type
REMARK                         _______ _______ _______ _____ _____    ______ ____
ROOT
ATOM      1  C   UNL     1      35.124 -17.100 -21.546  0.00  0.00    +0.112 C 
ENDROOT
BRANCH   1   2
ATOM      2  C   UNL     1      34.679 -16.627 -22.889  0.00  0.00    +0.002 C 
ATOM      3  C   UNL     1      34.934 -17.402 -24.021  0.00  0.00    +0.001 C 
ATOM      4  C   UNL     1      34.006 -15.411 -23.012  0.00  0.00    +0.001 C 
ATOM      5  C   UNL     1      34.517 -16.960 -25.277  0.00  0.00    +0.036 C 
ATOM      6  C   UNL     1      33.590 -14.971 -24.268  0.00  0.00    +0.036 C 
ATOM      7  C   UNL     1      33.845 -15.744 -25.401  0.00  0.00    +0.134 C 
BRANCH   7   8
ATOM      8  O   UNL     1      33.440 -15.313 -26.627  0.00  0.00    -0.506 OA
ATOM      9  H   UNL     1      32.547 -15.423 -26.891  0.00  0.00    +0.292 HD
ENDBRANCH   7   8
ENDBRANCH   1   2
BRANCH   1  10
ATOM     10  O   UNL     1      34.944 -16.043 -20.595  0.00  0.00    -0.382 OA
ATOM     11  H   UNL     1      34.098 -16.162 -20.136  0.00  0.00    +0.211 HD
ENDBRANCH   1  10
BRANCH   1  12
ATOM     12  C   UNL     1      34.346 -18.348 -21.080  0.00  0.00    -0.047 C 
BRANCH  12  13
ATOM     13  N   UNL     1      35.247 -19.413 -20.649  0.00  0.00    +0.384 N 
ATOM     14  C   UNL     1      36.624 -19.097 -20.998  0.00  0.00    -0.106 C 
ATOM     15  H   UNL     1      34.978 -20.284 -21.105  0.00  0.00    -0.085 HD
ATOM     16  H   UNL     1      35.180 -19.508 -19.635  0.00  0.00    -0.085 HD
ENDBRANCH  12  13
ENDBRANCH   1  12
TORSDOF 5
ENDMDL
MODEL 9
REMARK VINA RESULT:      -6.1      2.538      3.818
REMARK  Name = 7172
REMARK  5 active torsions:
REMARK  status: ('A' for Active; 'I' for Inactive)
REMARK    1  A    between atoms: C_1  and  C_2
REMARK    2  A    between atoms: C_1  and  O_10
REMARK    3  A    between atoms: C_1  and  C_12
REMARK    4  A    between atoms: C_7  and  O_8
REMARK    5  A    between atoms: C_12  and  N_13
REMARK                            x       y       z     vdW  Elec       q    Type
REMARK                         _______ _______ _______ _____ _____    ______ ____
ROOT
ATOM      1  C   UNL     1      34.831 -16.295 -24.783  0.00  0.00    +0.112 C 
ENDROOT
BRANCH   1   2
ATOM      2  C   UNL     1      34.897 -17.191 -23.592  0.00  0.00    +0.002 C 
ATOM      3  C   UNL     1      34.792 -18.573 -23.752  0.00  0.00    +0.001 C 
ATOM      4  C   UNL     1      35.066 -16.647 -22.319  0.00  0.00    +0.001 C 
ATOM      5  C   UNL     1      34.855 -19.411 -22.638  0.00  0.00    +0.036 C 
ATOM      6  C   UNL     1      35.129 -17.485 -21.206  0.00  0.00    +0.036 C 
ATOM      7  C   UNL     1      35.023 -18.867 -21.365  0.00  0.00    +0.134 C 
BRANCH   7   8
ATOM      8  O   UNL     1      35.083 -19.685 -20.279  0.00  0.00    -0.506 OA
ATOM      9  H   UNL     1      34.296 -20.041 -19.916  0.00  0.00    +0.292 HD
ENDBRANCH   7   8
ENDBRANCH   1   2
BRANCH   1  10
ATOM     10  O   UNL     1      34.773 -17.098 -25.969  0.00  0.00    -0.382 OA
ATOM     11  H   UNL     1      35.290 -17.908 -25.837  0.00  0.00    +0.211 HD
ENDBRANCH   1  10
BRANCH   1  12
ATOM     12  C   UNL     1      33.608 -15.356 -24.738  0.00  0.00    -0.047 C 
BRANCH  12  13
ATOM     13  N   UNL     1      32.969 -15.243 -26.046  0.00  0.00    +0.384 N 
ATOM     14  C   UNL     1      33.093 -13.890 -26.566  0.00  0.00    -0.106 C 
ATOM     15  H   UNL     1      31.981 -15.479 -25.957  0.00  0.00    -0.085 HD
ATOM     16  H   UNL     1      33.430 -15.885 -26.692  0.00  0.00    -0.085 HD
ENDBRANCH  12  13
ENDBRANCH   1  12
TORSDOF 5
ENDMDL
