MODEL 1
REMARK VINA RESULT:      -1.8      0.000      0.000
REMARK  Name = 807
REMARK  0 active torsions:
REMARK  status: ('A' for Active; 'I' for Inactive)
REMARK                            x       y       z     vdW  Elec       q    Type
REMARK                         _______ _______ _______ _____ _____    ______ ____
ROOT
ATOM      1  I   UNL     1      33.184 -20.131 -20.575  0.00  0.00    +0.000 I 
ATOM      2  I   UNL     1      35.251 -18.770 -21.528  0.00  0.00    +0.000 I 
ENDROOT
TORSDOF 0
ENDMDL
MODEL 2
REMARK VINA RESULT:      -1.8      0.042      2.652
REMARK  Name = 807
REMARK  0 active torsions:
REMARK  status: ('A' for Active; 'I' for Inactive)
REMARK                            x       y       z     vdW  Elec       q    Type
REMARK                         _______ _______ _______ _____ _____    ______ ____
ROOT
ATOM      1  I   UNL     1      35.234 -18.769 -21.567  0.00  0.00    +0.000 I 
ATOM      2  I   UNL     1      33.211 -20.153 -20.555  0.00  0.00    +0.000 I 
ENDROOT
TORSDOF 0
ENDMDL
MODEL 3
REMARK VINA RESULT:      -1.8      2.238      2.485
REMARK  Name = 807
REMARK  0 active torsions:
REMARK  status: ('A' for Active; 'I' for Inactive)
REMARK                            x       y       z     vdW  Elec       q    Type
REMARK                         _______ _______ _______ _____ _____    ______ ____
ROOT
ATOM      1  I   UNL     1      34.613 -19.384 -21.243  0.00  0.00    +0.000 I 
ATOM      2  I   UNL     1      35.907 -21.204 -19.812  0.00  0.00    +0.000 I 
ENDROOT
TORSDOF 0
ENDMDL
MODEL 4
REMARK VINA RESULT:      -1.8      2.155      2.155
REMARK  Name = 807
REMARK  0 active torsions:
REMARK  status: ('A' for Active; 'I' for Inactive)
REMARK                            x       y       z     vdW  Elec       q    Type
REMARK                         _______ _______ _______ _____ _____    ______ ____
ROOT
ATOM      1  I   UNL     1      35.734 -21.260 -19.818  0.00  0.00    +0.000 I 
ATOM      2  I   UNL     1      34.545 -19.371 -21.251  0.00  0.00    +0.000 I 
ENDROOT
TORSDOF 0
ENDMDL
MODEL 5
REMARK VINA RESULT:      -1.8      1.706      1.829
REMARK  Name = 807
REMARK  0 active torsions:
REMARK  status: ('A' for Active; 'I' for Inactive)
REMARK                            x       y       z     vdW  Elec       q    Type
REMARK                         _______ _______ _______ _____ _____    ______ ____
ROOT
ATOM      1  I   UNL     1      34.312 -19.398 -21.229  0.00  0.00    +0.000 I 
ATOM      2  I   UNL     1      35.045 -18.488 -23.610  0.00  0.00    +0.000 I 
ENDROOT
TORSDOF 0
ENDMDL
MODEL 6
REMARK VINA RESULT:      -1.8     11.878     11.878
REMARK  Name = 807
REMARK  0 active torsions:
REMARK  status: ('A' for Active; 'I' for Inactive)
REMARK                            x       y       z     vdW  Elec       q    Type
REMARK                         _______ _______ _______ _____ _____    ______ ____
ROOT
ATOM      1  I   UNL     1      32.580  -7.767 -21.727  0.00  0.00    +0.000 I 
ATOM      2  I   UNL     1      34.387  -7.711 -23.667  0.00  0.00    +0.000 I 
ENDROOT
TORSDOF 0
ENDMDL
MODEL 7
REMARK VINA RESULT:      -1.8      1.735      2.869
REMARK  Name = 807
REMARK  0 active torsions:
REMARK  status: ('A' for Active; 'I' for Inactive)
REMARK                            x       y       z     vdW  Elec       q    Type
REMARK                         _______ _______ _______ _____ _____    ______ ____
ROOT
ATOM      1  I   UNL     1      34.970 -18.590 -23.665  0.00  0.00    +0.000 I 
ATOM      2  I   UNL     1      34.329 -19.406 -21.224  0.00  0.00    +0.000 I 
ENDROOT
TORSDOF 0
ENDMDL
MODEL 8
REMARK VINA RESULT:      -1.8     11.916     12.146
REMARK  Name = 807
REMARK  0 active torsions:
REMARK  status: ('A' for Active; 'I' for Inactive)
REMARK                            x       y       z     vdW  Elec       q    Type
REMARK                         _______ _______ _______ _____ _____    ______ ____
ROOT
ATOM      1  I   UNL     1      34.362  -7.697 -23.631  0.00  0.00    +0.000 I 
ATOM      2  I   UNL     1      32.591  -7.696 -21.657  0.00  0.00    +0.000 I 
ENDROOT
TORSDOF 0
ENDMDL
MODEL 9
REMARK VINA RESULT:      -1.7     12.242     12.988
REMARK  Name = 807
REMARK  0 active torsions:
REMARK  status: ('A' for Active; 'I' for Inactive)
REMARK                            x       y       z     vdW  Elec       q    Type
REMARK                         _______ _______ _______ _____ _____    ______ ____
ROOT
ATOM      1  I   UNL     1      34.357  -7.682 -23.681  0.00  0.00    +0.000 I 
ATOM      2  I   UNL     1      32.115  -6.307 -24.020  0.00  0.00    +0.000 I 
ENDROOT
TORSDOF 0
ENDMDL
