MODEL 1
REMARK VINA RESULT:      -9.0      0.000      0.000
REMARK  Name = 42548
REMARK  11 active torsions:
REMARK  status: ('A' for Active; 'I' for Inactive)
REMARK    1  A    between atoms: N_1  and  C_4
REMARK    2  A    between atoms: N_1  and  C_16
REMARK    3  A    between atoms: C_10  and  O_14
REMARK    4  A    between atoms: C_16  and  C_17
REMARK    5  A    between atoms: C_17  and  C_18
REMARK    6  A    between atoms: C_18  and  C_19
REMARK    7  A    between atoms: C_19  and  C_20
REMARK    8  A    between atoms: C_20  and  C_21
REMARK    9  A    between atoms: C_21  and  N_22
REMARK   10  A    between atoms: N_22  and  C_24
REMARK   11  A    between atoms: N_22  and  C_26
REMARK                            x       y       z     vdW  Elec       q    Type
REMARK                         _______ _______ _______ _____ _____    ______ ____
ROOT
ATOM      1  N   UNL     1      33.230 -22.625 -18.456  0.00  0.00    -0.331 N 
ATOM      2  H   UNL     1      32.399 -22.332 -18.896  0.00  0.00    +0.147 HD
ENDROOT
BRANCH   1   4
ATOM      3  N   UNL     1      30.807 -22.724 -17.129  0.00  0.00    -0.243 NA
ATOM      4  C   UNL     1      33.151 -23.091 -17.153  0.00  0.00    +0.066 C 
ATOM      5  C   UNL     1      31.923 -23.133 -16.498  0.00  0.00    +0.094 C 
ATOM      6  C   UNL     1      31.895 -23.614 -15.172  0.00  0.00    +0.018 C 
ATOM      7  C   UNL     1      34.329 -23.509 -16.529  0.00  0.00    +0.053 C 
ATOM      8  C   UNL     1      30.660 -23.657 -14.513  0.00  0.00    -0.019 C 
ATOM      9  C   UNL     1      33.079 -24.034 -14.544  0.00  0.00    +0.038 C 
ATOM     10  C   UNL     1      34.294 -23.981 -15.223  0.00  0.00    +0.140 C 
ATOM     11  C   UNL     1      29.508 -23.235 -15.161  0.00  0.00    +0.016 C 
ATOM     12  C   UNL     1      30.523 -24.148 -13.106  0.00  0.00    +0.031 C 
ATOM     13  C   UNL     1      29.635 -22.780 -16.456  0.00  0.00    +0.099 C 
BRANCH  10  14
ATOM     14  O   UNL     1      35.439 -24.389 -14.613  0.00  0.00    -0.471 OA
ATOM     15  C   UNL     1      36.672 -23.940 -15.174  0.00  0.00    +0.252 C 
ENDBRANCH  10  14
ENDBRANCH   1   4
BRANCH   1  16
ATOM     16  C   UNL     1      34.461 -22.546 -19.206  0.00  0.00    +0.087 C 
BRANCH  16  17
ATOM     17  C   UNL     1      34.607 -21.158 -19.825  0.00  0.00    +0.021 C 
BRANCH  17  18
ATOM     18  C   UNL     1      33.242 -20.522 -20.096  0.00  0.00    +0.002 C 
BRANCH  18  19
ATOM     19  C   UNL     1      33.379 -19.267 -20.962  0.00  0.00    -0.002 C 
BRANCH  19  20
ATOM     20  C   UNL     1      34.602 -19.295 -21.885  0.00  0.00    -0.023 C 
BRANCH  20  21
ATOM     21  C   UNL     1      35.548 -18.115 -21.667  0.00  0.00    -0.077 C 
BRANCH  21  22
ATOM     22  N   UNL     1      35.593 -17.280 -22.864  0.00  0.00    +0.387 N 
ATOM     23  H   UNL     1      36.558 -16.988 -23.013  0.00  0.00    -0.080 HD
BRANCH  22  24
ATOM     24  C   UNL     1      34.767 -16.085 -22.688  0.00  0.00    -0.077 C 
ATOM     25  C   UNL     1      34.702 -15.672 -21.228  0.00  0.00    -0.025 C 
ENDBRANCH  22  24
BRANCH  22  26
ATOM     26  C   UNL     1      35.148 -18.037 -24.035  0.00  0.00    -0.077 C 
ATOM     27  C   UNL     1      34.658 -17.111 -25.135  0.00  0.00    -0.025 C 
ENDBRANCH  22  26
ENDBRANCH  21  22
ENDBRANCH  20  21
ENDBRANCH  19  20
ENDBRANCH  18  19
ENDBRANCH  17  18
ENDBRANCH  16  17
ENDBRANCH   1  16
TORSDOF 11
ENDMDL
MODEL 2
REMARK VINA RESULT:      -8.8      7.184     10.508
REMARK  Name = 42548
REMARK  11 active torsions:
REMARK  status: ('A' for Active; 'I' for Inactive)
REMARK    1  A    between atoms: N_1  and  C_4
REMARK    2  A    between atoms: N_1  and  C_16
REMARK    3  A    between atoms: C_10  and  O_14
REMARK    4  A    between atoms: C_16  and  C_17
REMARK    5  A    between atoms: C_17  and  C_18
REMARK    6  A    between atoms: C_18  and  C_19
REMARK    7  A    between atoms: C_19  and  C_20
REMARK    8  A    between atoms: C_20  and  C_21
REMARK    9  A    between atoms: C_21  and  N_22
REMARK   10  A    between atoms: N_22  and  C_24
REMARK   11  A    between atoms: N_22  and  C_26
REMARK                            x       y       z     vdW  Elec       q    Type
REMARK                         _______ _______ _______ _____ _____    ______ ____
ROOT
ATOM      1  N   UNL     1      33.467 -14.011 -22.160  0.00  0.00    -0.331 N 
ATOM      2  H   UNL     1      34.178 -13.851 -21.497  0.00  0.00    +0.147 HD
ENDROOT
BRANCH   1   4
ATOM      3  N   UNL     1      34.395 -16.534 -21.517  0.00  0.00    -0.243 NA
ATOM      4  C   UNL     1      33.693 -14.958 -23.146  0.00  0.00    +0.066 C 
ATOM      5  C   UNL     1      34.162 -16.224 -22.806  0.00  0.00    +0.094 C 
ATOM      6  C   UNL     1      34.379 -17.152 -23.847  0.00  0.00    +0.018 C 
ATOM      7  C   UNL     1      33.440 -14.603 -24.473  0.00  0.00    +0.053 C 
ATOM      8  C   UNL     1      34.850 -18.427 -23.505  0.00  0.00    -0.019 C 
ATOM      9  C   UNL     1      34.124 -16.795 -25.181  0.00  0.00    +0.038 C 
ATOM     10  C   UNL     1      33.656 -15.522 -25.492  0.00  0.00    +0.140 C 
ATOM     11  C   UNL     1      35.091 -18.749 -22.177  0.00  0.00    +0.016 C 
ATOM     12  C   UNL     1      35.114 -19.482 -24.532  0.00  0.00    +0.031 C 
ATOM     13  C   UNL     1      34.850 -17.776 -21.230  0.00  0.00    +0.099 C 
BRANCH  10  14
ATOM     14  O   UNL     1      33.410 -15.179 -26.785  0.00  0.00    -0.471 OA
ATOM     15  C   UNL     1      33.310 -13.786 -27.082  0.00  0.00    +0.252 C 
ENDBRANCH  10  14
ENDBRANCH   1   4
BRANCH   1  16
ATOM     16  C   UNL     1      32.247 -13.248 -22.047  0.00  0.00    +0.087 C 
BRANCH  16  17
ATOM     17  C   UNL     1      32.117 -12.677 -20.637  0.00  0.00    +0.021 C 
BRANCH  17  18
ATOM     18  C   UNL     1      31.363 -11.346 -20.642  0.00  0.00    +0.002 C 
BRANCH  18  19
ATOM     19  C   UNL     1      31.193 -10.811 -22.066  0.00  0.00    -0.002 C 
BRANCH  19  20
ATOM     20  C   UNL     1      31.740  -9.391 -22.251  0.00  0.00    -0.023 C 
BRANCH  20  21
ATOM     21  C   UNL     1      32.432  -9.183 -23.597  0.00  0.00    -0.077 C 
BRANCH  21  22
ATOM     22  N   UNL     1      33.779  -9.746 -23.561  0.00  0.00    +0.387 N 
ATOM     23  H   UNL     1      33.976 -10.038 -22.605  0.00  0.00    -0.080 HD
BRANCH  22  24
ATOM     24  C   UNL     1      34.767  -8.740 -23.954  0.00  0.00    -0.077 C 
ATOM     25  C   UNL     1      34.245  -7.334 -23.717  0.00  0.00    -0.025 C 
ENDBRANCH  22  24
BRANCH  22  26
ATOM     26  C   UNL     1      33.870 -10.916 -24.435  0.00  0.00    -0.077 C 
ATOM     27  C   UNL     1      34.944 -10.731 -25.492  0.00  0.00    -0.025 C 
ENDBRANCH  22  26
ENDBRANCH  21  22
ENDBRANCH  20  21
ENDBRANCH  19  20
ENDBRANCH  18  19
ENDBRANCH  17  18
ENDBRANCH  16  17
ENDBRANCH   1  16
TORSDOF 11
ENDMDL
MODEL 3
REMARK VINA RESULT:      -8.8      7.077     10.522
REMARK  Name = 42548
REMARK  11 active torsions:
REMARK  status: ('A' for Active; 'I' for Inactive)
REMARK    1  A    between atoms: N_1  and  C_4
REMARK    2  A    between atoms: N_1  and  C_16
REMARK    3  A    between atoms: C_10  and  O_14
REMARK    4  A    between atoms: C_16  and  C_17
REMARK    5  A    between atoms: C_17  and  C_18
REMARK    6  A    between atoms: C_18  and  C_19
REMARK    7  A    between atoms: C_19  and  C_20
REMARK    8  A    between atoms: C_20  and  C_21
REMARK    9  A    between atoms: C_21  and  N_22
REMARK   10  A    between atoms: N_22  and  C_24
REMARK   11  A    between atoms: N_22  and  C_26
REMARK                            x       y       z     vdW  Elec       q    Type
REMARK                         _______ _______ _______ _____ _____    ______ ____
ROOT
ATOM      1  N   UNL     1      34.199 -14.324 -21.966  0.00  0.00    -0.331 N 
ATOM      2  H   UNL     1      34.981 -13.733 -21.863  0.00  0.00    +0.147 HD
ENDROOT
BRANCH   1   4
ATOM      3  N   UNL     1      34.918 -16.955 -21.511  0.00  0.00    -0.243 NA
ATOM      4  C   UNL     1      34.210 -15.248 -23.000  0.00  0.00    +0.066 C 
ATOM      5  C   UNL     1      34.575 -16.569 -22.753  0.00  0.00    +0.094 C 
ATOM      6  C   UNL     1      34.572 -17.471 -23.839  0.00  0.00    +0.018 C 
ATOM      7  C   UNL     1      33.847 -14.814 -24.277  0.00  0.00    +0.053 C 
ATOM      8  C   UNL     1      34.940 -18.800 -23.592  0.00  0.00    -0.019 C 
ATOM      9  C   UNL     1      34.208 -17.035 -25.123  0.00  0.00    +0.038 C 
ATOM     10  C   UNL     1      33.847 -15.708 -25.340  0.00  0.00    +0.140 C 
ATOM     11  C   UNL     1      35.294 -19.200 -22.311  0.00  0.00    +0.016 C 
ATOM     12  C   UNL     1      34.970 -19.834 -24.673  0.00  0.00    +0.031 C 
ATOM     13  C   UNL     1      35.267 -18.247 -21.315  0.00  0.00    +0.099 C 
BRANCH  10  14
ATOM     14  O   UNL     1      33.495 -15.288 -26.586  0.00  0.00    -0.471 OA
ATOM     15  C   UNL     1      33.100 -13.924 -26.726  0.00  0.00    +0.252 C 
ENDBRANCH  10  14
ENDBRANCH   1   4
BRANCH   1  16
ATOM     16  C   UNL     1      33.110 -14.180 -21.031  0.00  0.00    +0.087 C 
BRANCH  16  17
ATOM     17  C   UNL     1      32.179 -13.058 -21.483  0.00  0.00    +0.021 C 
BRANCH  17  18
ATOM     18  C   UNL     1      31.734 -12.194 -20.301  0.00  0.00    +0.002 C 
BRANCH  18  19
ATOM     19  C   UNL     1      31.343 -10.787 -20.760  0.00  0.00    -0.002 C 
BRANCH  19  20
ATOM     20  C   UNL     1      31.291 -10.637 -22.284  0.00  0.00    -0.023 C 
BRANCH  20  21
ATOM     21  C   UNL     1      31.540  -9.206 -22.758  0.00  0.00    -0.077 C 
BRANCH  21  22
ATOM     22  N   UNL     1      32.874  -8.770 -22.356  0.00  0.00    +0.387 N 
ATOM     23  H   UNL     1      33.209  -9.398 -21.627  0.00  0.00    -0.080 HD
BRANCH  22  24
ATOM     24  C   UNL     1      32.828  -7.411 -21.814  0.00  0.00    -0.077 C 
ATOM     25  C   UNL     1      32.663  -7.427 -20.304  0.00  0.00    -0.025 C 
ENDBRANCH  22  24
BRANCH  22  26
ATOM     26  C   UNL     1      33.799  -8.834 -23.488  0.00  0.00    -0.077 C 
ATOM     27  C   UNL     1      34.761  -7.659 -23.480  0.00  0.00    -0.025 C 
ENDBRANCH  22  26
ENDBRANCH  21  22
ENDBRANCH  20  21
ENDBRANCH  19  20
ENDBRANCH  18  19
ENDBRANCH  17  18
ENDBRANCH  16  17
ENDBRANCH   1  16
TORSDOF 11
ENDMDL
MODEL 4
REMARK VINA RESULT:      -8.3      1.613      3.652
REMARK  Name = 42548
REMARK  11 active torsions:
REMARK  status: ('A' for Active; 'I' for Inactive)
REMARK    1  A    between atoms: N_1  and  C_4
REMARK    2  A    between atoms: N_1  and  C_16
REMARK    3  A    between atoms: C_10  and  O_14
REMARK    4  A    between atoms: C_16  and  C_17
REMARK    5  A    between atoms: C_17  and  C_18
REMARK    6  A    between atoms: C_18  and  C_19
REMARK    7  A    between atoms: C_19  and  C_20
REMARK    8  A    between atoms: C_20  and  C_21
REMARK    9  A    between atoms: C_21  and  N_22
REMARK   10  A    between atoms: N_22  and  C_24
REMARK   11  A    between atoms: N_22  and  C_26
REMARK                            x       y       z     vdW  Elec       q    Type
REMARK                         _______ _______ _______ _____ _____    ______ ____
ROOT
ATOM      1  N   UNL     1      33.877 -22.882 -18.578  0.00  0.00    -0.331 N 
ATOM      2  H   UNL     1      33.813 -23.638 -19.206  0.00  0.00    +0.147 HD
ENDROOT
BRANCH   1   4
ATOM      3  N   UNL     1      35.879 -23.116 -16.687  0.00  0.00    -0.243 NA
ATOM      4  C   UNL     1      33.573 -23.111 -17.245  0.00  0.00    +0.066 C 
ATOM      5  C   UNL     1      34.594 -23.228 -16.305  0.00  0.00    +0.094 C 
ATOM      6  C   UNL     1      34.234 -23.464 -14.961  0.00  0.00    +0.018 C 
ATOM      7  C   UNL     1      32.229 -23.221 -16.884  0.00  0.00    +0.053 C 
ATOM      8  C   UNL     1      35.260 -23.580 -14.015  0.00  0.00    -0.019 C 
ATOM      9  C   UNL     1      32.882 -23.574 -14.598  0.00  0.00    +0.038 C 
ATOM     10  C   UNL     1      31.882 -23.453 -15.559  0.00  0.00    +0.140 C 
ATOM     11  C   UNL     1      36.587 -23.466 -14.406  0.00  0.00    +0.016 C 
ATOM     12  C   UNL     1      34.985 -23.832 -12.566  0.00  0.00    +0.031 C 
ATOM     13  C   UNL     1      36.840 -23.236 -15.742  0.00  0.00    +0.099 C 
BRANCH  10  14
ATOM     14  O   UNL     1      30.573 -23.561 -15.203  0.00  0.00    -0.471 OA
ATOM     15  C   UNL     1      29.834 -24.647 -15.761  0.00  0.00    +0.252 C 
ENDBRANCH  10  14
ENDBRANCH   1   4
BRANCH   1  16
ATOM     16  C   UNL     1      34.283 -21.598 -19.098  0.00  0.00    +0.087 C 
BRANCH  16  17
ATOM     17  C   UNL     1      33.108 -20.925 -19.802  0.00  0.00    +0.021 C 
BRANCH  17  18
ATOM     18  C   UNL     1      33.583 -19.807 -20.732  0.00  0.00    +0.002 C 
BRANCH  18  19
ATOM     19  C   UNL     1      35.089 -19.901 -20.987  0.00  0.00    -0.002 C 
BRANCH  19  20
ATOM     20  C   UNL     1      35.707 -18.585 -21.472  0.00  0.00    -0.023 C 
BRANCH  20  21
ATOM     21  C   UNL     1      34.838 -17.364 -21.172  0.00  0.00    -0.077 C 
BRANCH  21  22
ATOM     22  N   UNL     1      34.428 -16.722 -22.417  0.00  0.00    +0.387 N 
ATOM     23  H   UNL     1      33.485 -17.038 -22.643  0.00  0.00    -0.080 HD
BRANCH  22  24
ATOM     24  C   UNL     1      35.321 -17.105 -23.512  0.00  0.00    -0.077 C 
ATOM     25  C   UNL     1      34.551 -17.307 -24.805  0.00  0.00    -0.025 C 
ENDBRANCH  22  24
BRANCH  22  26
ATOM     26  C   UNL     1      34.408 -15.267 -22.263  0.00  0.00    -0.077 C 
ATOM     27  C   UNL     1      34.423 -14.869 -20.798  0.00  0.00    -0.025 C 
ENDBRANCH  22  26
ENDBRANCH  21  22
ENDBRANCH  20  21
ENDBRANCH  19  20
ENDBRANCH  18  19
ENDBRANCH  17  18
ENDBRANCH  16  17
ENDBRANCH   1  16
TORSDOF 11
ENDMDL
MODEL 5
REMARK VINA RESULT:      -8.3      6.020     11.977
REMARK  Name = 42548
REMARK  11 active torsions:
REMARK  status: ('A' for Active; 'I' for Inactive)
REMARK    1  A    between atoms: N_1  and  C_4
REMARK    2  A    between atoms: N_1  and  C_16
REMARK    3  A    between atoms: C_10  and  O_14
REMARK    4  A    between atoms: C_16  and  C_17
REMARK    5  A    between atoms: C_17  and  C_18
REMARK    6  A    between atoms: C_18  and  C_19
REMARK    7  A    between atoms: C_19  and  C_20
REMARK    8  A    between atoms: C_20  and  C_21
REMARK    9  A    between atoms: C_21  and  N_22
REMARK   10  A    between atoms: N_22  and  C_24
REMARK   11  A    between atoms: N_22  and  C_26
REMARK                            x       y       z     vdW  Elec       q    Type
REMARK                         _______ _______ _______ _____ _____    ______ ____
ROOT
ATOM      1  N   UNL     1      32.640 -13.618 -24.057  0.00  0.00    -0.331 N 
ATOM      2  H   UNL     1      31.881 -13.855 -24.640  0.00  0.00    +0.147 HD
ENDROOT
BRANCH   1   4
ATOM      3  N   UNL     1      34.274 -11.633 -25.073  0.00  0.00    -0.243 NA
ATOM      4  C   UNL     1      32.659 -12.354 -23.490  0.00  0.00    +0.066 C 
ATOM      5  C   UNL     1      33.489 -11.365 -24.013  0.00  0.00    +0.094 C 
ATOM      6  C   UNL     1      33.474 -10.095 -23.399  0.00  0.00    +0.018 C 
ATOM      7  C   UNL     1      31.831 -12.109 -22.393  0.00  0.00    +0.053 C 
ATOM      8  C   UNL     1      34.309  -9.100 -23.926  0.00  0.00    -0.019 C 
ATOM      9  C   UNL     1      32.642  -9.849 -22.295  0.00  0.00    +0.038 C 
ATOM     10  C   UNL     1      31.822 -10.856 -21.794  0.00  0.00    +0.140 C 
ATOM     11  C   UNL     1      35.119  -9.374 -25.018  0.00  0.00    +0.016 C 
ATOM     12  C   UNL     1      34.369  -7.721 -23.348  0.00  0.00    +0.031 C 
ATOM     13  C   UNL     1      35.065 -10.645 -25.549  0.00  0.00    +0.099 C 
BRANCH  10  14
ATOM     14  O   UNL     1      31.016 -10.615 -20.724  0.00  0.00    -0.471 OA
ATOM     15  C   UNL     1      31.432 -11.142 -19.464  0.00  0.00    +0.252 C 
ENDBRANCH  10  14
ENDBRANCH   1   4
BRANCH   1  16
ATOM     16  C   UNL     1      33.666 -14.609 -23.841  0.00  0.00    +0.087 C 
BRANCH  16  17
ATOM     17  C   UNL     1      33.705 -15.586 -25.013  0.00  0.00    +0.021 C 
BRANCH  17  18
ATOM     18  C   UNL     1      34.854 -16.585 -24.869  0.00  0.00    +0.002 C 
BRANCH  18  19
ATOM     19  C   UNL     1      34.349 -18.027 -24.958  0.00  0.00    -0.002 C 
BRANCH  19  20
ATOM     20  C   UNL     1      34.957 -18.951 -23.897  0.00  0.00    -0.023 C 
BRANCH  20  21
ATOM     21  C   UNL     1      35.736 -18.199 -22.818  0.00  0.00    -0.077 C 
BRANCH  21  22
ATOM     22  N   UNL     1      35.123 -18.419 -21.511  0.00  0.00    +0.387 N 
ATOM     23  H   UNL     1      35.849 -18.339 -20.801  0.00  0.00    -0.080 HD
BRANCH  22  24
ATOM     24  C   UNL     1      34.543 -19.761 -21.435  0.00  0.00    -0.077 C 
ATOM     25  C   UNL     1      33.202 -19.740 -20.723  0.00  0.00    -0.025 C 
ENDBRANCH  22  24
BRANCH  22  26
ATOM     26  C   UNL     1      34.099 -17.408 -21.247  0.00  0.00    -0.077 C 
ATOM     27  C   UNL     1      34.718 -16.115 -20.746  0.00  0.00    -0.025 C 
ENDBRANCH  22  26
ENDBRANCH  21  22
ENDBRANCH  20  21
ENDBRANCH  19  20
ENDBRANCH  18  19
ENDBRANCH  17  18
ENDBRANCH  16  17
ENDBRANCH   1  16
TORSDOF 11
ENDMDL
MODEL 6
REMARK VINA RESULT:      -8.2      1.547      3.388
REMARK  Name = 42548
REMARK  11 active torsions:
REMARK  status: ('A' for Active; 'I' for Inactive)
REMARK    1  A    between atoms: N_1  and  C_4
REMARK    2  A    between atoms: N_1  and  C_16
REMARK    3  A    between atoms: C_10  and  O_14
REMARK    4  A    between atoms: C_16  and  C_17
REMARK    5  A    between atoms: C_17  and  C_18
REMARK    6  A    between atoms: C_18  and  C_19
REMARK    7  A    between atoms: C_19  and  C_20
REMARK    8  A    between atoms: C_20  and  C_21
REMARK    9  A    between atoms: C_21  and  N_22
REMARK   10  A    between atoms: N_22  and  C_24
REMARK   11  A    between atoms: N_22  and  C_26
REMARK                            x       y       z     vdW  Elec       q    Type
REMARK                         _______ _______ _______ _____ _____    ______ ____
ROOT
ATOM      1  N   UNL     1      33.637 -22.889 -18.584  0.00  0.00    -0.331 N 
ATOM      2  H   UNL     1      33.522 -23.645 -19.205  0.00  0.00    +0.147 HD
ENDROOT
BRANCH   1   4
ATOM      3  N   UNL     1      35.668 -23.177 -16.732  0.00  0.00    -0.243 NA
ATOM      4  C   UNL     1      33.353 -23.096 -17.243  0.00  0.00    +0.066 C 
ATOM      5  C   UNL     1      34.388 -23.240 -16.323  0.00  0.00    +0.094 C 
ATOM      6  C   UNL     1      34.047 -23.451 -14.970  0.00  0.00    +0.018 C 
ATOM      7  C   UNL     1      32.013 -23.154 -16.853  0.00  0.00    +0.053 C 
ATOM      8  C   UNL     1      35.089 -23.596 -14.044  0.00  0.00    -0.019 C 
ATOM      9  C   UNL     1      32.700 -23.510 -14.578  0.00  0.00    +0.038 C 
ATOM     10  C   UNL     1      31.685 -23.362 -15.519  0.00  0.00    +0.140 C 
ATOM     11  C   UNL     1      36.410 -23.532 -14.462  0.00  0.00    +0.016 C 
ATOM     12  C   UNL     1      34.834 -23.824 -12.587  0.00  0.00    +0.031 C 
ATOM     13  C   UNL     1      36.644 -23.323 -15.805  0.00  0.00    +0.099 C 
BRANCH  10  14
ATOM     14  O   UNL     1      30.381 -23.420 -15.137  0.00  0.00    -0.471 OA
ATOM     15  C   UNL     1      29.407 -22.961 -16.073  0.00  0.00    +0.252 C 
ENDBRANCH  10  14
ENDBRANCH   1   4
BRANCH   1  16
ATOM     16  C   UNL     1      34.093 -21.630 -19.121  0.00  0.00    +0.087 C 
BRANCH  16  17
ATOM     17  C   UNL     1      33.026 -21.036 -20.037  0.00  0.00    +0.021 C 
BRANCH  17  18
ATOM     18  C   UNL     1      33.521 -19.755 -20.711  0.00  0.00    +0.002 C 
BRANCH  18  19
ATOM     19  C   UNL     1      35.050 -19.716 -20.773  0.00  0.00    -0.002 C 
BRANCH  19  20
ATOM     20  C   UNL     1      35.598 -18.477 -21.488  0.00  0.00    -0.023 C 
BRANCH  20  21
ATOM     21  C   UNL     1      34.561 -17.779 -22.366  0.00  0.00    -0.077 C 
BRANCH  21  22
ATOM     22  N   UNL     1      35.220 -17.097 -23.476  0.00  0.00    +0.387 N 
ATOM     23  H   UNL     1      36.222 -17.271 -23.407  0.00  0.00    -0.080 HD
BRANCH  22  24
ATOM     24  C   UNL     1      34.993 -15.653 -23.399  0.00  0.00    -0.077 C 
ATOM     25  C   UNL     1      33.727 -15.337 -22.622  0.00  0.00    -0.025 C 
ENDBRANCH  22  24
BRANCH  22  26
ATOM     26  C   UNL     1      34.743 -17.618 -24.757  0.00  0.00    -0.077 C 
ATOM     27  C   UNL     1      34.587 -19.129 -24.712  0.00  0.00    -0.025 C 
ENDBRANCH  22  26
ENDBRANCH  21  22
ENDBRANCH  20  21
ENDBRANCH  19  20
ENDBRANCH  18  19
ENDBRANCH  17  18
ENDBRANCH  16  17
ENDBRANCH   1  16
TORSDOF 11
ENDMDL
MODEL 7
REMARK VINA RESULT:      -8.2      2.357      8.093
REMARK  Name = 42548
REMARK  11 active torsions:
REMARK  status: ('A' for Active; 'I' for Inactive)
REMARK    1  A    between atoms: N_1  and  C_4
REMARK    2  A    between atoms: N_1  and  C_16
REMARK    3  A    between atoms: C_10  and  O_14
REMARK    4  A    between atoms: C_16  and  C_17
REMARK    5  A    between atoms: C_17  and  C_18
REMARK    6  A    between atoms: C_18  and  C_19
REMARK    7  A    between atoms: C_19  and  C_20
REMARK    8  A    between atoms: C_20  and  C_21
REMARK    9  A    between atoms: C_21  and  N_22
REMARK   10  A    between atoms: N_22  and  C_24
REMARK   11  A    between atoms: N_22  and  C_26
REMARK                            x       y       z     vdW  Elec       q    Type
REMARK                         _______ _______ _______ _____ _____    ______ ____
ROOT
ATOM      1  N   UNL     1      32.572 -22.973 -18.135  0.00  0.00    -0.331 N 
ATOM      2  H   UNL     1      32.269 -23.709 -18.715  0.00  0.00    +0.147 HD
ENDROOT
BRANCH   1   4
ATOM      3  N   UNL     1      32.702 -21.036 -20.102  0.00  0.00    -0.243 NA
ATOM      4  C   UNL     1      33.772 -22.351 -18.442  0.00  0.00    +0.066 C 
ATOM      5  C   UNL     1      33.821 -21.378 -19.437  0.00  0.00    +0.094 C 
ATOM      6  C   UNL     1      35.066 -20.775 -19.714  0.00  0.00    +0.018 C 
ATOM      7  C   UNL     1      34.913 -22.729 -17.731  0.00  0.00    +0.053 C 
ATOM      8  C   UNL     1      35.115 -19.795 -20.715  0.00  0.00    -0.019 C 
ATOM      9  C   UNL     1      36.214 -21.155 -19.000  0.00  0.00    +0.038 C 
ATOM     10  C   UNL     1      36.136 -22.131 -18.010  0.00  0.00    +0.140 C 
ATOM     11  C   UNL     1      33.963 -19.441 -21.403  0.00  0.00    +0.016 C 
ATOM     12  C   UNL     1      36.386 -19.097 -21.086  0.00  0.00    +0.031 C 
ATOM     13  C   UNL     1      32.793 -20.086 -21.061  0.00  0.00    +0.099 C 
BRANCH  10  14
ATOM     14  O   UNL     1      37.249 -22.498 -17.320  0.00  0.00    -0.471 OA
ATOM     15  C   UNL     1      37.318 -22.119 -15.945  0.00  0.00    +0.252 C 
ENDBRANCH  10  14
ENDBRANCH   1   4
BRANCH   1  16
ATOM     16  C   UNL     1      31.742 -22.603 -17.014  0.00  0.00    +0.087 C 
BRANCH  16  17
ATOM     17  C   UNL     1      31.712 -23.734 -15.990  0.00  0.00    +0.021 C 
BRANCH  17  18
ATOM     18  C   UNL     1      31.547 -23.194 -14.568  0.00  0.00    +0.002 C 
BRANCH  18  19
ATOM     19  C   UNL     1      32.643 -23.729 -13.643  0.00  0.00    -0.002 C 
BRANCH  19  20
ATOM     20  C   UNL     1      34.010 -23.848 -14.325  0.00  0.00    -0.023 C 
BRANCH  20  21
ATOM     21  C   UNL     1      35.169 -23.972 -13.336  0.00  0.00    -0.077 C 
BRANCH  21  22
ATOM     22  N   UNL     1      35.811 -25.275 -13.476  0.00  0.00    +0.387 N 
ATOM     23  H   UNL     1      35.212 -25.974 -13.041  0.00  0.00    -0.080 HD
BRANCH  22  24
ATOM     24  C   UNL     1      37.108 -25.285 -12.796  0.00  0.00    -0.077 C 
ATOM     25  C   UNL     1      37.186 -24.189 -11.748  0.00  0.00    -0.025 C 
ENDBRANCH  22  24
BRANCH  22  26
ATOM     26  C   UNL     1      35.977 -25.617 -14.889  0.00  0.00    -0.077 C 
ATOM     27  C   UNL     1      37.237 -26.435 -15.114  0.00  0.00    -0.025 C 
ENDBRANCH  22  26
ENDBRANCH  21  22
ENDBRANCH  20  21
ENDBRANCH  19  20
ENDBRANCH  18  19
ENDBRANCH  17  18
ENDBRANCH  16  17
ENDBRANCH   1  16
TORSDOF 11
ENDMDL
MODEL 8
REMARK VINA RESULT:      -8.2      6.865     10.669
REMARK  Name = 42548
REMARK  11 active torsions:
REMARK  status: ('A' for Active; 'I' for Inactive)
REMARK    1  A    between atoms: N_1  and  C_4
REMARK    2  A    between atoms: N_1  and  C_16
REMARK    3  A    between atoms: C_10  and  O_14
REMARK    4  A    between atoms: C_16  and  C_17
REMARK    5  A    between atoms: C_17  and  C_18
REMARK    6  A    between atoms: C_18  and  C_19
REMARK    7  A    between atoms: C_19  and  C_20
REMARK    8  A    between atoms: C_20  and  C_21
REMARK    9  A    between atoms: C_21  and  N_22
REMARK   10  A    between atoms: N_22  and  C_24
REMARK   11  A    between atoms: N_22  and  C_26
REMARK                            x       y       z     vdW  Elec       q    Type
REMARK                         _______ _______ _______ _____ _____    ______ ____
ROOT
ATOM      1  N   UNL     1      33.291 -13.325 -21.308  0.00  0.00    -0.331 N 
ATOM      2  H   UNL     1      33.912 -12.565 -21.229  0.00  0.00    +0.147 HD
ENDROOT
BRANCH   1   4
ATOM      3  N   UNL     1      33.080 -13.923 -23.999  0.00  0.00    -0.243 NA
ATOM      4  C   UNL     1      33.780 -14.520 -21.812  0.00  0.00    +0.066 C 
ATOM      5  C   UNL     1      33.665 -14.806 -23.170  0.00  0.00    +0.094 C 
ATOM      6  C   UNL     1      34.177 -16.037 -23.634  0.00  0.00    +0.018 C 
ATOM      7  C   UNL     1      34.383 -15.413 -20.924  0.00  0.00    +0.053 C 
ATOM      8  C   UNL     1      34.061 -16.325 -25.000  0.00  0.00    -0.019 C 
ATOM      9  C   UNL     1      34.783 -16.936 -22.740  0.00  0.00    +0.038 C 
ATOM     10  C   UNL     1      34.885 -16.623 -21.388  0.00  0.00    +0.140 C 
ATOM     11  C   UNL     1      33.458 -15.416 -25.857  0.00  0.00    +0.016 C 
ATOM     12  C   UNL     1      34.571 -17.601 -25.592  0.00  0.00    +0.031 C 
ATOM     13  C   UNL     1      32.987 -14.240 -25.311  0.00  0.00    +0.099 C 
BRANCH  10  14
ATOM     14  O   UNL     1      35.472 -17.496 -20.525  0.00  0.00    -0.471 OA
ATOM     15  C   UNL     1      35.932 -18.735 -21.064  0.00  0.00    +0.252 C 
ENDBRANCH  10  14
ENDBRANCH   1   4
BRANCH   1  16
ATOM     16  C   UNL     1      31.923 -13.132 -20.891  0.00  0.00    +0.087 C 
BRANCH  16  17
ATOM     17  C   UNL     1      31.827 -11.930 -19.956  0.00  0.00    +0.021 C 
BRANCH  17  18
ATOM     18  C   UNL     1      30.958 -10.824 -20.559  0.00  0.00    +0.002 C 
BRANCH  18  19
ATOM     19  C   UNL     1      30.986 -10.870 -22.089  0.00  0.00    -0.002 C 
BRANCH  19  20
ATOM     20  C   UNL     1      32.015  -9.918 -22.707  0.00  0.00    -0.023 C 
BRANCH  20  21
ATOM     21  C   UNL     1      31.416  -8.581 -23.140  0.00  0.00    -0.077 C 
BRANCH  21  22
ATOM     22  N   UNL     1      32.321  -7.489 -22.791  0.00  0.00    +0.387 N 
ATOM     23  H   UNL     1      32.365  -6.847 -23.580  0.00  0.00    -0.080 HD
BRANCH  22  24
ATOM     24  C   UNL     1      33.668  -8.001 -22.532  0.00  0.00    -0.077 C 
ATOM     25  C   UNL     1      34.660  -7.479 -23.556  0.00  0.00    -0.025 C 
ENDBRANCH  22  24
BRANCH  22  26
ATOM     26  C   UNL     1      31.821  -6.762 -21.623  0.00  0.00    -0.077 C 
ATOM     27  C   UNL     1      32.494  -7.239 -20.348  0.00  0.00    -0.025 C 
ENDBRANCH  22  26
ENDBRANCH  21  22
ENDBRANCH  20  21
ENDBRANCH  19  20
ENDBRANCH  18  19
ENDBRANCH  17  18
ENDBRANCH  16  17
ENDBRANCH   1  16
TORSDOF 11
ENDMDL
MODEL 9
REMARK VINA RESULT:      -8.1      6.768     10.499
REMARK  Name = 42548
REMARK  11 active torsions:
REMARK  status: ('A' for Active; 'I' for Inactive)
REMARK    1  A    between atoms: N_1  and  C_4
REMARK    2  A    between atoms: N_1  and  C_16
REMARK    3  A    between atoms: C_10  and  O_14
REMARK    4  A    between atoms: C_16  and  C_17
REMARK    5  A    between atoms: C_17  and  C_18
REMARK    6  A    between atoms: C_18  and  C_19
REMARK    7  A    between atoms: C_19  and  C_20
REMARK    8  A    between atoms: C_20  and  C_21
REMARK    9  A    between atoms: C_21  and  N_22
REMARK   10  A    between atoms: N_22  and  C_24
REMARK   11  A    between atoms: N_22  and  C_26
REMARK                            x       y       z     vdW  Elec       q    Type
REMARK                         _______ _______ _______ _____ _____    ______ ____
ROOT
ATOM      1  N   UNL     1      33.687 -15.229 -25.954  0.00  0.00    -0.331 N 
ATOM      2  H   UNL     1      34.144 -15.719 -26.677  0.00  0.00    +0.147 HD
ENDROOT
BRANCH   1   4
ATOM      3  N   UNL     1      34.415 -17.825 -25.345  0.00  0.00    -0.243 NA
ATOM      4  C   UNL     1      33.942 -15.608 -24.645  0.00  0.00    +0.066 C 
ATOM      5  C   UNL     1      34.307 -16.920 -24.355  0.00  0.00    +0.094 C 
ATOM      6  C   UNL     1      34.554 -17.257 -23.007  0.00  0.00    +0.018 C 
ATOM      7  C   UNL     1      33.821 -14.643 -23.643  0.00  0.00    +0.053 C 
ATOM      8  C   UNL     1      34.921 -18.577 -22.715  0.00  0.00    -0.019 C 
ATOM      9  C   UNL     1      34.432 -16.286 -21.999  0.00  0.00    +0.038 C 
ATOM     10  C   UNL     1      34.066 -14.981 -22.318  0.00  0.00    +0.140 C 
ATOM     11  C   UNL     1      35.034 -19.512 -23.733  0.00  0.00    +0.016 C 
ATOM     12  C   UNL     1      35.203 -19.035 -21.319  0.00  0.00    +0.031 C 
ATOM     13  C   UNL     1      34.772 -19.089 -25.019  0.00  0.00    +0.099 C 
BRANCH  10  14
ATOM     14  O   UNL     1      33.948 -14.043 -21.340  0.00  0.00    -0.471 OA
ATOM     15  C   UNL     1      32.643 -13.815 -20.810  0.00  0.00    +0.252 C 
ENDBRANCH  10  14
ENDBRANCH   1   4
BRANCH   1  16
ATOM     16  C   UNL     1      32.791 -14.158 -26.318  0.00  0.00    +0.087 C 
BRANCH  16  17
ATOM     17  C   UNL     1      33.585 -12.984 -26.885  0.00  0.00    +0.021 C 
BRANCH  17  18
ATOM     18  C   UNL     1      33.607 -11.804 -25.911  0.00  0.00    +0.002 C 
BRANCH  18  19
ATOM     19  C   UNL     1      34.964 -11.096 -25.930  0.00  0.00    -0.002 C 
BRANCH  19  20
ATOM     20  C   UNL     1      35.063  -9.946 -24.921  0.00  0.00    -0.023 C 
BRANCH  20  21
ATOM     21  C   UNL     1      33.949  -9.962 -23.876  0.00  0.00    -0.077 C 
BRANCH  21  22
ATOM     22  N   UNL     1      33.530  -8.599 -23.568  0.00  0.00    +0.387 N 
ATOM     23  H   UNL     1      32.801  -8.332 -24.228  0.00  0.00    -0.080 HD
BRANCH  22  24
ATOM     24  C   UNL     1      34.652  -7.670 -23.714  0.00  0.00    -0.077 C 
ATOM     25  C   UNL     1      34.347  -6.597 -24.743  0.00  0.00    -0.025 C 
ENDBRANCH  22  24
BRANCH  22  26
ATOM     26  C   UNL     1      32.981  -8.523 -22.213  0.00  0.00    -0.077 C 
ATOM     27  C   UNL     1      31.908  -7.454 -22.112  0.00  0.00    -0.025 C 
ENDBRANCH  22  26
ENDBRANCH  21  22
ENDBRANCH  20  21
ENDBRANCH  19  20
ENDBRANCH  18  19
ENDBRANCH  17  18
ENDBRANCH  16  17
ENDBRANCH   1  16
TORSDOF 11
ENDMDL
