MODEL 1
REMARK VINA RESULT:      -5.7      0.000      0.000
REMARK  Name = 12597
REMARK  2 active torsions:
REMARK  status: ('A' for Active; 'I' for Inactive)
REMARK    1  A    between atoms: C_5  and  O_9
REMARK    2  A    between atoms: C_6  and  O_11
REMARK                            x       y       z     vdW  Elec       q    Type
REMARK                         _______ _______ _______ _____ _____    ______ ____
ROOT
ATOM      1  O   UNL     1      37.598 -23.689 -14.023  0.00  0.00    -0.348 OA
ATOM      2  O   UNL     1      36.926 -25.979 -12.110  0.00  0.00    -0.348 OA
ATOM      3  C   UNL     1      38.445 -24.552 -13.248  0.00  0.00    +0.174 C 
ATOM      4  C   UNL     1      37.734 -24.798 -11.932  0.00  0.00    +0.174 C 
ATOM      5  C   UNL     1      38.521 -25.940 -13.840  0.00  0.00    +0.170 C 
ATOM      6  C   UNL     1      36.860 -23.580 -11.774  0.00  0.00    +0.170 C 
ATOM      7  C   UNL     1      36.502 -23.241 -13.208  0.00  0.00    +0.174 C 
ATOM      8  C   UNL     1      37.210 -26.547 -13.396  0.00  0.00    +0.174 C 
ENDROOT
BRANCH   5   9
ATOM      9  O   UNL     1      38.661 -25.945 -15.243  0.00  0.00    -0.379 OA
ATOM     10  H   UNL     1      38.079 -26.620 -15.624  0.00  0.00    +0.211 HD
ENDBRANCH   5   9
BRANCH   6  11
ATOM     11  O   UNL     1      37.619 -22.509 -11.228  0.00  0.00    -0.379 OA
ATOM     12  H   UNL     1      37.979 -21.967 -11.948  0.00  0.00    +0.211 HD
ENDBRANCH   6  11
TORSDOF 2
ENDMDL
MODEL 2
REMARK VINA RESULT:      -5.7      1.027      3.358
REMARK  Name = 12597
REMARK  2 active torsions:
REMARK  status: ('A' for Active; 'I' for Inactive)
REMARK    1  A    between atoms: C_5  and  O_9
REMARK    2  A    between atoms: C_6  and  O_11
REMARK                            x       y       z     vdW  Elec       q    Type
REMARK                         _______ _______ _______ _____ _____    ______ ____
ROOT
ATOM      1  O   UNL     1      38.789 -24.238 -13.495  0.00  0.00    -0.348 OA
ATOM      2  O   UNL     1      36.267 -25.437 -12.247  0.00  0.00    -0.348 OA
ATOM      3  C   UNL     1      37.407 -23.868 -13.618  0.00  0.00    +0.174 C 
ATOM      4  C   UNL     1      36.607 -25.155 -13.619  0.00  0.00    +0.174 C 
ATOM      5  C   UNL     1      36.902 -23.173 -12.375  0.00  0.00    +0.170 C 
ATOM      6  C   UNL     1      37.587 -26.176 -14.140  0.00  0.00    +0.170 C 
ATOM      7  C   UNL     1      38.910 -25.667 -13.604  0.00  0.00    +0.174 C 
ATOM      8  C   UNL     1      36.683 -24.333 -11.430  0.00  0.00    +0.174 C 
ENDROOT
BRANCH   5   9
ATOM      9  O   UNL     1      37.807 -22.227 -11.854  0.00  0.00    -0.379 OA
ATOM     10  H   UNL     1      38.470 -22.679 -11.309  0.00  0.00    +0.211 HD
ENDBRANCH   5   9
BRANCH   6  11
ATOM     11  O   UNL     1      37.623 -26.129 -15.561  0.00  0.00    -0.379 OA
ATOM     12  H   UNL     1      36.990 -26.770 -15.922  0.00  0.00    +0.211 HD
ENDBRANCH   6  11
TORSDOF 2
ENDMDL
MODEL 3
REMARK VINA RESULT:      -5.6      1.346      3.600
REMARK  Name = 12597
REMARK  2 active torsions:
REMARK  status: ('A' for Active; 'I' for Inactive)
REMARK    1  A    between atoms: C_5  and  O_9
REMARK    2  A    between atoms: C_6  and  O_11
REMARK                            x       y       z     vdW  Elec       q    Type
REMARK                         _______ _______ _______ _____ _____    ______ ____
ROOT
ATOM      1  O   UNL     1      37.133 -26.647 -13.324  0.00  0.00    -0.348 OA
ATOM      2  O   UNL     1      37.954 -23.739 -13.792  0.00  0.00    -0.348 OA
ATOM      3  C   UNL     1      37.935 -25.754 -12.535  0.00  0.00    +0.174 C 
ATOM      4  C   UNL     1      38.739 -24.913 -13.508  0.00  0.00    +0.174 C 
ATOM      5  C   UNL     1      37.091 -24.717 -11.832  0.00  0.00    +0.170 C 
ATOM      6  C   UNL     1      38.837 -25.791 -14.730  0.00  0.00    +0.170 C 
ATOM      7  C   UNL     1      37.521 -26.542 -14.704  0.00  0.00    +0.174 C 
ATOM      8  C   UNL     1      36.794 -23.740 -12.948  0.00  0.00    +0.174 C 
ENDROOT
BRANCH   5   9
ATOM      9  O   UNL     1      35.914 -25.245 -11.261  0.00  0.00    -0.379 OA
ATOM     10  H   UNL     1      35.794 -24.878 -10.372  0.00  0.00    +0.211 HD
ENDBRANCH   5   9
BRANCH   6  11
ATOM     11  O   UNL     1      39.898 -26.724 -14.571  0.00  0.00    -0.379 OA
ATOM     12  H   UNL     1      40.511 -26.405 -13.890  0.00  0.00    +0.211 HD
ENDBRANCH   6  11
TORSDOF 2
ENDMDL
MODEL 4
REMARK VINA RESULT:      -5.6      1.478      3.469
REMARK  Name = 12597
REMARK  2 active torsions:
REMARK  status: ('A' for Active; 'I' for Inactive)
REMARK    1  A    between atoms: C_5  and  O_9
REMARK    2  A    between atoms: C_6  and  O_11
REMARK                            x       y       z     vdW  Elec       q    Type
REMARK                         _______ _______ _______ _____ _____    ______ ____
ROOT
ATOM      1  O   UNL     1      37.290 -25.971 -12.013  0.00  0.00    -0.348 OA
ATOM      2  O   UNL     1      35.956 -23.702 -13.572  0.00  0.00    -0.348 OA
ATOM      3  C   UNL     1      37.210 -24.561 -11.747  0.00  0.00    +0.174 C 
ATOM      4  C   UNL     1      37.305 -23.856 -13.086  0.00  0.00    +0.174 C 
ATOM      5  C   UNL     1      35.836 -24.160 -11.266  0.00  0.00    +0.170 C 
ATOM      6  C   UNL     1      38.065 -24.836 -13.944  0.00  0.00    +0.170 C 
ATOM      7  C   UNL     1      37.609 -26.175 -13.400  0.00  0.00    +0.174 C 
ATOM      8  C   UNL     1      35.043 -24.135 -12.553  0.00  0.00    +0.174 C 
ENDROOT
BRANCH   5   9
ATOM      9  O   UNL     1      35.288 -25.054 -10.323  0.00  0.00    -0.379 OA
ATOM     10  H   UNL     1      35.532 -25.962 -10.558  0.00  0.00    +0.211 HD
ENDBRANCH   5   9
BRANCH   6  11
ATOM     11  O   UNL     1      39.461 -24.700 -13.709  0.00  0.00    -0.379 OA
ATOM     12  H   UNL     1      39.951 -25.245 -14.346  0.00  0.00    +0.211 HD
ENDBRANCH   6  11
TORSDOF 2
ENDMDL
MODEL 5
REMARK VINA RESULT:      -5.6      2.072      3.630
REMARK  Name = 12597
REMARK  2 active torsions:
REMARK  status: ('A' for Active; 'I' for Inactive)
REMARK    1  A    between atoms: C_5  and  O_9
REMARK    2  A    between atoms: C_6  and  O_11
REMARK                            x       y       z     vdW  Elec       q    Type
REMARK                         _______ _______ _______ _____ _____    ______ ____
ROOT
ATOM      1  O   UNL     1      36.009 -25.724 -15.525  0.00  0.00    -0.348 OA
ATOM      2  O   UNL     1      38.101 -23.752 -14.481  0.00  0.00    -0.348 OA
ATOM      3  C   UNL     1      35.884 -24.583 -14.661  0.00  0.00    +0.174 C 
ATOM      4  C   UNL     1      37.124 -24.555 -13.790  0.00  0.00    +0.174 C 
ATOM      5  C   UNL     1      35.997 -23.286 -15.428  0.00  0.00    +0.170 C 
ATOM      6  C   UNL     1      37.558 -25.998 -13.753  0.00  0.00    +0.170 C 
ATOM      7  C   UNL     1      37.150 -26.501 -15.123  0.00  0.00    +0.174 C 
ATOM      8  C   UNL     1      37.489 -23.173 -15.643  0.00  0.00    +0.174 C 
ENDROOT
BRANCH   5   9
ATOM      9  O   UNL     1      35.284 -23.289 -16.644  0.00  0.00    -0.379 OA
ATOM     10  H   UNL     1      34.335 -23.378 -16.463  0.00  0.00    +0.211 HD
ENDBRANCH   5   9
BRANCH   6  11
ATOM     11  O   UNL     1      36.813 -26.702 -12.768  0.00  0.00    -0.379 OA
ATOM     12  H   UNL     1      37.329 -27.460 -12.451  0.00  0.00    +0.211 HD
ENDBRANCH   6  11
TORSDOF 2
ENDMDL
MODEL 6
REMARK VINA RESULT:      -5.5      1.514      1.681
REMARK  Name = 12597
REMARK  2 active torsions:
REMARK  status: ('A' for Active; 'I' for Inactive)
REMARK    1  A    between atoms: C_5  and  O_9
REMARK    2  A    between atoms: C_6  and  O_11
REMARK                            x       y       z     vdW  Elec       q    Type
REMARK                         _______ _______ _______ _____ _____    ______ ____
ROOT
ATOM      1  O   UNL     1      36.092 -24.087 -13.195  0.00  0.00    -0.348 OA
ATOM      2  O   UNL     1      38.295 -26.207 -13.116  0.00  0.00    -0.348 OA
ATOM      3  C   UNL     1      37.244 -24.284 -14.030  0.00  0.00    +0.174 C 
ATOM      4  C   UNL     1      38.362 -24.767 -13.128  0.00  0.00    +0.174 C 
ATOM      5  C   UNL     1      37.059 -25.451 -14.971  0.00  0.00    +0.170 C 
ATOM      6  C   UNL     1      37.987 -24.210 -11.778  0.00  0.00    +0.170 C 
ATOM      7  C   UNL     1      36.473 -24.240 -11.817  0.00  0.00    +0.174 C 
ATOM      8  C   UNL     1      37.305 -26.634 -14.062  0.00  0.00    +0.174 C 
ENDROOT
BRANCH   5   9
ATOM      9  O   UNL     1      35.782 -25.495 -15.567  0.00  0.00    -0.379 OA
ATOM     10  H   UNL     1      35.167 -25.961 -14.979  0.00  0.00    +0.211 HD
ENDBRANCH   5   9
BRANCH   6  11
ATOM     11  O   UNL     1      38.415 -22.858 -11.678  0.00  0.00    -0.379 OA
ATOM     12  H   UNL     1      38.697 -22.673 -10.769  0.00  0.00    +0.211 HD
ENDBRANCH   6  11
TORSDOF 2
ENDMDL
MODEL 7
REMARK VINA RESULT:      -5.4      1.466      1.918
REMARK  Name = 12597
REMARK  2 active torsions:
REMARK  status: ('A' for Active; 'I' for Inactive)
REMARK    1  A    between atoms: C_5  and  O_9
REMARK    2  A    between atoms: C_6  and  O_11
REMARK                            x       y       z     vdW  Elec       q    Type
REMARK                         _______ _______ _______ _____ _____    ______ ____
ROOT
ATOM      1  O   UNL     1      38.309 -23.868 -12.574  0.00  0.00    -0.348 OA
ATOM      2  O   UNL     1      37.234 -26.091 -14.378  0.00  0.00    -0.348 OA
ATOM      3  C   UNL     1      38.577 -25.279 -12.596  0.00  0.00    +0.174 C 
ATOM      4  C   UNL     1      37.272 -25.968 -12.942  0.00  0.00    +0.174 C 
ATOM      5  C   UNL     1      39.463 -25.661 -13.758  0.00  0.00    +0.170 C 
ATOM      6  C   UNL     1      36.225 -24.991 -12.469  0.00  0.00    +0.170 C 
ATOM      7  C   UNL     1      36.893 -23.651 -12.702  0.00  0.00    +0.174 C 
ATOM      8  C   UNL     1      38.490 -25.654 -14.915  0.00  0.00    +0.174 C 
ENDROOT
BRANCH   5   9
ATOM      9  O   UNL     1      40.537 -24.769 -13.962  0.00  0.00    -0.379 OA
ATOM     10  H   UNL     1      41.029 -24.660 -13.134  0.00  0.00    +0.211 HD
ENDBRANCH   5   9
BRANCH   6  11
ATOM     11  O   UNL     1      36.008 -25.156 -11.073  0.00  0.00    -0.379 OA
ATOM     12  H   UNL     1      35.066 -25.323 -10.910  0.00  0.00    +0.211 HD
ENDBRANCH   6  11
TORSDOF 2
ENDMDL
MODEL 8
REMARK VINA RESULT:      -5.4      1.513      3.274
REMARK  Name = 12597
REMARK  2 active torsions:
REMARK  status: ('A' for Active; 'I' for Inactive)
REMARK    1  A    between atoms: C_5  and  O_9
REMARK    2  A    between atoms: C_6  and  O_11
REMARK                            x       y       z     vdW  Elec       q    Type
REMARK                         _______ _______ _______ _____ _____    ______ ____
ROOT
ATOM      1  O   UNL     1      37.549 -22.938 -14.353  0.00  0.00    -0.348 OA
ATOM      2  O   UNL     1      37.261 -25.469 -12.660  0.00  0.00    -0.348 OA
ATOM      3  C   UNL     1      36.579 -23.304 -13.358  0.00  0.00    +0.174 C 
ATOM      4  C   UNL     1      36.324 -24.789 -13.520  0.00  0.00    +0.174 C 
ATOM      5  C   UNL     1      37.152 -23.223 -11.963  0.00  0.00    +0.170 C 
ATOM      6  C   UNL     1      36.657 -25.045 -14.968  0.00  0.00    +0.170 C 
ATOM      7  C   UNL     1      37.773 -24.054 -15.231  0.00  0.00    +0.174 C 
ATOM      8  C   UNL     1      37.968 -24.493 -11.880  0.00  0.00    +0.174 C 
ENDROOT
BRANCH   5   9
ATOM      9  O   UNL     1      37.938 -22.073 -11.744  0.00  0.00    -0.379 OA
ATOM     10  H   UNL     1      38.449 -21.873 -12.544  0.00  0.00    +0.211 HD
ENDBRANCH   5   9
BRANCH   6  11
ATOM     11  O   UNL     1      35.544 -24.708 -15.785  0.00  0.00    -0.379 OA
ATOM     12  H   UNL     1      34.741 -24.675 -15.242  0.00  0.00    +0.211 HD
ENDBRANCH   6  11
TORSDOF 2
ENDMDL
MODEL 9
REMARK VINA RESULT:      -5.4      7.050      8.025
REMARK  Name = 12597
REMARK  2 active torsions:
REMARK  status: ('A' for Active; 'I' for Inactive)
REMARK    1  A    between atoms: C_5  and  O_9
REMARK    2  A    between atoms: C_6  and  O_11
REMARK                            x       y       z     vdW  Elec       q    Type
REMARK                         _______ _______ _______ _____ _____    ______ ____
ROOT
ATOM      1  O   UNL     1      31.150 -22.942 -14.910  0.00  0.00    -0.348 OA
ATOM      2  O   UNL     1      28.861 -24.966 -14.773  0.00  0.00    -0.348 OA
ATOM      3  C   UNL     1      30.747 -23.974 -15.823  0.00  0.00    +0.174 C 
ATOM      4  C   UNL     1      30.276 -25.144 -14.982  0.00  0.00    +0.174 C 
ATOM      5  C   UNL     1      29.495 -23.594 -16.579  0.00  0.00    +0.170 C 
ATOM      6  C   UNL     1      31.027 -24.967 -13.686  0.00  0.00    +0.170 C 
ATOM      7  C   UNL     1      31.133 -23.460 -13.569  0.00  0.00    +0.174 C 
ATOM      8  C   UNL     1      28.415 -23.845 -15.551  0.00  0.00    +0.174 C 
ENDROOT
BRANCH   5   9
ATOM      9  O   UNL     1      29.497 -22.259 -17.032  0.00  0.00    -0.379 OA
ATOM     10  H   UNL     1      28.755 -21.780 -16.631  0.00  0.00    +0.211 HD
ENDBRANCH   5   9
BRANCH   6  11
ATOM     11  O   UNL     1      32.336 -25.508 -13.809  0.00  0.00    -0.379 OA
ATOM     12  H   UNL     1      32.324 -26.246 -14.439  0.00  0.00    +0.211 HD
ENDBRANCH   6  11
TORSDOF 2
ENDMDL
