MODEL 1
REMARK VINA RESULT:      -8.4      0.000      0.000
REMARK  Name = 1935
REMARK  1 active torsions:
REMARK  status: ('A' for Active; 'I' for Inactive)
REMARK    1  A    between atoms: C_8  and  N_15
REMARK                            x       y       z     vdW  Elec       q    Type
REMARK                         _______ _______ _______ _____ _____    ______ ____
ROOT
ATOM      1  N   UNL     1      31.145  -9.309 -22.953  0.00  0.00    -0.410 NA
ATOM      2  C   UNL     1      31.615 -11.449 -19.328  0.00  0.00    +0.005 C 
ATOM      3  C   UNL     1      32.252 -10.062 -19.397  0.00  0.00    +0.030 C 
ATOM      4  C   UNL     1      31.797 -12.189 -20.648  0.00  0.00    +0.008 C 
ATOM      5  C   UNL     1      31.917  -9.320 -20.662  0.00  0.00    +0.013 C 
ATOM      6  C   UNL     1      31.102 -11.433 -21.778  0.00  0.00    +0.059 C 
ATOM      7  C   UNL     1      31.422  -9.962 -21.795  0.00  0.00    +0.105 C 
ATOM      8  C   UNL     1      32.161  -7.950 -20.757  0.00  0.00    +0.027 C 
ATOM      9  C   UNL     1      31.889  -7.256 -21.943  0.00  0.00    +0.109 C 
ATOM     10  C   UNL     1      31.374  -7.986 -23.031  0.00  0.00    +0.118 C 
ATOM     11  C   UNL     1      32.120  -5.875 -22.059  0.00  0.00    -0.014 C 
ATOM     12  C   UNL     1      31.102  -7.299 -24.211  0.00  0.00    +0.028 C 
ATOM     13  C   UNL     1      31.840  -5.212 -23.251  0.00  0.00    -0.004 C 
ATOM     14  C   UNL     1      31.330  -5.925 -24.328  0.00  0.00    +0.002 C 
ENDROOT
BRANCH   8  15
ATOM     15  N   UNL     1      32.695  -7.262 -19.636  0.00  0.00    -0.360 N 
ATOM     16  H   UNL     1      33.044  -7.770 -18.867  0.00  0.00    +0.142 HD
ATOM     17  H   UNL     1      32.717  -6.278 -19.626  0.00  0.00    +0.142 HD
ENDBRANCH   8  15
TORSDOF 1
ENDMDL
MODEL 2
REMARK VINA RESULT:      -8.2      6.291      9.432
REMARK  Name = 1935
REMARK  1 active torsions:
REMARK  status: ('A' for Active; 'I' for Inactive)
REMARK    1  A    between atoms: C_8  and  N_15
REMARK                            x       y       z     vdW  Elec       q    Type
REMARK                         _______ _______ _______ _____ _____    ______ ____
ROOT
ATOM      1  N   UNL     1      34.205 -17.063 -24.653  0.00  0.00    -0.410 NA
ATOM      2  C   UNL     1      33.589 -12.899 -25.125  0.00  0.00    +0.005 C 
ATOM      3  C   UNL     1      33.663 -13.427 -23.693  0.00  0.00    +0.030 C 
ATOM      4  C   UNL     1      32.809 -13.863 -26.011  0.00  0.00    +0.008 C 
ATOM      5  C   UNL     1      34.023 -14.886 -23.619  0.00  0.00    +0.013 C 
ATOM      6  C   UNL     1      33.515 -15.216 -26.070  0.00  0.00    +0.059 C 
ATOM      7  C   UNL     1      33.913 -15.738 -24.715  0.00  0.00    +0.105 C 
ATOM      8  C   UNL     1      34.424 -15.448 -22.407  0.00  0.00    +0.027 C 
ATOM      9  C   UNL     1      34.724 -16.813 -22.318  0.00  0.00    +0.109 C 
ATOM     10  C   UNL     1      34.600 -17.594 -23.482  0.00  0.00    +0.118 C 
ATOM     11  C   UNL     1      35.136 -17.400 -21.109  0.00  0.00    -0.014 C 
ATOM     12  C   UNL     1      34.899 -18.951 -23.397  0.00  0.00    +0.028 C 
ATOM     13  C   UNL     1      35.429 -18.760 -21.051  0.00  0.00    -0.004 C 
ATOM     14  C   UNL     1      35.309 -19.536 -22.196  0.00  0.00    +0.002 C 
ENDROOT
BRANCH   8  15
ATOM     15  N   UNL     1      34.520 -14.621 -21.257  0.00  0.00    -0.360 N 
ATOM     16  H   UNL     1      35.372 -14.178 -21.039  0.00  0.00    +0.142 HD
ATOM     17  H   UNL     1      33.735 -14.490 -20.678  0.00  0.00    +0.142 HD
ENDBRANCH   8  15
TORSDOF 1
ENDMDL
MODEL 3
REMARK VINA RESULT:      -8.1      6.347      8.020
REMARK  Name = 1935
REMARK  1 active torsions:
REMARK  status: ('A' for Active; 'I' for Inactive)
REMARK    1  A    between atoms: C_8  and  N_15
REMARK                            x       y       z     vdW  Elec       q    Type
REMARK                         _______ _______ _______ _____ _____    ______ ____
ROOT
ATOM      1  N   UNL     1      33.883 -16.356 -25.846  0.00  0.00    -0.410 NA
ATOM      2  C   UNL     1      34.621 -18.808 -22.472  0.00  0.00    +0.005 C 
ATOM      3  C   UNL     1      34.849 -17.307 -22.297  0.00  0.00    +0.030 C 
ATOM      4  C   UNL     1      35.114 -19.269 -23.838  0.00  0.00    +0.008 C 
ATOM      5  C   UNL     1      34.429 -16.502 -23.496  0.00  0.00    +0.013 C 
ATOM      6  C   UNL     1      34.335 -18.566 -24.946  0.00  0.00    +0.059 C 
ATOM      7  C   UNL     1      34.231 -17.077 -24.749  0.00  0.00    +0.105 C 
ATOM      8  C   UNL     1      34.288 -15.118 -23.396  0.00  0.00    +0.027 C 
ATOM      9  C   UNL     1      33.935 -14.353 -24.516  0.00  0.00    +0.109 C 
ATOM     10  C   UNL     1      33.739 -15.024 -25.737  0.00  0.00    +0.118 C 
ATOM     11  C   UNL     1      33.780 -12.959 -24.437  0.00  0.00    -0.014 C 
ATOM     12  C   UNL     1      33.387 -14.266 -26.851  0.00  0.00    +0.028 C 
ATOM     13  C   UNL     1      33.428 -12.225 -25.567  0.00  0.00    -0.004 C 
ATOM     14  C   UNL     1      33.232 -12.880 -26.775  0.00  0.00    +0.002 C 
ENDROOT
BRANCH   8  15
ATOM     15  N   UNL     1      34.511 -14.487 -22.144  0.00  0.00    -0.360 N 
ATOM     16  H   UNL     1      35.034 -14.947 -21.448  0.00  0.00    +0.142 HD
ATOM     17  H   UNL     1      34.145 -13.590 -21.973  0.00  0.00    +0.142 HD
ENDBRANCH   8  15
TORSDOF 1
ENDMDL
MODEL 4
REMARK VINA RESULT:      -8.1     13.069     15.640
REMARK  Name = 1935
REMARK  1 active torsions:
REMARK  status: ('A' for Active; 'I' for Inactive)
REMARK    1  A    between atoms: C_8  and  N_15
REMARK                            x       y       z     vdW  Elec       q    Type
REMARK                         _______ _______ _______ _____ _____    ______ ____
ROOT
ATOM      1  N   UNL     1      32.451 -22.504 -18.013  0.00  0.00    -0.410 NA
ATOM      2  C   UNL     1      36.011 -21.436 -20.044  0.00  0.00    +0.005 C 
ATOM      3  C   UNL     1      36.137 -21.759 -18.555  0.00  0.00    +0.030 C 
ATOM      4  C   UNL     1      34.743 -20.635 -20.313  0.00  0.00    +0.008 C 
ATOM      5  C   UNL     1      34.855 -22.262 -17.950  0.00  0.00    +0.013 C 
ATOM      6  C   UNL     1      33.511 -21.451 -19.927  0.00  0.00    +0.059 C 
ATOM      7  C   UNL     1      33.618 -22.082 -18.564  0.00  0.00    +0.105 C 
ATOM      8  C   UNL     1      34.866 -22.880 -16.699  0.00  0.00    +0.027 C 
ATOM      9  C   UNL     1      33.674 -23.318 -16.109  0.00  0.00    +0.109 C 
ATOM     10  C   UNL     1      32.473 -23.107 -16.811  0.00  0.00    +0.118 C 
ATOM     11  C   UNL     1      33.661 -23.948 -14.852  0.00  0.00    -0.014 C 
ATOM     12  C   UNL     1      31.287 -23.542 -16.227  0.00  0.00    +0.028 C 
ATOM     13  C   UNL     1      32.461 -24.373 -14.290  0.00  0.00    -0.004 C 
ATOM     14  C   UNL     1      31.272 -24.170 -14.979  0.00  0.00    +0.002 C 
ENDROOT
BRANCH   8  15
ATOM     15  N   UNL     1      36.102 -23.056 -16.024  0.00  0.00    -0.360 N 
ATOM     16  H   UNL     1      36.455 -23.963 -15.872  0.00  0.00    +0.142 HD
ATOM     17  H   UNL     1      36.607 -22.272 -15.708  0.00  0.00    +0.142 HD
ENDBRANCH   8  15
TORSDOF 1
ENDMDL
MODEL 5
REMARK VINA RESULT:      -8.0      5.364      7.941
REMARK  Name = 1935
REMARK  1 active torsions:
REMARK  status: ('A' for Active; 'I' for Inactive)
REMARK    1  A    between atoms: C_8  and  N_15
REMARK                            x       y       z     vdW  Elec       q    Type
REMARK                         _______ _______ _______ _____ _____    ______ ____
ROOT
ATOM      1  N   UNL     1      33.714 -15.866 -20.913  0.00  0.00    -0.410 NA
ATOM      2  C   UNL     1      35.719 -18.581 -23.472  0.00  0.00    +0.005 C 
ATOM      3  C   UNL     1      34.813 -17.547 -24.139  0.00  0.00    +0.030 C 
ATOM      4  C   UNL     1      35.079 -19.111 -22.195  0.00  0.00    +0.008 C 
ATOM      5  C   UNL     1      34.255 -16.539 -23.171  0.00  0.00    +0.013 C 
ATOM      6  C   UNL     1      34.883 -17.976 -21.193  0.00  0.00    +0.059 C 
ATOM      7  C   UNL     1      34.243 -16.753 -21.795  0.00  0.00    +0.105 C 
ATOM      8  C   UNL     1      33.664 -15.367 -23.643  0.00  0.00    +0.027 C 
ATOM      9  C   UNL     1      33.107 -14.440 -22.753  0.00  0.00    +0.109 C 
ATOM     10  C   UNL     1      33.156 -14.734 -21.378  0.00  0.00    +0.118 C 
ATOM     11  C   UNL     1      32.512 -13.250 -23.205  0.00  0.00    -0.014 C 
ATOM     12  C   UNL     1      32.603 -13.814 -20.491  0.00  0.00    +0.028 C 
ATOM     13  C   UNL     1      31.966 -12.346 -22.297  0.00  0.00    -0.004 C 
ATOM     14  C   UNL     1      32.012 -12.629 -20.938  0.00  0.00    +0.002 C 
ENDROOT
BRANCH   8  15
ATOM     15  N   UNL     1      33.627 -15.124 -25.041  0.00  0.00    -0.360 N 
ATOM     16  H   UNL     1      33.199 -15.776 -25.643  0.00  0.00    +0.142 HD
ATOM     17  H   UNL     1      34.027 -14.304 -25.409  0.00  0.00    +0.142 HD
ENDBRANCH   8  15
TORSDOF 1
ENDMDL
MODEL 6
REMARK VINA RESULT:      -8.0      0.214      4.713
REMARK  Name = 1935
REMARK  1 active torsions:
REMARK  status: ('A' for Active; 'I' for Inactive)
REMARK    1  A    between atoms: C_8  and  N_15
REMARK                            x       y       z     vdW  Elec       q    Type
REMARK                         _______ _______ _______ _____ _____    ______ ____
ROOT
ATOM      1  N   UNL     1      31.207  -9.307 -22.991  0.00  0.00    -0.410 NA
ATOM      2  C   UNL     1      32.121  -5.196 -23.451  0.00  0.00    +0.005 C 
ATOM      3  C   UNL     1      32.045  -5.730 -22.021  0.00  0.00    +0.030 C 
ATOM      4  C   UNL     1      31.019  -5.805 -24.309  0.00  0.00    +0.008 C 
ATOM      5  C   UNL     1      31.857  -7.220 -21.956  0.00  0.00    +0.013 C 
ATOM      6  C   UNL     1      31.186  -7.320 -24.388  0.00  0.00    +0.059 C 
ATOM      7  C   UNL     1      31.412  -7.965 -23.046  0.00  0.00    +0.105 C 
ATOM      8  C   UNL     1      32.065  -7.901 -20.757  0.00  0.00    +0.027 C 
ATOM      9  C   UNL     1      31.855  -9.284 -20.675  0.00  0.00    +0.109 C 
ATOM     10  C   UNL     1      31.421  -9.956 -21.832  0.00  0.00    +0.118 C 
ATOM     11  C   UNL     1      32.066  -9.992 -19.479  0.00  0.00    -0.014 C 
ATOM     12  C   UNL     1      31.213 -11.330 -21.754  0.00  0.00    +0.028 C 
ATOM     13  C   UNL     1      31.849 -11.366 -19.427  0.00  0.00    -0.004 C 
ATOM     14  C   UNL     1      31.422 -12.036 -20.566  0.00  0.00    +0.002 C 
ENDROOT
BRANCH   8  15
ATOM     15  N   UNL     1      32.489  -7.176 -19.612  0.00  0.00    -0.360 N 
ATOM     16  H   UNL     1      33.375  -6.745 -19.603  0.00  0.00    +0.142 HD
ATOM     17  H   UNL     1      31.898  -7.103 -18.829  0.00  0.00    +0.142 HD
ENDBRANCH   8  15
TORSDOF 1
ENDMDL
MODEL 7
REMARK VINA RESULT:      -7.8     14.360     15.707
REMARK  Name = 1935
REMARK  1 active torsions:
REMARK  status: ('A' for Active; 'I' for Inactive)
REMARK    1  A    between atoms: C_8  and  N_15
REMARK                            x       y       z     vdW  Elec       q    Type
REMARK                         _______ _______ _______ _____ _____    ______ ____
ROOT
ATOM      1  N   UNL     1      32.256 -23.058 -17.533  0.00  0.00    -0.410 NA
ATOM      2  C   UNL     1      31.018 -23.993 -13.592  0.00  0.00    +0.005 C 
ATOM      3  C   UNL     1      32.523 -23.955 -13.851  0.00  0.00    +0.030 C 
ATOM      4  C   UNL     1      30.288 -24.638 -14.764  0.00  0.00    +0.008 C 
ATOM      5  C   UNL     1      32.873 -23.479 -15.234  0.00  0.00    +0.013 C 
ATOM      6  C   UNL     1      30.503 -23.819 -16.035  0.00  0.00    +0.059 C 
ATOM      7  C   UNL     1      31.945 -23.455 -16.272  0.00  0.00    +0.105 C 
ATOM      8  C   UNL     1      34.181 -23.101 -15.535  0.00  0.00    +0.027 C 
ATOM      9  C   UNL     1      34.527 -22.693 -16.830  0.00  0.00    +0.109 C 
ATOM     10  C   UNL     1      33.518 -22.686 -17.811  0.00  0.00    +0.118 C 
ATOM     11  C   UNL     1      35.837 -22.302 -17.155  0.00  0.00    -0.014 C 
ATOM     12  C   UNL     1      33.858 -22.280 -19.098  0.00  0.00    +0.028 C 
ATOM     13  C   UNL     1      36.151 -21.900 -18.451  0.00  0.00    -0.004 C 
ATOM     14  C   UNL     1      35.160 -21.889 -19.423  0.00  0.00    +0.002 C 
ENDROOT
BRANCH   8  15
ATOM     15  N   UNL     1      35.167 -23.140 -14.514  0.00  0.00    -0.360 N 
ATOM     16  H   UNL     1      35.560 -24.002 -14.242  0.00  0.00    +0.142 HD
ATOM     17  H   UNL     1      35.457 -22.307 -14.078  0.00  0.00    +0.142 HD
ENDBRANCH   8  15
TORSDOF 1
ENDMDL
MODEL 8
REMARK VINA RESULT:      -7.7     13.220     15.307
REMARK  Name = 1935
REMARK  1 active torsions:
REMARK  status: ('A' for Active; 'I' for Inactive)
REMARK    1  A    between atoms: C_8  and  N_15
REMARK                            x       y       z     vdW  Elec       q    Type
REMARK                         _______ _______ _______ _____ _____    ______ ____
ROOT
ATOM      1  N   UNL     1      36.820 -22.091 -17.479  0.00  0.00    -0.410 NA
ATOM      2  C   UNL     1      35.853 -24.710 -14.293  0.00  0.00    +0.005 C 
ATOM      3  C   UNL     1      34.682 -24.086 -15.052  0.00  0.00    +0.030 C 
ATOM      4  C   UNL     1      36.967 -23.690 -14.093  0.00  0.00    +0.008 C 
ATOM      5  C   UNL     1      35.115 -23.286 -16.250  0.00  0.00    +0.013 C 
ATOM      6  C   UNL     1      37.507 -23.226 -15.444  0.00  0.00    +0.059 C 
ATOM      7  C   UNL     1      36.424 -22.841 -16.418  0.00  0.00    +0.105 C 
ATOM      8  C   UNL     1      34.180 -22.905 -17.213  0.00  0.00    +0.027 C 
ATOM      9  C   UNL     1      34.565 -22.127 -18.312  0.00  0.00    +0.109 C 
ATOM     10  C   UNL     1      35.914 -21.738 -18.407  0.00  0.00    +0.118 C 
ATOM     11  C   UNL     1      33.642 -21.737 -19.298  0.00  0.00    -0.014 C 
ATOM     12  C   UNL     1      36.298 -20.965 -19.499  0.00  0.00    +0.028 C 
ATOM     13  C   UNL     1      34.053 -20.963 -20.381  0.00  0.00    -0.004 C 
ATOM     14  C   UNL     1      35.383 -20.577 -20.481  0.00  0.00    +0.002 C 
ENDROOT
BRANCH   8  15
ATOM     15  N   UNL     1      32.828 -23.310 -17.064  0.00  0.00    -0.360 N 
ATOM     16  H   UNL     1      32.141 -22.966 -17.681  0.00  0.00    +0.142 HD
ATOM     17  H   UNL     1      32.577 -23.934 -16.347  0.00  0.00    +0.142 HD
ENDBRANCH   8  15
TORSDOF 1
ENDMDL
MODEL 9
REMARK VINA RESULT:      -7.7      6.482      9.905
REMARK  Name = 1935
REMARK  1 active torsions:
REMARK  status: ('A' for Active; 'I' for Inactive)
REMARK    1  A    between atoms: C_8  and  N_15
REMARK                            x       y       z     vdW  Elec       q    Type
REMARK                         _______ _______ _______ _____ _____    ______ ____
ROOT
ATOM      1  N   UNL     1      34.485 -15.387 -22.307  0.00  0.00    -0.410 NA
ATOM      2  C   UNL     1      32.847 -13.811 -25.881  0.00  0.00    +0.005 C 
ATOM      3  C   UNL     1      33.509 -15.185 -25.974  0.00  0.00    +0.030 C 
ATOM      4  C   UNL     1      33.649 -12.890 -24.971  0.00  0.00    +0.008 C 
ATOM      5  C   UNL     1      33.936 -15.727 -24.637  0.00  0.00    +0.013 C 
ATOM      6  C   UNL     1      33.700 -13.458 -23.555  0.00  0.00    +0.059 C 
ATOM      7  C   UNL     1      34.071 -14.917 -23.512  0.00  0.00    +0.105 C 
ATOM      8  C   UNL     1      34.276 -17.073 -24.502  0.00  0.00    +0.027 C 
ATOM      9  C   UNL     1      34.712 -17.579 -23.271  0.00  0.00    +0.109 C 
ATOM     10  C   UNL     1      34.801 -16.689 -22.185  0.00  0.00    +0.118 C 
ATOM     11  C   UNL     1      35.054 -18.933 -23.110  0.00  0.00    -0.014 C 
ATOM     12  C   UNL     1      35.233 -17.190 -20.960  0.00  0.00    +0.028 C 
ATOM     13  C   UNL     1      35.483 -19.409 -21.874  0.00  0.00    -0.004 C 
ATOM     14  C   UNL     1      35.573 -18.535 -20.797  0.00  0.00    +0.002 C 
ENDROOT
BRANCH   8  15
ATOM     15  N   UNL     1      34.183 -17.928 -25.631  0.00  0.00    -0.360 N 
ATOM     16  H   UNL     1      34.295 -17.559 -26.538  0.00  0.00    +0.142 HD
ATOM     17  H   UNL     1      34.008 -18.888 -25.509  0.00  0.00    +0.142 HD
ENDBRANCH   8  15
TORSDOF 1
ENDMDL
