MODEL 1
REMARK VINA RESULT:      -8.0      0.000      0.000
REMARK  Name = 4747357
REMARK  3 active torsions:
REMARK  status: ('A' for Active; 'I' for Inactive)
REMARK    1  A    between atoms: N_3  and  C_9
REMARK    2  A    between atoms: N_4  and  C_23
REMARK    3  A    between atoms: C_23  and  C_24
REMARK                            x       y       z     vdW  Elec       q    Type
REMARK                         _______ _______ _______ _____ _____    ______ ____
ROOT
ATOM      1  O   UNL     1      38.415 -22.718 -15.862  0.00  0.00    -0.265 OA
ATOM      2  O   UNL     1      39.438 -27.086 -14.483  0.00  0.00    -0.246 OA
ATOM      3  N   UNL     1      35.560 -23.395 -15.389  0.00  0.00    -0.270 N 
ATOM      4  N   UNL     1      34.959 -25.431 -14.664  0.00  0.00    -0.291 N 
ATOM      5  N   UNL     1      37.219 -26.395 -14.524  0.00  0.00    -0.266 N 
ATOM      6  N   UNL     1      38.972 -24.887 -15.150  0.00  0.00    -0.246 N 
ATOM      7  C   UNL     1      34.486 -24.185 -15.041  0.00  0.00    +0.216 C 
ATOM      8  C   UNL     1      36.685 -24.173 -15.219  0.00  0.00    +0.137 A 
ATOM      9  C   UNL     1      36.330 -25.390 -14.785  0.00  0.00    +0.133 A 
ATOM     10  C   UNL     1      38.087 -23.825 -15.450  0.00  0.00    +0.280 A 
ATOM     11  C   UNL     1      38.607 -26.198 -14.699  0.00  0.00    +0.335 A 
ATOM     12  C   UNL     1      36.729 -27.687 -14.059  0.00  0.00    +0.136 C 
ATOM     13  C   UNL     1      40.390 -24.607 -15.349  0.00  0.00    +0.138 C 
ATOM     14  H   UNL     1      34.419 -26.197 -14.365  0.00  0.00    +0.151 HD
ENDROOT
BRANCH   7  15
ATOM     15  N   UNL     1      33.141 -23.824 -15.053  0.00  0.00    -0.246 NA
ATOM     16  N   UNL     1      30.294 -23.197 -15.076  0.00  0.00    +0.386 N 
ATOM     17  C   UNL     1      32.357 -23.880 -16.299  0.00  0.00    +0.052 C 
ATOM     18  C   UNL     1      32.463 -23.377 -13.825  0.00  0.00    +0.052 C 
ATOM     19  C   UNL     1      31.171 -22.924 -16.216  0.00  0.00    -0.064 C 
ATOM     20  C   UNL     1      30.977 -23.716 -13.889  0.00  0.00    -0.064 C 
ATOM     21  H   UNL     1      29.597 -23.883 -15.367  0.00  0.00    -0.084 HD
ATOM     22  H   UNL     1      29.886 -22.301 -14.805  0.00  0.00    -0.084 HD
ENDBRANCH   7  15
BRANCH   3  23
ATOM     23  C   UNL     1      35.536 -22.013 -15.846  0.00  0.00    +0.120 C 
BRANCH  23  24
ATOM     24  C   UNL     1      35.559 -21.954 -17.348  0.00  0.00    -0.002 C 
ATOM     25  C   UNL     1      36.668 -21.428 -17.996  0.00  0.00    -0.003 C 
ATOM     26  C   UNL     1      34.469 -22.425 -18.070  0.00  0.00    -0.003 C 
ATOM     27  C   UNL     1      36.690 -21.374 -19.390  0.00  0.00    -0.000 C 
ATOM     28  C   UNL     1      34.491 -22.371 -19.463  0.00  0.00    -0.000 C 
ATOM     29  C   UNL     1      35.602 -21.845 -20.123  0.00  0.00    -0.000 C 
ENDBRANCH  23  24
ENDBRANCH   3  23
TORSDOF 3
ENDMDL
MODEL 2
REMARK VINA RESULT:      -7.8      2.126      2.509
REMARK  Name = 4747357
REMARK  3 active torsions:
REMARK  status: ('A' for Active; 'I' for Inactive)
REMARK    1  A    between atoms: N_3  and  C_9
REMARK    2  A    between atoms: N_4  and  C_23
REMARK    3  A    between atoms: C_23  and  C_24
REMARK                            x       y       z     vdW  Elec       q    Type
REMARK                         _______ _______ _______ _____ _____    ______ ____
ROOT
ATOM      1  O   UNL     1      37.180 -25.365 -15.599  0.00  0.00    -0.265 OA
ATOM      2  O   UNL     1      38.441 -24.372 -11.189  0.00  0.00    -0.246 OA
ATOM      3  N   UNL     1      34.420 -24.573 -14.832  0.00  0.00    -0.270 N 
ATOM      4  N   UNL     1      33.950 -23.892 -12.747  0.00  0.00    -0.291 N 
ATOM      5  N   UNL     1      36.224 -24.093 -11.830  0.00  0.00    -0.266 N 
ATOM      6  N   UNL     1      37.859 -24.851 -13.409  0.00  0.00    -0.246 N 
ATOM      7  C   UNL     1      33.413 -24.135 -14.000  0.00  0.00    +0.216 C 
ATOM      8  C   UNL     1      35.570 -24.590 -14.072  0.00  0.00    +0.137 A 
ATOM      9  C   UNL     1      35.293 -24.183 -12.826  0.00  0.00    +0.133 A 
ATOM     10  C   UNL     1      36.925 -24.976 -14.464  0.00  0.00    +0.280 A 
ATOM     11  C   UNL     1      37.575 -24.431 -12.068  0.00  0.00    +0.335 A 
ATOM     12  C   UNL     1      35.818 -23.643 -10.504  0.00  0.00    +0.136 C 
ATOM     13  C   UNL     1      39.235 -25.212 -13.731  0.00  0.00    +0.138 C 
ATOM     14  H   UNL     1      33.465 -23.570 -11.954  0.00  0.00    +0.151 HD
ENDROOT
BRANCH   7  15
ATOM     15  N   UNL     1      32.071 -23.957 -14.330  0.00  0.00    -0.246 NA
ATOM     16  N   UNL     1      29.293 -23.613 -15.144  0.00  0.00    +0.386 N 
ATOM     17  C   UNL     1      31.603 -22.697 -14.931  0.00  0.00    +0.052 C 
ATOM     18  C   UNL     1      31.082 -25.021 -14.087  0.00  0.00    +0.052 C 
ATOM     19  C   UNL     1      30.115 -22.504 -14.655  0.00  0.00    -0.064 C 
ATOM     20  C   UNL     1      29.943 -24.923 -15.098  0.00  0.00    -0.064 C 
ATOM     21  H   UNL     1      29.040 -23.417 -16.113  0.00  0.00    -0.084 HD
ATOM     22  H   UNL     1      28.486 -23.669 -14.523  0.00  0.00    -0.084 HD
ENDBRANCH   7  15
BRANCH   3  23
ATOM     23  C   UNL     1      34.316 -24.945 -16.236  0.00  0.00    +0.120 C 
BRANCH  23  24
ATOM     24  C   UNL     1      34.462 -23.734 -17.115  0.00  0.00    -0.002 C 
ATOM     25  C   UNL     1      35.606 -22.953 -17.021  0.00  0.00    -0.003 C 
ATOM     26  C   UNL     1      33.449 -23.410 -18.009  0.00  0.00    -0.003 C 
ATOM     27  C   UNL     1      35.742 -21.830 -17.836  0.00  0.00    -0.000 C 
ATOM     28  C   UNL     1      33.585 -22.286 -18.824  0.00  0.00    -0.000 C 
ATOM     29  C   UNL     1      34.731 -21.496 -18.738  0.00  0.00    -0.000 C 
ENDBRANCH  23  24
ENDBRANCH   3  23
TORSDOF 3
ENDMDL
MODEL 3
REMARK VINA RESULT:      -7.7     10.780     13.158
REMARK  Name = 4747357
REMARK  3 active torsions:
REMARK  status: ('A' for Active; 'I' for Inactive)
REMARK    1  A    between atoms: N_3  and  C_9
REMARK    2  A    between atoms: N_4  and  C_23
REMARK    3  A    between atoms: C_23  and  C_24
REMARK                            x       y       z     vdW  Elec       q    Type
REMARK                         _______ _______ _______ _____ _____    ______ ____
ROOT
ATOM      1  O   UNL     1      33.512 -15.128 -25.812  0.00  0.00    -0.265 OA
ATOM      2  O   UNL     1      35.298 -18.447 -23.016  0.00  0.00    -0.246 OA
ATOM      3  N   UNL     1      32.832 -13.621 -23.343  0.00  0.00    -0.270 N 
ATOM      4  N   UNL     1      33.313 -14.448 -21.314  0.00  0.00    -0.291 N 
ATOM      5  N   UNL     1      34.363 -16.542 -22.069  0.00  0.00    -0.266 N 
ATOM      6  N   UNL     1      34.444 -16.800 -24.449  0.00  0.00    -0.246 N 
ATOM      7  C   UNL     1      32.747 -13.380 -21.989  0.00  0.00    +0.216 C 
ATOM      8  C   UNL     1      33.455 -14.843 -23.480  0.00  0.00    +0.137 A 
ATOM      9  C   UNL     1      33.744 -15.340 -22.270  0.00  0.00    +0.133 A 
ATOM     10  C   UNL     1      33.790 -15.572 -24.704  0.00  0.00    +0.280 A 
ATOM     11  C   UNL     1      34.747 -17.352 -23.161  0.00  0.00    +0.335 A 
ATOM     12  C   UNL     1      34.629 -16.996 -20.709  0.00  0.00    +0.136 C 
ATOM     13  C   UNL     1      34.816 -17.577 -25.626  0.00  0.00    +0.138 C 
ATOM     14  H   UNL     1      33.393 -14.550 -20.338  0.00  0.00    +0.151 HD
ENDROOT
BRANCH   7  15
ATOM     15  N   UNL     1      32.193 -12.262 -21.369  0.00  0.00    -0.246 NA
ATOM     16  N   UNL     1      31.152  -9.868 -20.072  0.00  0.00    +0.386 N 
ATOM     17  C   UNL     1      32.308 -12.072 -19.913  0.00  0.00    +0.052 C 
ATOM     18  C   UNL     1      31.476 -11.240 -22.149  0.00  0.00    +0.052 C 
ATOM     19  C   UNL     1      31.182 -11.174 -19.410  0.00  0.00    -0.064 C 
ATOM     20  C   UNL     1      31.591  -9.879 -21.468  0.00  0.00    -0.064 C 
ATOM     21  H   UNL     1      31.759  -9.234 -19.552  0.00  0.00    -0.084 HD
ATOM     22  H   UNL     1      30.175  -9.572 -20.079  0.00  0.00    -0.084 HD
ENDBRANCH   7  15
BRANCH   3  23
ATOM     23  C   UNL     1      32.367 -12.770 -24.428  0.00  0.00    +0.120 C 
BRANCH  23  24
ATOM     24  C   UNL     1      33.484 -11.898 -24.930  0.00  0.00    -0.002 C 
ATOM     25  C   UNL     1      34.021 -10.925 -24.098  0.00  0.00    -0.003 C 
ATOM     26  C   UNL     1      33.965 -12.076 -26.221  0.00  0.00    -0.003 C 
ATOM     27  C   UNL     1      35.058 -10.116 -24.564  0.00  0.00    -0.000 C 
ATOM     28  C   UNL     1      35.002 -11.267 -26.687  0.00  0.00    -0.000 C 
ATOM     29  C   UNL     1      35.548 -10.288 -25.858  0.00  0.00    -0.000 C 
ENDBRANCH  23  24
ENDBRANCH   3  23
TORSDOF 3
ENDMDL
MODEL 4
REMARK VINA RESULT:      -7.2     11.814     14.962
REMARK  Name = 4747357
REMARK  3 active torsions:
REMARK  status: ('A' for Active; 'I' for Inactive)
REMARK    1  A    between atoms: N_3  and  C_9
REMARK    2  A    between atoms: N_4  and  C_23
REMARK    3  A    between atoms: C_23  and  C_24
REMARK                            x       y       z     vdW  Elec       q    Type
REMARK                         _______ _______ _______ _____ _____    ______ ____
ROOT
ATOM      1  O   UNL     1      31.537 -10.643 -21.090  0.00  0.00    -0.265 OA
ATOM      2  O   UNL     1      33.912  -7.136 -23.112  0.00  0.00    -0.246 OA
ATOM      3  N   UNL     1      32.734 -12.435 -23.136  0.00  0.00    -0.270 N 
ATOM      4  N   UNL     1      34.127 -11.636 -24.702  0.00  0.00    -0.291 N 
ATOM      5  N   UNL     1      34.102  -9.286 -23.975  0.00  0.00    -0.266 N 
ATOM      6  N   UNL     1      32.733  -8.864 -22.055  0.00  0.00    -0.246 N 
ATOM      7  C   UNL     1      33.500 -12.777 -24.229  0.00  0.00    +0.216 C 
ATOM      8  C   UNL     1      32.903 -11.080 -22.952  0.00  0.00    +0.137 A 
ATOM      9  C   UNL     1      33.735 -10.599 -23.886  0.00  0.00    +0.133 A 
ATOM     10  C   UNL     1      32.312 -10.210 -21.936  0.00  0.00    +0.280 A 
ATOM     11  C   UNL     1      33.610  -8.332 -23.055  0.00  0.00    +0.335 A 
ATOM     12  C   UNL     1      35.012  -8.862 -25.032  0.00  0.00    +0.136 C 
ATOM     13  C   UNL     1      32.189  -7.939 -21.066  0.00  0.00    +0.138 C 
ATOM     14  H   UNL     1      34.736 -11.579 -25.472  0.00  0.00    +0.151 HD
ENDROOT
BRANCH   7  15
ATOM     15  N   UNL     1      33.644 -14.044 -24.790  0.00  0.00    -0.246 NA
ATOM     16  N   UNL     1      33.846 -16.737 -25.888  0.00  0.00    +0.386 N 
ATOM     17  C   UNL     1      34.368 -15.108 -24.073  0.00  0.00    +0.052 C 
ATOM     18  C   UNL     1      33.079 -14.357 -26.113  0.00  0.00    +0.052 C 
ATOM     19  C   UNL     1      34.898 -16.141 -25.063  0.00  0.00    -0.064 C 
ATOM     20  C   UNL     1      32.732 -15.840 -26.201  0.00  0.00    -0.064 C 
ATOM     21  H   UNL     1      33.473 -17.547 -25.391  0.00  0.00    -0.084 HD
ATOM     22  H   UNL     1      34.280 -16.978 -26.779  0.00  0.00    -0.084 HD
ENDBRANCH   7  15
BRANCH   3  23
ATOM     23  C   UNL     1      31.905 -13.314 -22.322  0.00  0.00    +0.120 C 
BRANCH  23  24
ATOM     24  C   UNL     1      32.758 -14.306 -21.582  0.00  0.00    -0.002 C 
ATOM     25  C   UNL     1      32.301 -15.605 -21.406  0.00  0.00    -0.003 C 
ATOM     26  C   UNL     1      33.992 -13.911 -21.082  0.00  0.00    -0.003 C 
ATOM     27  C   UNL     1      33.092 -16.526 -20.719  0.00  0.00    -0.000 C 
ATOM     28  C   UNL     1      34.783 -14.832 -20.395  0.00  0.00    -0.000 C 
ATOM     29  C   UNL     1      34.333 -16.139 -20.214  0.00  0.00    -0.000 C 
ENDBRANCH  23  24
ENDBRANCH   3  23
TORSDOF 3
ENDMDL
MODEL 5
REMARK VINA RESULT:      -7.1     12.476     15.598
REMARK  Name = 4747357
REMARK  3 active torsions:
REMARK  status: ('A' for Active; 'I' for Inactive)
REMARK    1  A    between atoms: N_3  and  C_9
REMARK    2  A    between atoms: N_4  and  C_23
REMARK    3  A    between atoms: C_23  and  C_24
REMARK                            x       y       z     vdW  Elec       q    Type
REMARK                         _______ _______ _______ _____ _____    ______ ____
ROOT
ATOM      1  O   UNL     1      30.977 -12.188 -20.828  0.00  0.00    -0.265 OA
ATOM      2  O   UNL     1      32.046  -7.776 -19.635  0.00  0.00    -0.246 OA
ATOM      3  N   UNL     1      32.560 -11.745 -23.304  0.00  0.00    -0.270 N 
ATOM      4  N   UNL     1      33.555  -9.775 -23.704  0.00  0.00    -0.291 N 
ATOM      5  N   UNL     1      32.843  -8.639 -21.641  0.00  0.00    -0.266 N 
ATOM      6  N   UNL     1      31.514  -9.994 -20.180  0.00  0.00    -0.246 N 
ATOM      7  C   UNL     1      33.336 -11.048 -24.204  0.00  0.00    +0.216 C 
ATOM      8  C   UNL     1      32.312 -10.884 -22.257  0.00  0.00    +0.137 A 
ATOM      9  C   UNL     1      32.905  -9.706 -22.493  0.00  0.00    +0.133 A 
ATOM     10  C   UNL     1      31.536 -11.117 -21.039  0.00  0.00    +0.280 A 
ATOM     11  C   UNL     1      32.131  -8.723 -20.423  0.00  0.00    +0.335 A 
ATOM     12  C   UNL     1      33.522  -7.397 -21.992  0.00  0.00    +0.136 C 
ATOM     13  C   UNL     1      30.763 -10.158 -18.939  0.00  0.00    +0.138 C 
ATOM     14  H   UNL     1      34.075  -9.058 -24.133  0.00  0.00    +0.151 HD
ENDROOT
BRANCH   7  15
ATOM     15  N   UNL     1      33.834 -11.513 -25.419  0.00  0.00    -0.246 NA
ATOM     16  N   UNL     1      34.938 -12.581 -27.897  0.00  0.00    +0.386 N 
ATOM     17  C   UNL     1      35.205 -11.186 -25.846  0.00  0.00    +0.052 C 
ATOM     18  C   UNL     1      33.006 -12.342 -26.311  0.00  0.00    +0.052 C 
ATOM     19  C   UNL     1      35.315 -11.270 -27.366  0.00  0.00    -0.064 C 
ATOM     20  C   UNL     1      33.891 -13.269 -27.140  0.00  0.00    -0.064 C 
ATOM     21  H   UNL     1      35.769 -13.173 -27.900  0.00  0.00    -0.084 HD
ATOM     22  H   UNL     1      34.559 -12.416 -28.829  0.00  0.00    -0.084 HD
ENDBRANCH   7  15
BRANCH   3  23
ATOM     23  C   UNL     1      32.086 -13.117 -23.415  0.00  0.00    +0.120 C 
BRANCH  23  24
ATOM     24  C   UNL     1      33.094 -14.071 -22.838  0.00  0.00    -0.002 C 
ATOM     25  C   UNL     1      33.966 -14.742 -23.684  0.00  0.00    -0.003 C 
ATOM     26  C   UNL     1      33.140 -14.271 -21.464  0.00  0.00    -0.003 C 
ATOM     27  C   UNL     1      34.902 -15.627 -23.148  0.00  0.00    -0.000 C 
ATOM     28  C   UNL     1      34.076 -15.156 -20.928  0.00  0.00    -0.000 C 
ATOM     29  C   UNL     1      34.956 -15.834 -21.770  0.00  0.00    -0.000 C 
ENDBRANCH  23  24
ENDBRANCH   3  23
TORSDOF 3
ENDMDL
MODEL 6
REMARK VINA RESULT:      -6.9      2.212      4.924
REMARK  Name = 4747357
REMARK  3 active torsions:
REMARK  status: ('A' for Active; 'I' for Inactive)
REMARK    1  A    between atoms: N_3  and  C_9
REMARK    2  A    between atoms: N_4  and  C_23
REMARK    3  A    between atoms: C_23  and  C_24
REMARK                            x       y       z     vdW  Elec       q    Type
REMARK                         _______ _______ _______ _____ _____    ______ ____
ROOT
ATOM      1  O   UNL     1      36.819 -22.575 -15.162  0.00  0.00    -0.265 OA
ATOM      2  O   UNL     1      36.366 -21.253 -19.642  0.00  0.00    -0.246 OA
ATOM      3  N   UNL     1      33.966 -23.401 -15.272  0.00  0.00    -0.270 N 
ATOM      4  N   UNL     1      32.759 -23.145 -17.144  0.00  0.00    -0.291 N 
ATOM      5  N   UNL     1      34.538 -22.165 -18.534  0.00  0.00    -0.266 N 
ATOM      6  N   UNL     1      36.643 -21.928 -17.414  0.00  0.00    -0.246 N 
ATOM      7  C   UNL     1      32.721 -23.584 -15.832  0.00  0.00    +0.216 C 
ATOM      8  C   UNL     1      34.756 -22.847 -16.256  0.00  0.00    +0.137 A 
ATOM      9  C   UNL     1      34.038 -22.693 -17.376  0.00  0.00    +0.133 A 
ATOM     10  C   UNL     1      36.163 -22.451 -16.191  0.00  0.00    +0.280 A 
ATOM     11  C   UNL     1      35.884 -21.743 -18.616  0.00  0.00    +0.335 A 
ATOM     12  C   UNL     1      33.671 -22.036 -19.699  0.00  0.00    +0.136 C 
ATOM     13  C   UNL     1      38.043 -21.519 -17.425  0.00  0.00    +0.138 C 
ATOM     14  H   UNL     1      32.014 -23.154 -17.788  0.00  0.00    +0.151 HD
ENDROOT
BRANCH   7  15
ATOM     15  N   UNL     1      31.593 -24.119 -15.213  0.00  0.00    -0.246 NA
ATOM     16  N   UNL     1      29.171 -25.124 -13.941  0.00  0.00    +0.386 N 
ATOM     17  C   UNL     1      31.270 -23.783 -13.816  0.00  0.00    +0.052 C 
ATOM     18  C   UNL     1      30.693 -25.034 -15.935  0.00  0.00    +0.052 C 
ATOM     19  C   UNL     1      30.409 -24.881 -13.198  0.00  0.00    -0.064 C 
ATOM     20  C   UNL     1      29.274 -24.919 -15.386  0.00  0.00    -0.064 C 
ATOM     21  H   UNL     1      28.455 -24.494 -13.580  0.00  0.00    -0.084 HD
ATOM     22  H   UNL     1      28.943 -26.110 -13.805  0.00  0.00    -0.084 HD
ENDBRANCH   7  15
BRANCH   3  23
ATOM     23  C   UNL     1      34.386 -23.721 -13.915  0.00  0.00    +0.120 C 
BRANCH  23  24
ATOM     24  C   UNL     1      35.423 -24.811 -13.927  0.00  0.00    -0.002 C 
ATOM     25  C   UNL     1      36.235 -24.997 -12.817  0.00  0.00    -0.003 C 
ATOM     26  C   UNL     1      35.556 -25.617 -15.051  0.00  0.00    -0.003 C 
ATOM     27  C   UNL     1      37.196 -26.007 -12.829  0.00  0.00    -0.000 C 
ATOM     28  C   UNL     1      36.517 -26.627 -15.062  0.00  0.00    -0.000 C 
ATOM     29  C   UNL     1      37.337 -26.822 -13.951  0.00  0.00    -0.000 C 
ENDBRANCH  23  24
ENDBRANCH   3  23
TORSDOF 3
ENDMDL
MODEL 7
REMARK VINA RESULT:      -6.8      2.812      6.302
REMARK  Name = 4747357
REMARK  3 active torsions:
REMARK  status: ('A' for Active; 'I' for Inactive)
REMARK    1  A    between atoms: N_3  and  C_9
REMARK    2  A    between atoms: N_4  and  C_23
REMARK    3  A    between atoms: C_23  and  C_24
REMARK                            x       y       z     vdW  Elec       q    Type
REMARK                         _______ _______ _______ _____ _____    ______ ____
ROOT
ATOM      1  O   UNL     1      33.117 -23.854 -12.863  0.00  0.00    -0.265 OA
ATOM      2  O   UNL     1      28.842 -24.802 -14.552  0.00  0.00    -0.246 OA
ATOM      3  N   UNL     1      33.873 -23.065 -15.627  0.00  0.00    -0.270 N 
ATOM      4  N   UNL     1      32.393 -23.181 -17.308  0.00  0.00    -0.291 N 
ATOM      5  N   UNL     1      30.487 -24.013 -15.993  0.00  0.00    -0.266 N 
ATOM      6  N   UNL     1      30.956 -24.313 -13.663  0.00  0.00    -0.246 N 
ATOM      7  C   UNL     1      33.696 -22.853 -16.977  0.00  0.00    +0.216 C 
ATOM      8  C   UNL     1      32.665 -23.522 -15.145  0.00  0.00    +0.137 A 
ATOM      9  C   UNL     1      31.778 -23.592 -16.147  0.00  0.00    +0.133 A 
ATOM     10  C   UNL     1      32.304 -23.901 -13.779  0.00  0.00    +0.280 A 
ATOM     11  C   UNL     1      29.999 -24.407 -14.726  0.00  0.00    +0.335 A 
ATOM     12  C   UNL     1      29.601 -24.057 -17.150  0.00  0.00    +0.136 C 
ATOM     13  C   UNL     1      30.523 -24.698 -12.323  0.00  0.00    +0.138 C 
ATOM     14  H   UNL     1      31.984 -23.129 -18.202  0.00  0.00    +0.151 HD
ENDROOT
BRANCH   7  15
ATOM     15  N   UNL     1      34.646 -22.390 -17.884  0.00  0.00    -0.246 NA
ATOM     16  N   UNL     1      36.600 -21.297 -19.752  0.00  0.00    +0.386 N 
ATOM     17  C   UNL     1      34.249 -21.947 -19.232  0.00  0.00    +0.052 C 
ATOM     18  C   UNL     1      36.073 -22.329 -17.525  0.00  0.00    +0.052 C 
ATOM     19  C   UNL     1      35.431 -22.060 -20.191  0.00  0.00    -0.064 C 
ATOM     20  C   UNL     1      36.765 -21.212 -18.300  0.00  0.00    -0.064 C 
ATOM     21  H   UNL     1      36.517 -20.348 -20.119  0.00  0.00    -0.084 HD
ATOM     22  H   UNL     1      37.418 -21.794 -20.106  0.00  0.00    -0.084 HD
ENDBRANCH   7  15
BRANCH   3  23
ATOM     23  C   UNL     1      35.082 -22.853 -14.844  0.00  0.00    +0.120 C 
BRANCH  23  24
ATOM     24  C   UNL     1      35.942 -24.086 -14.858  0.00  0.00    -0.002 C 
ATOM     25  C   UNL     1      37.281 -23.993 -14.504  0.00  0.00    -0.003 C 
ATOM     26  C   UNL     1      35.386 -25.305 -15.226  0.00  0.00    -0.003 C 
ATOM     27  C   UNL     1      38.078 -25.137 -14.517  0.00  0.00    -0.000 C 
ATOM     28  C   UNL     1      36.183 -26.449 -15.239  0.00  0.00    -0.000 C 
ATOM     29  C   UNL     1      37.529 -26.365 -14.885  0.00  0.00    -0.000 C 
ENDBRANCH  23  24
ENDBRANCH   3  23
TORSDOF 3
ENDMDL
MODEL 8
REMARK VINA RESULT:      -6.7     15.966     18.743
REMARK  Name = 4747357
REMARK  3 active torsions:
REMARK  status: ('A' for Active; 'I' for Inactive)
REMARK    1  A    between atoms: N_3  and  C_9
REMARK    2  A    between atoms: N_4  and  C_23
REMARK    3  A    between atoms: C_23  and  C_24
REMARK                            x       y       z     vdW  Elec       q    Type
REMARK                         _______ _______ _______ _____ _____    ______ ____
ROOT
ATOM      1  O   UNL     1      35.401  -6.745 -25.549  0.00  0.00    -0.265 OA
ATOM      2  O   UNL     1      32.135  -3.533 -26.571  0.00  0.00    -0.246 OA
ATOM      3  N   UNL     1      33.507  -7.809 -23.521  0.00  0.00    -0.270 N 
ATOM      4  N   UNL     1      31.496  -6.867 -23.209  0.00  0.00    -0.291 N 
ATOM      5  N   UNL     1      31.705  -5.107 -24.917  0.00  0.00    -0.266 N 
ATOM      6  N   UNL     1      33.781  -5.138 -26.112  0.00  0.00    -0.246 N 
ATOM      7  C   UNL     1      32.343  -7.877 -22.787  0.00  0.00    +0.216 C 
ATOM      8  C   UNL     1      33.356  -6.751 -24.390  0.00  0.00    +0.137 A 
ATOM      9  C   UNL     1      32.155  -6.185 -24.207  0.00  0.00    +0.133 A 
ATOM     10  C   UNL     1      34.295  -6.241 -25.390  0.00  0.00    +0.280 A 
ATOM     11  C   UNL     1      32.506  -4.513 -25.918  0.00  0.00    +0.335 A 
ATOM     12  C   UNL     1      30.382  -4.563 -24.637  0.00  0.00    +0.136 C 
ATOM     13  C   UNL     1      34.662  -4.582 -27.133  0.00  0.00    +0.138 C 
ATOM     14  H   UNL     1      30.595  -6.674 -22.863  0.00  0.00    +0.151 HD
ENDROOT
BRANCH   7  15
ATOM     15  N   UNL     1      32.037  -8.793 -21.783  0.00  0.00    -0.246 NA
ATOM     16  N   UNL     1      31.278 -10.654 -19.671  0.00  0.00    +0.386 N 
ATOM     17  C   UNL     1      32.136  -8.416 -20.363  0.00  0.00    +0.052 C 
ATOM     18  C   UNL     1      31.606 -10.163 -22.111  0.00  0.00    +0.052 C 
ATOM     19  C   UNL     1      32.341  -9.661 -19.503  0.00  0.00    -0.064 C 
ATOM     20  C   UNL     1      30.697 -10.707 -21.013  0.00  0.00    -0.064 C 
ATOM     21  H   UNL     1      30.533 -10.437 -19.009  0.00  0.00    -0.084 HD
ATOM     22  H   UNL     1      31.708 -11.565 -19.507  0.00  0.00    -0.084 HD
ENDBRANCH   7  15
BRANCH   3  23
ATOM     23  C   UNL     1      34.675  -8.673 -23.418  0.00  0.00    +0.120 C 
BRANCH  23  24
ATOM     24  C   UNL     1      34.600  -9.784 -24.429  0.00  0.00    -0.002 C 
ATOM     25  C   UNL     1      33.662 -10.794 -24.269  0.00  0.00    -0.003 C 
ATOM     26  C   UNL     1      35.471  -9.785 -25.511  0.00  0.00    -0.003 C 
ATOM     27  C   UNL     1      33.592 -11.824 -25.207  0.00  0.00    -0.000 C 
ATOM     28  C   UNL     1      35.401 -10.815 -26.449  0.00  0.00    -0.000 C 
ATOM     29  C   UNL     1      34.462 -11.834 -26.297  0.00  0.00    -0.000 C 
ENDBRANCH  23  24
ENDBRANCH   3  23
TORSDOF 3
ENDMDL
MODEL 9
REMARK VINA RESULT:      -6.6      2.866      6.181
REMARK  Name = 4747357
REMARK  3 active torsions:
REMARK  status: ('A' for Active; 'I' for Inactive)
REMARK    1  A    between atoms: N_3  and  C_9
REMARK    2  A    between atoms: N_4  and  C_23
REMARK    3  A    between atoms: C_23  and  C_24
REMARK                            x       y       z     vdW  Elec       q    Type
REMARK                         _______ _______ _______ _____ _____    ______ ____
ROOT
ATOM      1  O   UNL     1      31.019 -23.495 -18.031  0.00  0.00    -0.265 OA
ATOM      2  O   UNL     1      28.998 -22.528 -13.906  0.00  0.00    -0.246 OA
ATOM      3  N   UNL     1      33.620 -23.474 -16.593  0.00  0.00    -0.270 N 
ATOM      4  N   UNL     1      33.721 -23.061 -14.391  0.00  0.00    -0.291 N 
ATOM      5  N   UNL     1      31.307 -22.769 -14.015  0.00  0.00    -0.266 N 
ATOM      6  N   UNL     1      29.965 -23.040 -15.980  0.00  0.00    -0.246 N 
ATOM      7  C   UNL     1      34.473 -23.345 -15.519  0.00  0.00    +0.216 C 
ATOM      8  C   UNL     1      32.348 -23.266 -16.106  0.00  0.00    +0.137 A 
ATOM      9  C   UNL     1      32.404 -23.019 -14.790  0.00  0.00    +0.133 A 
ATOM     10  C   UNL     1      31.073 -23.286 -16.824  0.00  0.00    +0.280 A 
ATOM     11  C   UNL     1      30.010 -22.760 -14.575  0.00  0.00    +0.335 A 
ATOM     12  C   UNL     1      31.477 -22.507 -12.590  0.00  0.00    +0.136 C 
ATOM     13  C   UNL     1      28.658 -23.053 -16.628  0.00  0.00    +0.138 C 
ATOM     14  H   UNL     1      34.063 -22.917 -13.480  0.00  0.00    +0.151 HD
ENDROOT
BRANCH   7  15
ATOM     15  N   UNL     1      35.860 -23.473 -15.529  0.00  0.00    -0.246 NA
ATOM     16  N   UNL     1      38.755 -23.781 -15.675  0.00  0.00    +0.386 N 
ATOM     17  C   UNL     1      36.498 -24.787 -15.340  0.00  0.00    +0.052 C 
ATOM     18  C   UNL     1      36.728 -22.300 -15.729  0.00  0.00    +0.052 C 
ATOM     19  C   UNL     1      37.916 -24.609 -14.807  0.00  0.00    -0.064 C 
ATOM     20  C   UNL     1      38.039 -22.721 -16.387  0.00  0.00    -0.064 C 
ATOM     21  H   UNL     1      39.194 -24.389 -16.367  0.00  0.00    -0.084 HD
ATOM     22  H   UNL     1      39.428 -23.315 -15.066  0.00  0.00    -0.084 HD
ENDBRANCH   7  15
BRANCH   3  23
ATOM     23  C   UNL     1      33.970 -23.772 -17.975  0.00  0.00    +0.120 C 
BRANCH  23  24
ATOM     24  C   UNL     1      34.208 -22.502 -18.744  0.00  0.00    -0.002 C 
ATOM     25  C   UNL     1      33.125 -21.783 -19.232  0.00  0.00    -0.003 C 
ATOM     26  C   UNL     1      35.508 -22.064 -18.957  0.00  0.00    -0.003 C 
ATOM     27  C   UNL     1      33.346 -20.605 -19.945  0.00  0.00    -0.000 C 
ATOM     28  C   UNL     1      35.729 -20.885 -19.671  0.00  0.00    -0.000 C 
ATOM     29  C   UNL     1      34.648 -20.156 -20.164  0.00  0.00    -0.000 C 
ENDBRANCH  23  24
ENDBRANCH   3  23
TORSDOF 3
ENDMDL
