MODEL 1
REMARK VINA RESULT:     -10.8      0.000      0.000
REMARK  Name = 9547945
REMARK  2 active torsions:
REMARK  status: ('A' for Active; 'I' for Inactive)
REMARK    1  A    between atoms: C_2  and  C_11
REMARK    2  A    between atoms: C_8  and  C_20
REMARK                            x       y       z     vdW  Elec       q    Type
REMARK                         _______ _______ _______ _____ _____    ______ ____
ROOT
ATOM      1  N   UNL     1      35.768 -19.665 -21.180  0.00  0.00    -0.313 N 
ATOM      2  C   UNL     1      34.619 -19.225 -21.780  0.00  0.00    +0.048 C 
ATOM      3  C   UNL     1      34.078 -20.683 -20.139  0.00  0.00    +0.015 C 
ATOM      4  C   UNL     1      35.468 -20.556 -20.175  0.00  0.00    +0.048 C 
ATOM      5  C   UNL     1      33.555 -19.837 -21.158  0.00  0.00    +0.016 C 
ATOM      6  C   UNL     1      33.499 -21.546 -19.187  0.00  0.00    +0.004 C 
ATOM      7  C   UNL     1      36.312 -21.253 -19.303  0.00  0.00    +0.015 C 
ATOM      8  C   UNL     1      34.331 -22.249 -18.308  0.00  0.00    +0.031 C 
ATOM      9  C   UNL     1      35.716 -22.103 -18.368  0.00  0.00    +0.004 C 
ATOM     10  H   UNL     1      36.678 -19.385 -21.432  0.00  0.00    +0.152 HD
ENDROOT
BRANCH   2  11
ATOM     11  C   UNL     1      34.638 -18.281 -22.871  0.00  0.00    +0.009 C 
ATOM     12  C   UNL     1      34.719 -16.907 -22.637  0.00  0.00    -0.021 C 
ATOM     13  C   UNL     1      34.574 -18.760 -24.180  0.00  0.00    +0.001 C 
ATOM     14  C   UNL     1      34.736 -16.015 -23.709  0.00  0.00    -0.004 C 
ATOM     15  C   UNL     1      34.788 -16.355 -21.249  0.00  0.00    +0.031 C 
ATOM     16  C   UNL     1      34.592 -17.867 -25.252  0.00  0.00    +0.000 C 
ATOM     17  C   UNL     1      34.672 -16.495 -25.017  0.00  0.00    -0.000 C 
ENDBRANCH   2  11
BRANCH   8  20
ATOM     18  N   UNL     1      32.363 -23.191 -17.123  0.00  0.00    -0.343 N 
ATOM     19  N   UNL     1      34.519 -23.922 -16.594  0.00  0.00    -0.285 NA
ATOM     20  C   UNL     1      33.742 -23.142 -17.323  0.00  0.00    +0.117 C 
ATOM     21  H   UNL     1      31.986 -23.802 -16.450  0.00  0.00    +0.144 HD
ATOM     22  H   UNL     1      31.768 -22.615 -17.655  0.00  0.00    +0.144 HD
ATOM     23  H   UNL     1      34.123 -24.526 -15.925  0.00  0.00    +0.188 HD
ENDBRANCH   8  20
TORSDOF 2
ENDMDL
MODEL 2
REMARK VINA RESULT:     -10.6      0.558      1.615
REMARK  Name = 9547945
REMARK  2 active torsions:
REMARK  status: ('A' for Active; 'I' for Inactive)
REMARK    1  A    between atoms: C_2  and  C_11
REMARK    2  A    between atoms: C_8  and  C_20
REMARK                            x       y       z     vdW  Elec       q    Type
REMARK                         _______ _______ _______ _____ _____    ______ ____
ROOT
ATOM      1  N   UNL     1      35.727 -19.359 -21.343  0.00  0.00    -0.313 N 
ATOM      2  C   UNL     1      34.589 -18.805 -21.864  0.00  0.00    +0.048 C 
ATOM      3  C   UNL     1      34.010 -20.361 -20.331  0.00  0.00    +0.015 C 
ATOM      4  C   UNL     1      35.403 -20.312 -20.404  0.00  0.00    +0.048 C 
ATOM      5  C   UNL     1      33.509 -19.404 -21.258  0.00  0.00    +0.016 C 
ATOM      6  C   UNL     1      33.408 -21.265 -19.433  0.00  0.00    +0.004 C 
ATOM      7  C   UNL     1      36.229 -21.127 -19.621  0.00  0.00    +0.015 C 
ATOM      8  C   UNL     1      34.222 -22.086 -18.643  0.00  0.00    +0.031 C 
ATOM      9  C   UNL     1      35.611 -22.016 -18.738  0.00  0.00    +0.004 C 
ATOM     10  H   UNL     1      36.644 -19.112 -21.602  0.00  0.00    +0.152 HD
ENDROOT
BRANCH   2  11
ATOM     11  C   UNL     1      34.633 -17.776 -22.875  0.00  0.00    +0.009 C 
ATOM     12  C   UNL     1      34.698 -18.097 -24.232  0.00  0.00    -0.021 C 
ATOM     13  C   UNL     1      34.609 -16.438 -22.478  0.00  0.00    +0.001 C 
ATOM     14  C   UNL     1      34.740 -17.083 -25.189  0.00  0.00    -0.004 C 
ATOM     15  C   UNL     1      34.727 -19.518 -24.696  0.00  0.00    +0.031 C 
ATOM     16  C   UNL     1      34.650 -15.424 -23.436  0.00  0.00    +0.000 C 
ATOM     17  C   UNL     1      34.716 -15.747 -24.791  0.00  0.00    -0.000 C 
ENDBRANCH   2  11
BRANCH   8  20
ATOM     18  N   UNL     1      32.224 -23.112 -17.584  0.00  0.00    -0.343 N 
ATOM     19  N   UNL     1      34.370 -23.804 -16.970  0.00  0.00    -0.285 NA
ATOM     20  C   UNL     1      33.609 -23.022 -17.714  0.00  0.00    +0.117 C 
ATOM     21  H   UNL     1      31.830 -23.752 -16.948  0.00  0.00    +0.144 HD
ATOM     22  H   UNL     1      31.640 -22.535 -18.127  0.00  0.00    +0.144 HD
ATOM     23  H   UNL     1      33.958 -24.438 -16.340  0.00  0.00    +0.188 HD
ENDBRANCH   8  20
TORSDOF 2
ENDMDL
MODEL 3
REMARK VINA RESULT:     -10.5      3.150      7.591
REMARK  Name = 9547945
REMARK  2 active torsions:
REMARK  status: ('A' for Active; 'I' for Inactive)
REMARK    1  A    between atoms: C_2  and  C_11
REMARK    2  A    between atoms: C_8  and  C_20
REMARK                            x       y       z     vdW  Elec       q    Type
REMARK                         _______ _______ _______ _____ _____    ______ ____
ROOT
ATOM      1  N   UNL     1      34.695 -18.016 -22.879  0.00  0.00    -0.313 N 
ATOM      2  C   UNL     1      34.864 -18.068 -21.522  0.00  0.00    +0.048 C 
ATOM      3  C   UNL     1      34.394 -15.940 -22.121  0.00  0.00    +0.015 C 
ATOM      4  C   UNL     1      34.407 -16.729 -23.273  0.00  0.00    +0.048 C 
ATOM      5  C   UNL     1      34.685 -16.798 -21.024  0.00  0.00    +0.016 C 
ATOM      6  C   UNL     1      34.121 -14.563 -22.245  0.00  0.00    +0.004 C 
ATOM      7  C   UNL     1      34.160 -16.208 -24.548  0.00  0.00    +0.015 C 
ATOM      8  C   UNL     1      33.871 -14.027 -23.514  0.00  0.00    +0.031 C 
ATOM      9  C   UNL     1      33.891 -14.840 -24.647  0.00  0.00    +0.004 C 
ATOM     10  H   UNL     1      34.769 -18.788 -23.486  0.00  0.00    +0.152 HD
ENDROOT
BRANCH   2  11
ATOM     11  C   UNL     1      35.177 -19.298 -20.836  0.00  0.00    +0.009 C 
ATOM     12  C   UNL     1      34.169 -20.169 -20.416  0.00  0.00    -0.021 C 
ATOM     13  C   UNL     1      36.514 -19.615 -20.593  0.00  0.00    +0.001 C 
ATOM     14  C   UNL     1      34.498 -21.352 -19.755  0.00  0.00    -0.004 C 
ATOM     15  C   UNL     1      32.725 -19.863 -20.657  0.00  0.00    +0.031 C 
ATOM     16  C   UNL     1      36.842 -20.800 -19.933  0.00  0.00    +0.000 C 
ATOM     17  C   UNL     1      35.834 -21.668 -19.513  0.00  0.00    -0.000 C 
ENDBRANCH   2  11
BRANCH   8  20
ATOM     18  N   UNL     1      32.587 -11.993 -22.899  0.00  0.00    -0.343 N 
ATOM     19  N   UNL     1      34.283 -11.877 -24.503  0.00  0.00    -0.285 NA
ATOM     20  C   UNL     1      33.588 -12.607 -23.650  0.00  0.00    +0.117 C 
ATOM     21  H   UNL     1      32.412 -11.031 -23.008  0.00  0.00    +0.144 HD
ATOM     22  H   UNL     1      32.056 -12.523 -22.261  0.00  0.00    +0.144 HD
ATOM     23  H   UNL     1      34.093 -10.915 -24.597  0.00  0.00    +0.188 HD
ENDBRANCH   8  20
TORSDOF 2
ENDMDL
MODEL 4
REMARK VINA RESULT:     -10.3      2.751      7.385
REMARK  Name = 9547945
REMARK  2 active torsions:
REMARK  status: ('A' for Active; 'I' for Inactive)
REMARK    1  A    between atoms: C_2  and  C_11
REMARK    2  A    between atoms: C_8  and  C_20
REMARK                            x       y       z     vdW  Elec       q    Type
REMARK                         _______ _______ _______ _____ _____    ______ ____
ROOT
ATOM      1  N   UNL     1      34.620 -19.081 -22.824  0.00  0.00    -0.313 N 
ATOM      2  C   UNL     1      34.447 -18.948 -21.472  0.00  0.00    +0.048 C 
ATOM      3  C   UNL     1      34.154 -16.932 -22.451  0.00  0.00    +0.015 C 
ATOM      4  C   UNL     1      34.447 -17.866 -23.446  0.00  0.00    +0.048 C 
ATOM      5  C   UNL     1      34.158 -17.629 -21.210  0.00  0.00    +0.016 C 
ATOM      6  C   UNL     1      33.928 -15.591 -22.823  0.00  0.00    +0.004 C 
ATOM      7  C   UNL     1      34.527 -17.525 -24.801  0.00  0.00    +0.015 C 
ATOM      8  C   UNL     1      34.005 -15.236 -24.175  0.00  0.00    +0.031 C 
ATOM      9  C   UNL     1      34.300 -16.190 -25.147  0.00  0.00    +0.004 C 
ATOM     10  H   UNL     1      34.838 -19.924 -23.284  0.00  0.00    +0.152 HD
ENDROOT
BRANCH   2  11
ATOM     11  C   UNL     1      34.572 -20.068 -20.571  0.00  0.00    +0.009 C 
ATOM     12  C   UNL     1      35.820 -20.484 -20.103  0.00  0.00    -0.021 C 
ATOM     13  C   UNL     1      33.418 -20.740 -20.165  0.00  0.00    +0.001 C 
ATOM     14  C   UNL     1      35.914 -21.570 -19.232  0.00  0.00    -0.004 C 
ATOM     15  C   UNL     1      37.078 -19.789 -20.516  0.00  0.00    +0.031 C 
ATOM     16  C   UNL     1      33.513 -21.826 -19.293  0.00  0.00    +0.000 C 
ATOM     17  C   UNL     1      34.760 -22.241 -18.828  0.00  0.00    -0.000 C 
ENDBRANCH   2  11
BRANCH   8  20
ATOM     18  N   UNL     1      33.227 -13.536 -25.809  0.00  0.00    -0.343 N 
ATOM     19  N   UNL     1      34.086 -12.874 -23.739  0.00  0.00    -0.285 NA
ATOM     20  C   UNL     1      33.772 -13.855 -24.567  0.00  0.00    +0.117 C 
ATOM     21  H   UNL     1      33.078 -12.594 -26.054  0.00  0.00    +0.144 HD
ATOM     22  H   UNL     1      32.990 -14.253 -26.441  0.00  0.00    +0.144 HD
ATOM     23  H   UNL     1      33.930 -11.939 -24.002  0.00  0.00    +0.188 HD
ENDBRANCH   8  20
TORSDOF 2
ENDMDL
MODEL 5
REMARK VINA RESULT:     -10.1      1.092      1.927
REMARK  Name = 9547945
REMARK  2 active torsions:
REMARK  status: ('A' for Active; 'I' for Inactive)
REMARK    1  A    between atoms: C_2  and  C_11
REMARK    2  A    between atoms: C_8  and  C_20
REMARK                            x       y       z     vdW  Elec       q    Type
REMARK                         _______ _______ _______ _____ _____    ______ ____
ROOT
ATOM      1  N   UNL     1      33.881 -20.159 -21.099  0.00  0.00    -0.313 N 
ATOM      2  C   UNL     1      34.946 -19.442 -21.574  0.00  0.00    +0.048 C 
ATOM      3  C   UNL     1      35.618 -20.659 -19.792  0.00  0.00    +0.015 C 
ATOM      4  C   UNL     1      34.262 -20.911 -20.011  0.00  0.00    +0.048 C 
ATOM      5  C   UNL     1      36.036 -19.730 -20.786  0.00  0.00    +0.016 C 
ATOM      6  C   UNL     1      36.265 -21.312 -18.724  0.00  0.00    +0.004 C 
ATOM      7  C   UNL     1      33.517 -21.786 -19.212  0.00  0.00    +0.015 C 
ATOM      8  C   UNL     1      35.533 -22.190 -17.916  0.00  0.00    +0.031 C 
ATOM      9  C   UNL     1      34.180 -22.422 -18.159  0.00  0.00    +0.004 C 
ATOM     10  H   UNL     1      32.973 -20.139 -21.480  0.00  0.00    +0.152 HD
ENDROOT
BRANCH   2  11
ATOM     11  C   UNL     1      34.830 -18.564 -22.714  0.00  0.00    +0.009 C 
ATOM     12  C   UNL     1      34.787 -17.177 -22.557  0.00  0.00    -0.021 C 
ATOM     13  C   UNL     1      34.762 -19.121 -23.992  0.00  0.00    +0.001 C 
ATOM     14  C   UNL     1      34.675 -16.350 -23.675  0.00  0.00    -0.004 C 
ATOM     15  C   UNL     1      34.857 -16.544 -21.204  0.00  0.00    +0.031 C 
ATOM     16  C   UNL     1      34.651 -18.293 -25.109  0.00  0.00    +0.000 C 
ATOM     17  C   UNL     1      34.607 -16.908 -24.951  0.00  0.00    -0.000 C 
ENDBRANCH   2  11
BRANCH   8  20
ATOM     18  N   UNL     1      37.525 -22.605 -16.493  0.00  0.00    -0.343 N 
ATOM     19  N   UNL     1      35.531 -23.756 -16.094  0.00  0.00    -0.285 NA
ATOM     20  C   UNL     1      36.194 -22.868 -16.812  0.00  0.00    +0.117 C 
ATOM     21  H   UNL     1      37.953 -23.076 -15.742  0.00  0.00    +0.144 HD
ATOM     22  H   UNL     1      38.037 -21.949 -17.019  0.00  0.00    +0.144 HD
ATOM     23  H   UNL     1      35.976 -24.217 -15.347  0.00  0.00    +0.188 HD
ENDBRANCH   8  20
TORSDOF 2
ENDMDL
MODEL 6
REMARK VINA RESULT:      -9.7      3.421      7.785
REMARK  Name = 9547945
REMARK  2 active torsions:
REMARK  status: ('A' for Active; 'I' for Inactive)
REMARK    1  A    between atoms: C_2  and  C_11
REMARK    2  A    between atoms: C_8  and  C_20
REMARK                            x       y       z     vdW  Elec       q    Type
REMARK                         _______ _______ _______ _____ _____    ______ ____
ROOT
ATOM      1  N   UNL     1      33.373 -16.830 -20.856  0.00  0.00    -0.313 N 
ATOM      2  C   UNL     1      34.098 -17.812 -21.475  0.00  0.00    +0.048 C 
ATOM      3  C   UNL     1      34.113 -15.961 -22.772  0.00  0.00    +0.015 C 
ATOM      4  C   UNL     1      33.365 -15.689 -21.625  0.00  0.00    +0.048 C 
ATOM      5  C   UNL     1      34.569 -17.305 -22.663  0.00  0.00    +0.016 C 
ATOM      6  C   UNL     1      34.266 -14.947 -23.739  0.00  0.00    +0.004 C 
ATOM      7  C   UNL     1      32.758 -14.448 -21.396  0.00  0.00    +0.015 C 
ATOM      8  C   UNL     1      33.665 -13.701 -23.523  0.00  0.00    +0.031 C 
ATOM      9  C   UNL     1      32.923 -13.458 -22.368  0.00  0.00    +0.004 C 
ATOM     10  H   UNL     1      32.921 -16.927 -19.986  0.00  0.00    +0.152 HD
ENDROOT
BRANCH   2  11
ATOM     11  C   UNL     1      34.272 -19.120 -20.890  0.00  0.00    +0.009 C 
ATOM     12  C   UNL     1      35.543 -19.669 -20.710  0.00  0.00    -0.021 C 
ATOM     13  C   UNL     1      33.142 -19.840 -20.499  0.00  0.00    +0.001 C 
ATOM     14  C   UNL     1      35.683 -20.935 -20.142  0.00  0.00    -0.004 C 
ATOM     15  C   UNL     1      36.776 -18.928 -21.117  0.00  0.00    +0.031 C 
ATOM     16  C   UNL     1      33.284 -21.106 -19.930  0.00  0.00    +0.000 C 
ATOM     17  C   UNL     1      34.554 -21.654 -19.752  0.00  0.00    -0.000 C 
ENDBRANCH   2  11
BRANCH   8  20
ATOM     18  N   UNL     1      34.357 -11.408 -24.179  0.00  0.00    -0.343 N 
ATOM     19  N   UNL     1      33.440 -12.862 -25.763  0.00  0.00    -0.285 NA
ATOM     20  C   UNL     1      33.819 -12.650 -24.516  0.00  0.00    +0.117 C 
ATOM     21  H   UNL     1      34.452 -10.711 -24.867  0.00  0.00    +0.144 HD
ATOM     22  H   UNL     1      34.642 -11.230 -23.254  0.00  0.00    +0.144 HD
ATOM     23  H   UNL     1      33.543 -12.152 -26.437  0.00  0.00    +0.188 HD
ENDBRANCH   8  20
TORSDOF 2
ENDMDL
MODEL 7
REMARK VINA RESULT:      -9.5      7.640      9.743
REMARK  Name = 9547945
REMARK  2 active torsions:
REMARK  status: ('A' for Active; 'I' for Inactive)
REMARK    1  A    between atoms: C_2  and  C_11
REMARK    2  A    between atoms: C_8  and  C_20
REMARK                            x       y       z     vdW  Elec       q    Type
REMARK                         _______ _______ _______ _____ _____    ______ ____
ROOT
ATOM      1  N   UNL     1      33.405 -24.859 -13.354  0.00  0.00    -0.313 N 
ATOM      2  C   UNL     1      34.427 -24.141 -13.913  0.00  0.00    +0.048 C 
ATOM      3  C   UNL     1      32.517 -23.689 -15.033  0.00  0.00    +0.015 C 
ATOM      4  C   UNL     1      32.227 -24.603 -14.018  0.00  0.00    +0.048 C 
ATOM      5  C   UNL     1      33.910 -23.407 -14.954  0.00  0.00    +0.016 C 
ATOM      6  C   UNL     1      31.473 -23.253 -15.873  0.00  0.00    +0.004 C 
ATOM      7  C   UNL     1      30.939 -25.105 -13.800  0.00  0.00    +0.015 C 
ATOM      8  C   UNL     1      30.179 -23.747 -15.666  0.00  0.00    +0.031 C 
ATOM      9  C   UNL     1      29.919 -24.659 -14.645  0.00  0.00    +0.004 C 
ATOM     10  H   UNL     1      33.499 -25.471 -12.588  0.00  0.00    +0.152 HD
ENDROOT
BRANCH   2  11
ATOM     11  C   UNL     1      35.779 -24.218 -13.413  0.00  0.00    +0.009 C 
ATOM     12  C   UNL     1      36.700 -25.117 -13.955  0.00  0.00    -0.021 C 
ATOM     13  C   UNL     1      36.163 -23.375 -12.370  0.00  0.00    +0.001 C 
ATOM     14  C   UNL     1      38.001 -25.173 -13.454  0.00  0.00    -0.004 C 
ATOM     15  C   UNL     1      36.326 -26.037 -15.073  0.00  0.00    +0.031 C 
ATOM     16  C   UNL     1      37.465 -23.430 -11.870  0.00  0.00    +0.000 C 
ATOM     17  C   UNL     1      38.383 -24.330 -12.412  0.00  0.00    -0.000 C 
ENDBRANCH   2  11
BRANCH   8  20
ATOM     18  N   UNL     1      28.143 -24.194 -17.015  0.00  0.00    -0.343 N 
ATOM     19  N   UNL     1      29.007 -22.027 -16.867  0.00  0.00    -0.285 NA
ATOM     20  C   UNL     1      29.096 -23.301 -16.529  0.00  0.00    +0.117 C 
ATOM     21  H   UNL     1      27.419 -23.871 -17.598  0.00  0.00    +0.144 HD
ATOM     22  H   UNL     1      28.195 -25.148 -16.776  0.00  0.00    +0.144 HD
ATOM     23  H   UNL     1      28.275 -21.723 -17.451  0.00  0.00    +0.188 HD
ENDBRANCH   8  20
TORSDOF 2
ENDMDL
MODEL 8
REMARK VINA RESULT:      -9.3      5.976      9.862
REMARK  Name = 9547945
REMARK  2 active torsions:
REMARK  status: ('A' for Active; 'I' for Inactive)
REMARK    1  A    between atoms: C_2  and  C_11
REMARK    2  A    between atoms: C_8  and  C_20
REMARK                            x       y       z     vdW  Elec       q    Type
REMARK                         _______ _______ _______ _____ _____    ______ ____
ROOT
ATOM      1  N   UNL     1      32.581 -13.772 -22.540  0.00  0.00    -0.313 N 
ATOM      2  C   UNL     1      33.559 -13.995 -23.470  0.00  0.00    +0.048 C 
ATOM      3  C   UNL     1      33.104 -11.782 -23.400  0.00  0.00    +0.015 C 
ATOM      4  C   UNL     1      32.283 -12.431 -22.475  0.00  0.00    +0.048 C 
ATOM      5  C   UNL     1      33.904 -12.782 -24.020  0.00  0.00    +0.016 C 
ATOM      6  C   UNL     1      33.001 -10.383 -23.536  0.00  0.00    +0.004 C 
ATOM      7  C   UNL     1      31.358 -11.747 -21.677  0.00  0.00    +0.015 C 
ATOM      8  C   UNL     1      32.080  -9.686 -22.744  0.00  0.00    +0.031 C 
ATOM      9  C   UNL     1      31.273 -10.360 -21.830  0.00  0.00    +0.004 C 
ATOM     10  H   UNL     1      32.151 -14.472 -21.995  0.00  0.00    +0.152 HD
ENDROOT
BRANCH   2  11
ATOM     11  C   UNL     1      34.066 -15.317 -23.747  0.00  0.00    +0.009 C 
ATOM     12  C   UNL     1      33.856 -15.929 -24.984  0.00  0.00    -0.021 C 
ATOM     13  C   UNL     1      34.779 -15.989 -22.752  0.00  0.00    +0.001 C 
ATOM     14  C   UNL     1      34.357 -17.208 -25.226  0.00  0.00    -0.004 C 
ATOM     15  C   UNL     1      33.098 -15.241 -26.074  0.00  0.00    +0.031 C 
ATOM     16  C   UNL     1      35.280 -17.268 -22.995  0.00  0.00    +0.000 C 
ATOM     17  C   UNL     1      35.068 -17.878 -24.232  0.00  0.00    -0.000 C 
ENDBRANCH   2  11
BRANCH   8  20
ATOM     18  N   UNL     1      32.872  -7.384 -22.256  0.00  0.00    -0.343 N 
ATOM     19  N   UNL     1      30.990  -7.724 -23.600  0.00  0.00    -0.285 NA
ATOM     20  C   UNL     1      31.968  -8.242 -22.879  0.00  0.00    +0.117 C 
ATOM     21  H   UNL     1      32.776  -6.410 -22.360  0.00  0.00    +0.144 HD
ATOM     22  H   UNL     1      33.604  -7.752 -21.711  0.00  0.00    +0.144 HD
ATOM     23  H   UNL     1      30.911  -6.747 -23.693  0.00  0.00    +0.188 HD
ENDBRANCH   8  20
TORSDOF 2
ENDMDL
MODEL 9
REMARK VINA RESULT:      -9.2      6.663     10.576
REMARK  Name = 9547945
REMARK  2 active torsions:
REMARK  status: ('A' for Active; 'I' for Inactive)
REMARK    1  A    between atoms: C_2  and  C_11
REMARK    2  A    between atoms: C_8  and  C_20
REMARK                            x       y       z     vdW  Elec       q    Type
REMARK                         _______ _______ _______ _____ _____    ______ ____
ROOT
ATOM      1  N   UNL     1      34.378 -11.926 -24.232  0.00  0.00    -0.313 N 
ATOM      2  C   UNL     1      33.608 -12.940 -23.730  0.00  0.00    +0.048 C 
ATOM      3  C   UNL     1      32.754 -10.963 -23.044  0.00  0.00    +0.015 C 
ATOM      4  C   UNL     1      33.881 -10.708 -23.829  0.00  0.00    +0.048 C 
ATOM      5  C   UNL     1      32.594 -12.376 -22.991  0.00  0.00    +0.016 C 
ATOM      6  C   UNL     1      32.046  -9.874 -22.498  0.00  0.00    +0.004 C 
ATOM      7  C   UNL     1      34.337  -9.412 -24.096  0.00  0.00    +0.015 C 
ATOM      8  C   UNL     1      32.491  -8.572 -22.757  0.00  0.00    +0.031 C 
ATOM      9  C   UNL     1      33.620  -8.347 -23.544  0.00  0.00    +0.004 C 
ATOM     10  H   UNL     1      35.174 -12.051 -24.798  0.00  0.00    +0.152 HD
ENDROOT
BRANCH   2  11
ATOM     11  C   UNL     1      33.902 -14.328 -23.996  0.00  0.00    +0.009 C 
ATOM     12  C   UNL     1      33.513 -14.934 -25.192  0.00  0.00    -0.021 C 
ATOM     13  C   UNL     1      34.588 -15.069 -23.032  0.00  0.00    +0.001 C 
ATOM     14  C   UNL     1      33.810 -16.277 -25.424  0.00  0.00    -0.004 C 
ATOM     15  C   UNL     1      32.777 -14.173 -26.248  0.00  0.00    +0.031 C 
ATOM     16  C   UNL     1      34.884 -16.413 -23.265  0.00  0.00    +0.000 C 
ATOM     17  C   UNL     1      34.495 -17.017 -24.461  0.00  0.00    -0.000 C 
ENDBRANCH   2  11
BRANCH   8  20
ATOM     18  N   UNL     1      31.991  -7.011 -20.892  0.00  0.00    -0.343 N 
ATOM     19  N   UNL     1      30.870  -6.808 -22.933  0.00  0.00    -0.285 NA
ATOM     20  C   UNL     1      31.766  -7.442 -22.198  0.00  0.00    +0.117 C 
ATOM     21  H   UNL     1      31.488  -6.244 -20.534  0.00  0.00    +0.144 HD
ATOM     22  H   UNL     1      32.652  -7.474 -20.329  0.00  0.00    +0.144 HD
ATOM     23  H   UNL     1      30.377  -6.043 -22.557  0.00  0.00    +0.188 HD
ENDBRANCH   8  20
TORSDOF 2
ENDMDL
