MODEL 1
REMARK VINA RESULT:      -9.7      0.000      0.000
REMARK  Name = 16741228
REMARK  8 active torsions:
REMARK  status: ('A' for Active; 'I' for Inactive)
REMARK    1  A    between atoms: C_3  and  C_22
REMARK    2  A    between atoms: C_10  and  C_14
REMARK    3  A    between atoms: C_11  and  O_20
REMARK    4  A    between atoms: C_22  and  C_25
REMARK    5  A    between atoms: N_24  and  CA_27
REMARK    6  A    between atoms: CA_27  and  C_28
REMARK    7  A    between atoms: CA_27  and  C_30
REMARK    8  A    between atoms: C_30  and  O_31
REMARK                            x       y       z     vdW  Elec       q    Type
REMARK                         _______ _______ _______ _____ _____    ______ ____
ROOT
ATOM      1  O   UNL     1      31.240 -10.011 -21.267  0.00  0.00    -0.267 OA
ATOM      2  N   UNL     1      32.324 -11.760 -22.208  0.00  0.00    -0.279 N 
ATOM      3  C   UNL     1      32.531 -13.920 -21.620  0.00  0.00    +0.001 A 
ATOM      4  C   UNL     1      32.848 -13.814 -22.994  0.00  0.00    +0.017 A 
ATOM      5  C   UNL     1      32.211 -12.664 -21.169  0.00  0.00    +0.041 A 
ATOM      6  C   UNL     1      32.712 -12.465 -23.353  0.00  0.00    +0.066 A 
ATOM      7  C   UNL     1      33.239 -14.756 -23.968  0.00  0.00    +0.038 C 
ATOM      8  C   UNL     1      32.972 -12.043 -24.671  0.00  0.00    +0.021 C 
ATOM      9  C   UNL     1      31.807 -12.291 -19.793  0.00  0.00    +0.050 C 
ATOM     10  C   UNL     1      32.051 -10.378 -22.110  0.00  0.00    +0.264 C 
ATOM     11  C   UNL     1      33.490 -14.334 -25.276  0.00  0.00    +0.139 C 
ATOM     12  C   UNL     1      33.359 -12.996 -25.619  0.00  0.00    +0.038 C 
ENDROOT
BRANCH  10  14
ATOM     13 CL   UNL     1      34.616  -6.150 -25.484  0.00  0.00    -0.082 Cl
ATOM     14  C   UNL     1      32.683  -9.336 -22.942  0.00  0.00    +0.057 C 
ATOM     15  C   UNL     1      34.044  -9.411 -23.239  0.00  0.00    +0.006 C 
ATOM     16  C   UNL     1      31.920  -8.275 -23.430  0.00  0.00    +0.006 C 
ATOM     17  C   UNL     1      34.642  -8.426 -24.025  0.00  0.00    +0.012 C 
ATOM     18  C   UNL     1      32.518  -7.290 -24.217  0.00  0.00    +0.012 C 
ATOM     19  C   UNL     1      33.879  -7.365 -24.514  0.00  0.00    +0.058 C 
ENDBRANCH  10  14
BRANCH  11  20
ATOM     20  O   UNL     1      33.867 -15.243 -26.218  0.00  0.00    -0.471 OA
ATOM     21  C   UNL     1      33.861 -16.617 -25.833  0.00  0.00    +0.252 C 
ENDBRANCH  11  20
BRANCH   3  22
ATOM     22  C   UNL     1      32.539 -15.161 -20.815  0.00  0.00    +0.112 C 
BRANCH  22  25
ATOM     23  O   UNL     1      34.922 -15.314 -20.405  0.00  0.00    -0.275 OA
ATOM     24  N   UNL     1      33.817 -17.159 -21.282  0.00  0.00    -0.303 N 
ATOM     25  C   UNL     1      33.895 -15.858 -20.806  0.00  0.00    +0.227 C 
ATOM     26  H   UNL     1      32.942 -17.500 -21.579  0.00  0.00    +0.149 HD
BRANCH  24  27
ATOM     27  CA  UNL     1      34.961 -18.038 -21.361  0.00  0.00    +0.101 C 
BRANCH  27  28
ATOM     28  C   UNL     1      34.593 -19.463 -20.929  0.00  0.00    +0.022 C 
ATOM     29  C   UNL     1      33.095 -19.647 -20.721  0.00  0.00    +0.002 C 
ENDBRANCH  27  28
BRANCH  27  30
ATOM     30  C   UNL     1      35.515 -18.031 -22.787  0.00  0.00    +0.157 C 
BRANCH  30  31
ATOM     31  O   UNL     1      36.009 -16.733 -23.095  0.00  0.00    -0.380 OA
ATOM     32  H   UNL     1      36.929 -16.801 -23.396  0.00  0.00    +0.211 HD
ENDBRANCH  30  31
ENDBRANCH  27  30
ENDBRANCH  24  27
ENDBRANCH  22  25
ENDBRANCH   3  22
TORSDOF 8
ENDMDL
MODEL 2
REMARK VINA RESULT:      -9.1      3.287      8.388
REMARK  Name = 16741228
REMARK  8 active torsions:
REMARK  status: ('A' for Active; 'I' for Inactive)
REMARK    1  A    between atoms: C_3  and  C_22
REMARK    2  A    between atoms: C_10  and  C_14
REMARK    3  A    between atoms: C_11  and  O_20
REMARK    4  A    between atoms: C_22  and  C_25
REMARK    5  A    between atoms: N_24  and  CA_27
REMARK    6  A    between atoms: CA_27  and  C_28
REMARK    7  A    between atoms: CA_27  and  C_30
REMARK    8  A    between atoms: C_30  and  O_31
REMARK                            x       y       z     vdW  Elec       q    Type
REMARK                         _______ _______ _______ _____ _____    ______ ____
ROOT
ATOM      1  O   UNL     1      33.822 -16.439 -25.735  0.00  0.00    -0.267 OA
ATOM      2  N   UNL     1      33.593 -14.781 -24.211  0.00  0.00    -0.279 N 
ATOM      3  C   UNL     1      33.181 -12.579 -24.405  0.00  0.00    +0.001 A 
ATOM      4  C   UNL     1      32.863 -12.964 -23.081  0.00  0.00    +0.017 A 
ATOM      5  C   UNL     1      33.614 -13.699 -25.070  0.00  0.00    +0.041 A 
ATOM      6  C   UNL     1      33.119 -14.338 -22.971  0.00  0.00    +0.066 A 
ATOM      7  C   UNL     1      32.376 -12.256 -21.963  0.00  0.00    +0.038 C 
ATOM      8  C   UNL     1      32.904 -15.013 -21.754  0.00  0.00    +0.021 C 
ATOM      9  C   UNL     1      34.049 -13.778 -26.485  0.00  0.00    +0.050 C 
ATOM     10  C   UNL     1      33.955 -16.100 -24.564  0.00  0.00    +0.264 C 
ATOM     11  C   UNL     1      32.158 -12.931 -20.759  0.00  0.00    +0.139 C 
ATOM     12  C   UNL     1      32.420 -14.290 -20.659  0.00  0.00    +0.038 C 
ENDROOT
BRANCH  10  14
ATOM     13 CL   UNL     1      36.161 -20.160 -20.758  0.00  0.00    -0.082 Cl
ATOM     14  C   UNL     1      34.499 -17.101 -23.625  0.00  0.00    +0.057 C 
ATOM     15  C   UNL     1      34.280 -18.460 -23.852  0.00  0.00    +0.006 C 
ATOM     16  C   UNL     1      35.230 -16.688 -22.512  0.00  0.00    +0.006 C 
ATOM     17  C   UNL     1      34.794 -19.405 -22.965  0.00  0.00    +0.012 C 
ATOM     18  C   UNL     1      35.745 -17.634 -21.625  0.00  0.00    +0.012 C 
ATOM     19  C   UNL     1      35.526 -18.993 -21.851  0.00  0.00    +0.058 C 
ENDBRANCH  10  14
BRANCH  11  20
ATOM     20  O   UNL     1      31.686 -12.248 -19.679  0.00  0.00    -0.471 OA
ATOM     21  C   UNL     1      31.212 -10.922 -19.905  0.00  0.00    +0.252 C 
ENDBRANCH  11  20
BRANCH   3  22
ATOM     22  C   UNL     1      33.063 -11.218 -24.970  0.00  0.00    +0.112 C 
BRANCH  22  25
ATOM     23  O   UNL     1      35.001 -10.169 -23.963  0.00  0.00    -0.275 OA
ATOM     24  N   UNL     1      32.913  -9.206 -23.637  0.00  0.00    -0.303 N 
ATOM     25  C   UNL     1      33.785 -10.162 -24.140  0.00  0.00    +0.227 C 
ATOM     26  H   UNL     1      31.953  -9.293 -23.839  0.00  0.00    +0.149 HD
BRANCH  24  27
ATOM     27  CA  UNL     1      33.349  -8.090 -22.831  0.00  0.00    +0.101 C 
BRANCH  27  28
ATOM     28  C   UNL     1      33.348  -6.789 -23.643  0.00  0.00    +0.022 C 
ATOM     29  C   UNL     1      34.468  -6.738 -24.675  0.00  0.00    +0.002 C 
ENDBRANCH  27  28
BRANCH  27  30
ATOM     30  C   UNL     1      32.446  -7.962 -21.602  0.00  0.00    +0.157 C 
BRANCH  30  31
ATOM     31  O   UNL     1      33.251  -7.813 -20.439  0.00  0.00    -0.380 OA
ATOM     32  H   UNL     1      32.798  -7.237 -19.804  0.00  0.00    +0.211 HD
ENDBRANCH  30  31
ENDBRANCH  27  30
ENDBRANCH  24  27
ENDBRANCH  22  25
ENDBRANCH   3  22
TORSDOF 8
ENDMDL
MODEL 3
REMARK VINA RESULT:      -8.9     10.386     14.432
REMARK  Name = 16741228
REMARK  8 active torsions:
REMARK  status: ('A' for Active; 'I' for Inactive)
REMARK    1  A    between atoms: C_3  and  C_22
REMARK    2  A    between atoms: C_10  and  C_14
REMARK    3  A    between atoms: C_11  and  O_20
REMARK    4  A    between atoms: C_22  and  C_25
REMARK    5  A    between atoms: N_24  and  CA_27
REMARK    6  A    between atoms: CA_27  and  C_28
REMARK    7  A    between atoms: CA_27  and  C_30
REMARK    8  A    between atoms: C_30  and  O_31
REMARK                            x       y       z     vdW  Elec       q    Type
REMARK                         _______ _______ _______ _____ _____    ______ ____
ROOT
ATOM      1  O   UNL     1      34.222 -24.536 -12.368  0.00  0.00    -0.267 OA
ATOM      2  N   UNL     1      33.886 -24.220 -14.584  0.00  0.00    -0.279 N 
ATOM      3  C   UNL     1      32.027 -24.121 -15.845  0.00  0.00    +0.001 A 
ATOM      4  C   UNL     1      33.077 -23.511 -16.573  0.00  0.00    +0.017 A 
ATOM      5  C   UNL     1      32.542 -24.536 -14.642  0.00  0.00    +0.041 A 
ATOM      6  C   UNL     1      34.229 -23.574 -15.777  0.00  0.00    +0.066 A 
ATOM      7  C   UNL     1      33.142 -22.907 -17.845  0.00  0.00    +0.038 C 
ATOM      8  C   UNL     1      35.451 -23.050 -16.242  0.00  0.00    +0.021 C 
ATOM      9  C   UNL     1      31.809 -25.222 -13.552  0.00  0.00    +0.050 C 
ATOM     10  C   UNL     1      34.731 -24.482 -13.483  0.00  0.00    +0.264 C 
ATOM     11  C   UNL     1      34.354 -22.383 -18.299  0.00  0.00    +0.139 C 
ATOM     12  C   UNL     1      35.492 -22.455 -17.507  0.00  0.00    +0.038 C 
ENDROOT
BRANCH  10  14
ATOM     13 CL   UNL     1      40.632 -25.412 -13.861  0.00  0.00    -0.082 Cl
ATOM     14  C   UNL     1      36.186 -24.711 -13.576  0.00  0.00    +0.057 C 
ATOM     15  C   UNL     1      37.063 -23.942 -12.812  0.00  0.00    +0.006 C 
ATOM     16  C   UNL     1      36.683 -25.696 -14.429  0.00  0.00    +0.006 C 
ATOM     17  C   UNL     1      38.438 -24.158 -12.901  0.00  0.00    +0.012 C 
ATOM     18  C   UNL     1      38.059 -25.914 -14.517  0.00  0.00    +0.012 C 
ATOM     19  C   UNL     1      38.936 -25.144 -13.753  0.00  0.00    +0.058 C 
ENDBRANCH  10  14
BRANCH  11  20
ATOM     20  O   UNL     1      34.419 -21.798 -19.528  0.00  0.00    -0.471 OA
ATOM     21  C   UNL     1      35.505 -20.903 -19.764  0.00  0.00    +0.252 C 
ENDBRANCH  11  20
BRANCH   3  22
ATOM     22  C   UNL     1      30.628 -24.278 -16.297  0.00  0.00    +0.112 C 
BRANCH  22  25
ATOM     23  O   UNL     1      30.047 -22.258 -15.092  0.00  0.00    -0.275 OA
ATOM     24  N   UNL     1      28.622 -23.013 -16.764  0.00  0.00    -0.303 N 
ATOM     25  C   UNL     1      29.754 -23.074 -15.964  0.00  0.00    +0.227 C 
ATOM     26  H   UNL     1      28.482 -23.720 -17.435  0.00  0.00    +0.149 HD
BRANCH  24  27
ATOM     27  CA  UNL     1      27.639 -21.959 -16.658  0.00  0.00    +0.101 C 
BRANCH  27  28
ATOM     28  C   UNL     1      26.585 -22.073 -17.766  0.00  0.00    +0.022 C 
ATOM     29  C   UNL     1      25.933 -20.737 -18.098  0.00  0.00    +0.002 C 
ENDBRANCH  27  28
BRANCH  27  30
ATOM     30  C   UNL     1      26.981 -22.010 -15.277  0.00  0.00    +0.157 C 
BRANCH  30  31
ATOM     31  O   UNL     1      25.570 -22.106 -15.431  0.00  0.00    -0.380 OA
ATOM     32  H   UNL     1      25.360 -22.348 -16.346  0.00  0.00    +0.211 HD
ENDBRANCH  30  31
ENDBRANCH  27  30
ENDBRANCH  24  27
ENDBRANCH  22  25
ENDBRANCH   3  22
TORSDOF 8
ENDMDL
MODEL 4
REMARK VINA RESULT:      -8.8      3.317      7.940
REMARK  Name = 16741228
REMARK  8 active torsions:
REMARK  status: ('A' for Active; 'I' for Inactive)
REMARK    1  A    between atoms: C_3  and  C_22
REMARK    2  A    between atoms: C_10  and  C_14
REMARK    3  A    between atoms: C_11  and  O_20
REMARK    4  A    between atoms: C_22  and  C_25
REMARK    5  A    between atoms: N_24  and  CA_27
REMARK    6  A    between atoms: CA_27  and  C_28
REMARK    7  A    between atoms: CA_27  and  C_30
REMARK    8  A    between atoms: C_30  and  O_31
REMARK                            x       y       z     vdW  Elec       q    Type
REMARK                         _______ _______ _______ _____ _____    ______ ____
ROOT
ATOM      1  O   UNL     1      34.602 -15.318 -19.609  0.00  0.00    -0.267 OA
ATOM      2  N   UNL     1      33.656 -15.032 -21.645  0.00  0.00    -0.279 N 
ATOM      3  C   UNL     1      32.458 -13.356 -22.548  0.00  0.00    +0.001 A 
ATOM      4  C   UNL     1      32.964 -14.146 -23.607  0.00  0.00    +0.017 A 
ATOM      5  C   UNL     1      32.896 -13.910 -21.371  0.00  0.00    +0.041 A 
ATOM      6  C   UNL     1      33.713 -15.184 -23.036  0.00  0.00    +0.066 A 
ATOM      7  C   UNL     1      32.851 -14.062 -25.011  0.00  0.00    +0.038 C 
ATOM      8  C   UNL     1      34.340 -16.148 -23.848  0.00  0.00    +0.021 C 
ATOM      9  C   UNL     1      32.618 -13.418 -20.001  0.00  0.00    +0.050 C 
ATOM     10  C   UNL     1      34.284 -15.840 -20.672  0.00  0.00    +0.264 C 
ATOM     11  C   UNL     1      33.480 -15.017 -25.813  0.00  0.00    +0.139 C 
ATOM     12  C   UNL     1      34.213 -16.045 -25.237  0.00  0.00    +0.038 C 
ENDROOT
BRANCH  10  14
ATOM     13 CL   UNL     1      35.463 -21.671 -21.333  0.00  0.00    -0.082 Cl
ATOM     14  C   UNL     1      34.574 -17.277 -20.835  0.00  0.00    +0.057 C 
ATOM     15  C   UNL     1      33.530 -18.203 -20.851  0.00  0.00    +0.006 C 
ATOM     16  C   UNL     1      35.893 -17.711 -20.973  0.00  0.00    +0.006 C 
ATOM     17  C   UNL     1      33.806 -19.561 -21.004  0.00  0.00    +0.012 C 
ATOM     18  C   UNL     1      36.168 -19.070 -21.127  0.00  0.00    +0.012 C 
ATOM     19  C   UNL     1      35.124 -19.995 -21.143  0.00  0.00    +0.058 C 
ENDBRANCH  10  14
BRANCH  11  20
ATOM     20  O   UNL     1      33.371 -14.937 -27.168  0.00  0.00    -0.471 OA
ATOM     21  C   UNL     1      33.363 -13.631 -27.743  0.00  0.00    +0.252 C 
ENDBRANCH  11  20
BRANCH   3  22
ATOM     22  C   UNL     1      31.614 -12.150 -22.685  0.00  0.00    +0.112 C 
BRANCH  22  25
ATOM     23  O   UNL     1      33.357 -10.694 -23.528  0.00  0.00    -0.275 OA
ATOM     24  N   UNL     1      31.967  -9.912 -21.840  0.00  0.00    -0.303 N 
ATOM     25  C   UNL     1      32.423 -10.859 -22.747  0.00  0.00    +0.227 C 
ATOM     26  H   UNL     1      31.207 -10.147 -21.258  0.00  0.00    +0.149 HD
BRANCH  24  27
ATOM     27  CA  UNL     1      32.554  -8.599 -21.711  0.00  0.00    +0.101 C 
BRANCH  27  28
ATOM     28  C   UNL     1      31.965  -7.627 -22.741  0.00  0.00    +0.022 C 
ATOM     29  C   UNL     1      33.033  -6.969 -23.607  0.00  0.00    +0.002 C 
ENDBRANCH  27  28
BRANCH  27  30
ATOM     30  C   UNL     1      32.335  -8.078 -20.289  0.00  0.00    +0.157 C 
BRANCH  30  31
ATOM     31  O   UNL     1      32.692  -9.090 -19.355  0.00  0.00    -0.380 OA
ATOM     32  H   UNL     1      32.522  -9.962 -19.743  0.00  0.00    +0.211 HD
ENDBRANCH  30  31
ENDBRANCH  27  30
ENDBRANCH  24  27
ENDBRANCH  22  25
ENDBRANCH   3  22
TORSDOF 8
ENDMDL
MODEL 5
REMARK VINA RESULT:      -8.7      3.224      8.380
REMARK  Name = 16741228
REMARK  8 active torsions:
REMARK  status: ('A' for Active; 'I' for Inactive)
REMARK    1  A    between atoms: C_3  and  C_22
REMARK    2  A    between atoms: C_10  and  C_14
REMARK    3  A    between atoms: C_11  and  O_20
REMARK    4  A    between atoms: C_22  and  C_25
REMARK    5  A    between atoms: N_24  and  CA_27
REMARK    6  A    between atoms: CA_27  and  C_28
REMARK    7  A    between atoms: CA_27  and  C_30
REMARK    8  A    between atoms: C_30  and  O_31
REMARK                            x       y       z     vdW  Elec       q    Type
REMARK                         _______ _______ _______ _____ _____    ______ ____
ROOT
ATOM      1  O   UNL     1      33.925 -14.274 -25.708  0.00  0.00    -0.267 OA
ATOM      2  N   UNL     1      33.415 -12.843 -24.031  0.00  0.00    -0.279 N 
ATOM      3  C   UNL     1      33.022 -10.630 -23.982  0.00  0.00    +0.001 A 
ATOM      4  C   UNL     1      32.480 -11.191 -22.802  0.00  0.00    +0.017 A 
ATOM      5  C   UNL     1      33.577 -11.651 -24.711  0.00  0.00    +0.041 A 
ATOM      6  C   UNL     1      32.725 -12.571 -22.843  0.00  0.00    +0.066 A 
ATOM      7  C   UNL     1      31.795 -10.640 -21.699  0.00  0.00    +0.038 C 
ATOM      8  C   UNL     1      32.305 -13.407 -21.791  0.00  0.00    +0.021 C 
ATOM      9  C   UNL     1      34.256 -11.538 -26.024  0.00  0.00    +0.050 C 
ATOM     10  C   UNL     1      33.847 -14.104 -24.496  0.00  0.00    +0.264 C 
ATOM     11  C   UNL     1      31.375 -11.473 -20.660  0.00  0.00    +0.139 C 
ATOM     12  C   UNL     1      31.629 -12.837 -20.707  0.00  0.00    +0.038 C 
ENDROOT
BRANCH  10  14
ATOM     13 CL   UNL     1      35.385 -18.692 -20.972  0.00  0.00    -0.082 Cl
ATOM     14  C   UNL     1      34.226 -15.235 -23.627  0.00  0.00    +0.057 C 
ATOM     15  C   UNL     1      34.514 -15.014 -22.280  0.00  0.00    +0.006 C 
ATOM     16  C   UNL     1      34.297 -16.525 -24.153  0.00  0.00    +0.006 C 
ATOM     17  C   UNL     1      34.873 -16.083 -21.459  0.00  0.00    +0.012 C 
ATOM     18  C   UNL     1      34.655 -17.595 -23.331  0.00  0.00    +0.012 C 
ATOM     19  C   UNL     1      34.943 -17.373 -21.985  0.00  0.00    +0.058 C 
ENDBRANCH  10  14
BRANCH  11  20
ATOM     20  O   UNL     1      30.713 -10.942 -19.594  0.00  0.00    -0.471 OA
ATOM     21  C   UNL     1      31.500 -10.557 -18.468  0.00  0.00    +0.252 C 
ENDBRANCH  11  20
BRANCH   3  22
ATOM     22  C   UNL     1      32.992  -9.201 -24.362  0.00  0.00    +0.112 C 
BRANCH  22  25
ATOM     23  O   UNL     1      34.488  -8.226 -22.724  0.00  0.00    -0.275 OA
ATOM     24  N   UNL     1      32.289  -7.486 -22.810  0.00  0.00    -0.303 N 
ATOM     25  C   UNL     1      33.361  -8.269 -23.212  0.00  0.00    +0.227 C 
ATOM     26  H   UNL     1      31.425  -7.600 -23.270  0.00  0.00    +0.149 HD
BRANCH  24  27
ATOM     27  CA  UNL     1      32.381  -6.510 -21.749  0.00  0.00    +0.101 C 
BRANCH  27  28
ATOM     28  C   UNL     1      31.445  -5.322 -22.008  0.00  0.00    +0.022 C 
ATOM     29  C   UNL     1      31.287  -5.011 -23.491  0.00  0.00    +0.002 C 
ENDBRANCH  27  28
BRANCH  27  30
ATOM     30  C   UNL     1      32.052  -7.176 -20.411  0.00  0.00    +0.157 C 
BRANCH  30  31
ATOM     31  O   UNL     1      33.239  -7.728 -19.854  0.00  0.00    -0.380 OA
ATOM     32  H   UNL     1      33.720  -7.039 -19.370  0.00  0.00    +0.211 HD
ENDBRANCH  30  31
ENDBRANCH  27  30
ENDBRANCH  24  27
ENDBRANCH  22  25
ENDBRANCH   3  22
TORSDOF 8
ENDMDL
MODEL 6
REMARK VINA RESULT:      -8.5      2.073      3.748
REMARK  Name = 16741228
REMARK  8 active torsions:
REMARK  status: ('A' for Active; 'I' for Inactive)
REMARK    1  A    between atoms: C_3  and  C_22
REMARK    2  A    between atoms: C_10  and  C_14
REMARK    3  A    between atoms: C_11  and  O_20
REMARK    4  A    between atoms: C_22  and  C_25
REMARK    5  A    between atoms: N_24  and  CA_27
REMARK    6  A    between atoms: CA_27  and  C_28
REMARK    7  A    between atoms: CA_27  and  C_30
REMARK    8  A    between atoms: C_30  and  O_31
REMARK                            x       y       z     vdW  Elec       q    Type
REMARK                         _______ _______ _______ _____ _____    ______ ____
ROOT
ATOM      1  O   UNL     1      34.701 -10.362 -25.561  0.00  0.00    -0.267 OA
ATOM      2  N   UNL     1      33.604 -11.999 -24.449  0.00  0.00    -0.279 N 
ATOM      3  C   UNL     1      33.276 -14.181 -24.882  0.00  0.00    +0.001 A 
ATOM      4  C   UNL     1      33.043 -13.974 -23.502  0.00  0.00    +0.017 A 
ATOM      5  C   UNL     1      33.620 -12.970 -25.431  0.00  0.00    +0.041 A 
ATOM      6  C   UNL     1      33.254 -12.613 -23.241  0.00  0.00    +0.066 A 
ATOM      7  C   UNL     1      32.671 -14.835 -22.449  0.00  0.00    +0.038 C 
ATOM      8  C   UNL     1      33.087 -12.097 -21.941  0.00  0.00    +0.021 C 
ATOM      9  C   UNL     1      33.958 -12.703 -26.849  0.00  0.00    +0.050 C 
ATOM     10  C   UNL     1      33.926 -10.639 -24.652  0.00  0.00    +0.264 C 
ATOM     11  C   UNL     1      32.513 -14.320 -21.160  0.00  0.00    +0.139 C 
ATOM     12  C   UNL     1      32.718 -12.970 -20.913  0.00  0.00    +0.038 C 
ENDROOT
BRANCH  10  14
ATOM     13 CL   UNL     1      31.731  -6.099 -21.427  0.00  0.00    -0.082 Cl
ATOM     14  C   UNL     1      33.385  -9.520 -23.857  0.00  0.00    +0.057 C 
ATOM     15  C   UNL     1      34.247  -8.560 -23.327  0.00  0.00    +0.006 C 
ATOM     16  C   UNL     1      32.011  -9.422 -23.635  0.00  0.00    +0.006 C 
ATOM     17  C   UNL     1      33.736  -7.502 -22.576  0.00  0.00    +0.012 C 
ATOM     18  C   UNL     1      31.499  -8.364 -22.884  0.00  0.00    +0.012 C 
ATOM     19  C   UNL     1      32.362  -7.404 -22.354  0.00  0.00    +0.058 C 
ENDBRANCH  10  14
BRANCH  11  20
ATOM     20  O   UNL     1      32.155 -15.151 -20.141  0.00  0.00    -0.471 OA
ATOM     21  C   UNL     1      31.939 -16.523 -20.468  0.00  0.00    +0.252 C 
ENDBRANCH  11  20
BRANCH   3  22
ATOM     22  C   UNL     1      33.172 -15.468 -25.602  0.00  0.00    +0.112 C 
BRANCH  22  25
ATOM     23  O   UNL     1      35.192 -16.727 -26.055  0.00  0.00    -0.275 OA
ATOM     24  N   UNL     1      34.200 -16.919 -23.964  0.00  0.00    -0.303 N 
ATOM     25  C   UNL     1      34.301 -16.436 -25.261  0.00  0.00    +0.227 C 
ATOM     26  H   UNL     1      33.444 -16.621 -23.408  0.00  0.00    +0.149 HD
BRANCH  24  27
ATOM     27  CA  UNL     1      35.155 -17.840 -23.391  0.00  0.00    +0.101 C 
BRANCH  27  28
ATOM     28  C   UNL     1      35.400 -17.530 -21.909  0.00  0.00    +0.022 C 
ATOM     29  C   UNL     1      36.142 -18.649 -21.189  0.00  0.00    +0.002 C 
ENDBRANCH  27  28
BRANCH  27  30
ATOM     30  C   UNL     1      34.653 -19.274 -23.568  0.00  0.00    +0.157 C 
BRANCH  30  31
ATOM     31  O   UNL     1      34.856 -19.683 -24.916  0.00  0.00    -0.380 OA
ATOM     32  H   UNL     1      34.263 -19.183 -25.498  0.00  0.00    +0.211 HD
ENDBRANCH  30  31
ENDBRANCH  27  30
ENDBRANCH  24  27
ENDBRANCH  22  25
ENDBRANCH   3  22
TORSDOF 8
ENDMDL
MODEL 7
REMARK VINA RESULT:      -8.2      3.398      8.723
REMARK  Name = 16741228
REMARK  8 active torsions:
REMARK  status: ('A' for Active; 'I' for Inactive)
REMARK    1  A    between atoms: C_3  and  C_22
REMARK    2  A    between atoms: C_10  and  C_14
REMARK    3  A    between atoms: C_11  and  O_20
REMARK    4  A    between atoms: C_22  and  C_25
REMARK    5  A    between atoms: N_24  and  CA_27
REMARK    6  A    between atoms: CA_27  and  C_28
REMARK    7  A    between atoms: CA_27  and  C_30
REMARK    8  A    between atoms: C_30  and  O_31
REMARK                            x       y       z     vdW  Elec       q    Type
REMARK                         _______ _______ _______ _____ _____    ______ ____
ROOT
ATOM      1  O   UNL     1      34.099 -13.449 -25.898  0.00  0.00    -0.267 OA
ATOM      2  N   UNL     1      33.573 -12.218 -24.073  0.00  0.00    -0.279 N 
ATOM      3  C   UNL     1      33.379 -10.004 -23.733  0.00  0.00    +0.001 A 
ATOM      4  C   UNL     1      32.686 -10.663 -22.691  0.00  0.00    +0.017 A 
ATOM      5  C   UNL     1      33.902 -10.967 -24.559  0.00  0.00    +0.041 A 
ATOM      6  C   UNL     1      32.808 -12.042 -22.914  0.00  0.00    +0.066 A 
ATOM      7  C   UNL     1      31.959 -10.202 -21.574  0.00  0.00    +0.038 C 
ATOM      8  C   UNL     1      32.223 -12.967 -22.029  0.00  0.00    +0.021 C 
ATOM      9  C   UNL     1      34.702 -10.744 -25.787  0.00  0.00    +0.050 C 
ATOM     10  C   UNL     1      33.928 -13.441 -24.683  0.00  0.00    +0.264 C 
ATOM     11  C   UNL     1      31.375 -11.123 -20.702  0.00  0.00    +0.139 C 
ATOM     12  C   UNL     1      31.507 -12.486 -20.928  0.00  0.00    +0.038 C 
ENDROOT
BRANCH  10  14
ATOM     13 CL   UNL     1      34.727 -18.601 -21.757  0.00  0.00    -0.082 Cl
ATOM     14  C   UNL     1      34.125 -14.713 -23.962  0.00  0.00    +0.057 C 
ATOM     15  C   UNL     1      33.949 -15.926 -24.627  0.00  0.00    +0.006 C 
ATOM     16  C   UNL     1      34.486 -14.702 -22.615  0.00  0.00    +0.006 C 
ATOM     17  C   UNL     1      34.134 -17.129 -23.945  0.00  0.00    +0.012 C 
ATOM     18  C   UNL     1      34.673 -15.905 -21.932  0.00  0.00    +0.012 C 
ATOM     19  C   UNL     1      34.497 -17.118 -22.598  0.00  0.00    +0.058 C 
ENDBRANCH  10  14
BRANCH  11  20
ATOM     20  O   UNL     1      30.672 -10.678 -19.623  0.00  0.00    -0.471 OA
ATOM     21  C   UNL     1      31.382 -10.557 -18.391  0.00  0.00    +0.252 C 
ENDBRANCH  11  20
BRANCH   3  22
ATOM     22  C   UNL     1      33.513  -8.541 -23.903  0.00  0.00    +0.112 C 
BRANCH  22  25
ATOM     23  O   UNL     1      31.140  -8.301 -24.328  0.00  0.00    -0.275 OA
ATOM     24  N   UNL     1      32.269  -6.562 -23.282  0.00  0.00    -0.303 N 
ATOM     25  C   UNL     1      32.174  -7.812 -23.878  0.00  0.00    +0.227 C 
ATOM     26  H   UNL     1      33.149  -6.265 -22.953  0.00  0.00    +0.149 HD
BRANCH  24  27
ATOM     27  CA  UNL     1      31.138  -5.678 -23.122  0.00  0.00    +0.101 C 
BRANCH  27  28
ATOM     28  C   UNL     1      30.812  -5.462 -21.639  0.00  0.00    +0.022 C 
ATOM     29  C   UNL     1      31.791  -6.173 -20.712  0.00  0.00    +0.002 C 
ENDBRANCH  27  28
BRANCH  27  30
ATOM     30  C   UNL     1      31.429  -4.344 -23.811  0.00  0.00    +0.157 C 
BRANCH  30  31
ATOM     31  O   UNL     1      30.281  -3.929 -24.542  0.00  0.00    -0.380 OA
ATOM     32  H   UNL     1      30.108  -2.992 -24.367  0.00  0.00    +0.211 HD
ENDBRANCH  30  31
ENDBRANCH  27  30
ENDBRANCH  24  27
ENDBRANCH  22  25
ENDBRANCH   3  22
TORSDOF 8
ENDMDL
MODEL 8
REMARK VINA RESULT:      -8.0     10.067     14.287
REMARK  Name = 16741228
REMARK  8 active torsions:
REMARK  status: ('A' for Active; 'I' for Inactive)
REMARK    1  A    between atoms: C_3  and  C_22
REMARK    2  A    between atoms: C_10  and  C_14
REMARK    3  A    between atoms: C_11  and  O_20
REMARK    4  A    between atoms: C_22  and  C_25
REMARK    5  A    between atoms: N_24  and  CA_27
REMARK    6  A    between atoms: CA_27  and  C_28
REMARK    7  A    between atoms: CA_27  and  C_30
REMARK    8  A    between atoms: C_30  and  O_31
REMARK                            x       y       z     vdW  Elec       q    Type
REMARK                         _______ _______ _______ _____ _____    ______ ____
ROOT
ATOM      1  O   UNL     1      34.759 -24.554 -13.035  0.00  0.00    -0.267 OA
ATOM      2  N   UNL     1      34.850 -23.825 -15.175  0.00  0.00    -0.279 N 
ATOM      3  C   UNL     1      33.267 -23.163 -16.629  0.00  0.00    +0.001 A 
ATOM      4  C   UNL     1      34.509 -22.659 -17.083  0.00  0.00    +0.017 A 
ATOM      5  C   UNL     1      33.500 -23.859 -15.469  0.00  0.00    +0.041 A 
ATOM      6  C   UNL     1      35.488 -23.073 -16.169  0.00  0.00    +0.066 A 
ATOM      7  C   UNL     1      34.883 -21.881 -18.198  0.00  0.00    +0.038 C 
ATOM      8  C   UNL     1      36.840 -22.728 -16.360  0.00  0.00    +0.021 C 
ATOM      9  C   UNL     1      32.493 -24.557 -14.635  0.00  0.00    +0.050 C 
ATOM     10  C   UNL     1      35.445 -24.421 -14.042  0.00  0.00    +0.264 C 
ATOM     11  C   UNL     1      36.224 -21.536 -18.380  0.00  0.00    +0.139 C 
ATOM     12  C   UNL     1      37.187 -21.956 -17.473  0.00  0.00    +0.038 C 
ENDROOT
BRANCH  10  14
ATOM     13 CL   UNL     1      41.088 -26.405 -13.807  0.00  0.00    -0.082 Cl
ATOM     14  C   UNL     1      36.836 -24.910 -13.984  0.00  0.00    +0.057 C 
ATOM     15  C   UNL     1      37.240 -25.963 -14.806  0.00  0.00    +0.006 C 
ATOM     16  C   UNL     1      37.747 -24.321 -13.107  0.00  0.00    +0.006 C 
ATOM     17  C   UNL     1      38.555 -26.425 -14.751  0.00  0.00    +0.012 C 
ATOM     18  C   UNL     1      39.062 -24.783 -13.052  0.00  0.00    +0.012 C 
ATOM     19  C   UNL     1      39.466 -25.835 -13.874  0.00  0.00    +0.058 C 
ENDBRANCH  10  14
BRANCH  11  20
ATOM     20  O   UNL     1      36.587 -20.784 -19.457  0.00  0.00    -0.471 OA
ATOM     21  C   UNL     1      35.574 -20.497 -20.419  0.00  0.00    +0.252 C 
ENDBRANCH  11  20
BRANCH   3  22
ATOM     22  C   UNL     1      31.955 -22.970 -17.283  0.00  0.00    +0.112 C 
BRANCH  22  25
ATOM     23  O   UNL     1      30.866 -22.283 -15.231  0.00  0.00    -0.275 OA
ATOM     24  N   UNL     1      29.682 -23.591 -16.741  0.00  0.00    -0.303 N 
ATOM     25  C   UNL     1      30.798 -22.899 -16.292  0.00  0.00    +0.227 C 
ATOM     26  H   UNL     1      29.733 -24.053 -17.610  0.00  0.00    +0.149 HD
BRANCH  24  27
ATOM     27  CA  UNL     1      28.448 -23.665 -15.994  0.00  0.00    +0.101 C 
BRANCH  27  28
ATOM     28  C   UNL     1      28.669 -24.327 -14.628  0.00  0.00    +0.022 C 
ATOM     29  C   UNL     1      29.187 -25.755 -14.743  0.00  0.00    +0.002 C 
ENDBRANCH  27  28
BRANCH  27  30
ATOM     30  C   UNL     1      27.866 -22.260 -15.826  0.00  0.00    +0.157 C 
BRANCH  30  31
ATOM     31  O   UNL     1      27.577 -21.713 -17.107  0.00  0.00    -0.380 OA
ATOM     32  H   UNL     1      26.737 -22.074 -17.431  0.00  0.00    +0.211 HD
ENDBRANCH  30  31
ENDBRANCH  27  30
ENDBRANCH  24  27
ENDBRANCH  22  25
ENDBRANCH   3  22
TORSDOF 8
ENDMDL
MODEL 9
REMARK VINA RESULT:      -7.7      1.736      4.086
REMARK  Name = 16741228
REMARK  8 active torsions:
REMARK  status: ('A' for Active; 'I' for Inactive)
REMARK    1  A    between atoms: C_3  and  C_22
REMARK    2  A    between atoms: C_10  and  C_14
REMARK    3  A    between atoms: C_11  and  O_20
REMARK    4  A    between atoms: C_22  and  C_25
REMARK    5  A    between atoms: N_24  and  CA_27
REMARK    6  A    between atoms: CA_27  and  C_28
REMARK    7  A    between atoms: CA_27  and  C_30
REMARK    8  A    between atoms: C_30  and  O_31
REMARK                            x       y       z     vdW  Elec       q    Type
REMARK                         _______ _______ _______ _____ _____    ______ ____
ROOT
ATOM      1  O   UNL     1      34.426 -10.274 -24.705  0.00  0.00    -0.267 OA
ATOM      2  N   UNL     1      32.992 -10.872 -23.061  0.00  0.00    -0.279 N 
ATOM      3  C   UNL     1      32.432 -12.862 -22.175  0.00  0.00    +0.001 A 
ATOM      4  C   UNL     1      32.060 -11.857 -21.251  0.00  0.00    +0.017 A 
ATOM      5  C   UNL     1      32.999 -12.240 -23.259  0.00  0.00    +0.041 A 
ATOM      6  C   UNL     1      32.417 -10.621 -21.809  0.00  0.00    +0.066 A 
ATOM      7  C   UNL     1      31.450 -11.895 -19.980  0.00  0.00    +0.038 C 
ATOM      8  C   UNL     1      32.161  -9.421 -21.119  0.00  0.00    +0.021 C 
ATOM      9  C   UNL     1      33.542 -12.893 -24.473  0.00  0.00    +0.050 C 
ATOM     10  C   UNL     1      33.515  -9.922 -23.964  0.00  0.00    +0.264 C 
ATOM     11  C   UNL     1      31.204 -10.702 -19.296  0.00  0.00    +0.139 C 
ATOM     12  C   UNL     1      31.555  -9.484 -19.860  0.00  0.00    +0.038 C 
ENDROOT
BRANCH  10  14
ATOM     13 CL   UNL     1      31.566  -4.287 -24.491  0.00  0.00    -0.082 Cl
ATOM     14  C   UNL     1      33.034  -8.533 -24.094  0.00  0.00    +0.057 C 
ATOM     15  C   UNL     1      31.665  -8.270 -24.140  0.00  0.00    +0.006 C 
ATOM     16  C   UNL     1      33.949  -7.483 -24.173  0.00  0.00    +0.006 C 
ATOM     17  C   UNL     1      31.211  -6.957 -24.263  0.00  0.00    +0.012 C 
ATOM     18  C   UNL     1      33.495  -6.169 -24.295  0.00  0.00    +0.012 C 
ATOM     19  C   UNL     1      32.126  -5.906 -24.340  0.00  0.00    +0.058 C 
ENDBRANCH  10  14
BRANCH  11  20
ATOM     20  O   UNL     1      30.615 -10.738 -18.068  0.00  0.00    -0.471 OA
ATOM     21  C   UNL     1      31.411 -11.207 -16.980  0.00  0.00    +0.252 C 
ENDBRANCH  11  20
BRANCH   3  22
ATOM     22  C   UNL     1      32.246 -14.318 -22.002  0.00  0.00    +0.112 C 
BRANCH  22  25
ATOM     23  O   UNL     1      34.185 -14.551 -20.567  0.00  0.00    -0.275 OA
ATOM     24  N   UNL     1      33.722 -16.231 -22.101  0.00  0.00    -0.303 N 
ATOM     25  C   UNL     1      33.491 -15.019 -21.467  0.00  0.00    +0.227 C 
ATOM     26  H   UNL     1      33.102 -16.515 -22.812  0.00  0.00    +0.149 HD
BRANCH  24  27
ATOM     27  CA  UNL     1      34.829 -17.096 -21.767  0.00  0.00    +0.101 C 
BRANCH  27  28
ATOM     28  C   UNL     1      34.337 -18.405 -21.136  0.00  0.00    +0.022 C 
ATOM     29  C   UNL     1      34.803 -19.638 -21.900  0.00  0.00    +0.002 C 
ENDBRANCH  27  28
BRANCH  27  30
ATOM     30  C   UNL     1      35.655 -17.379 -23.024  0.00  0.00    +0.157 C 
BRANCH  30  31
ATOM     31  O   UNL     1      35.769 -16.188 -23.793  0.00  0.00    -0.380 OA
ATOM     32  H   UNL     1      34.894 -15.931 -24.122  0.00  0.00    +0.211 HD
ENDBRANCH  30  31
ENDBRANCH  27  30
ENDBRANCH  24  27
ENDBRANCH  22  25
ENDBRANCH   3  22
TORSDOF 8
ENDMDL
