MODEL 1
REMARK VINA RESULT:      -8.4      0.000      0.000
REMARK  Name = 4622
REMARK  5 active torsions:
REMARK  status: ('A' for Active; 'I' for Inactive)
REMARK    1  A    between atoms: N_4  and  C_10
REMARK    2  A    between atoms: C_7  and  O_18
REMARK    3  A    between atoms: C_12  and  O_16
REMARK    4  A    between atoms: O_18  and  C_19
REMARK    5  A    between atoms: C_19  and  C_20
REMARK                            x       y       z     vdW  Elec       q    Type
REMARK                         _______ _______ _______ _____ _____    ______ ____
ROOT
ATOM      1  N   UNL     1      32.599 -21.849 -18.770  0.00  0.00    -0.302 N 
ATOM      2  N   UNL     1      34.634 -22.520 -18.179  0.00  0.00    -0.302 N 
ATOM      3  C   UNL     1      33.462 -21.179 -19.600  0.00  0.00    +0.063 C 
ATOM      4  C   UNL     1      34.726 -21.615 -19.212  0.00  0.00    +0.060 C 
ATOM      5  C   UNL     1      34.388 -19.768 -21.276  0.00  0.00    +0.140 C 
ATOM      6  C   UNL     1      33.251 -20.258 -20.626  0.00  0.00    +0.052 C 
ATOM      7  C   UNL     1      35.857 -21.113 -19.875  0.00  0.00    +0.019 C 
ATOM      8  C   UNL     1      33.347 -22.637 -17.939  0.00  0.00    +0.229 C 
ATOM      9  C   UNL     1      35.670 -20.187 -20.908  0.00  0.00    +0.038 C 
ATOM     10  H   UNL     1      31.618 -21.775 -18.772  0.00  0.00    +0.150 HD
ATOM     11  H   UNL     1      35.373 -22.980 -17.719  0.00  0.00    +0.150 HD
ENDROOT
BRANCH   8  13
ATOM     12  O   UNL     1      30.569 -22.526 -16.884  0.00  0.00    -0.226 OA
ATOM     13  N   UNL     1      32.739 -23.423 -16.997  0.00  0.00    -0.240 N 
ATOM     14  C   UNL     1      31.425 -23.329 -16.535  0.00  0.00    +0.404 C 
ATOM     15  H   UNL     1      33.291 -24.137 -16.601  0.00  0.00    +0.156 HD
BRANCH  14  16
ATOM     16  O   UNL     1      31.205 -24.299 -15.593  0.00  0.00    -0.431 OA
ATOM     17  C   UNL     1      29.931 -24.952 -15.646  0.00  0.00    +0.257 C 
ENDBRANCH  14  16
ENDBRANCH   8  13
BRANCH   5  18
ATOM     18  O   UNL     1      34.243 -18.865 -22.287  0.00  0.00    -0.475 OA
BRANCH  18  19
ATOM     19  C   UNL     1      35.207 -18.910 -23.337  0.00  0.00    +0.205 C 
BRANCH  19  20
ATOM     20  C   UNL     1      34.493 -18.721 -24.667  0.00  0.00    +0.047 C 
ATOM     21  C   UNL     1      34.568 -17.282 -25.147  0.00  0.00    +0.004 C 
ENDBRANCH  19  20
ENDBRANCH  18  19
ENDBRANCH   5  18
TORSDOF 5
ENDMDL
MODEL 2
REMARK VINA RESULT:      -8.4      2.968      7.583
REMARK  Name = 4622
REMARK  5 active torsions:
REMARK  status: ('A' for Active; 'I' for Inactive)
REMARK    1  A    between atoms: N_4  and  C_10
REMARK    2  A    between atoms: C_7  and  O_18
REMARK    3  A    between atoms: C_12  and  O_16
REMARK    4  A    between atoms: O_18  and  C_19
REMARK    5  A    between atoms: C_19  and  C_20
REMARK                            x       y       z     vdW  Elec       q    Type
REMARK                         _______ _______ _______ _____ _____    ______ ____
ROOT
ATOM      1  N   UNL     1      33.934 -18.652 -21.356  0.00  0.00    -0.302 N 
ATOM      2  N   UNL     1      36.135 -18.953 -21.278  0.00  0.00    -0.302 N 
ATOM      3  C   UNL     1      34.121 -19.810 -20.646  0.00  0.00    +0.063 C 
ATOM      4  C   UNL     1      35.502 -19.977 -20.610  0.00  0.00    +0.060 C 
ATOM      5  C   UNL     1      33.779 -21.802 -19.391  0.00  0.00    +0.140 C 
ATOM      6  C   UNL     1      33.226 -20.699 -20.050  0.00  0.00    +0.052 C 
ATOM      7  C   UNL     1      36.041 -21.090 -19.944  0.00  0.00    +0.019 C 
ATOM      8  C   UNL     1      35.167 -18.177 -21.712  0.00  0.00    +0.229 C 
ATOM      9  C   UNL     1      35.162 -21.996 -19.339  0.00  0.00    +0.038 C 
ATOM     10  H   UNL     1      33.069 -18.236 -21.573  0.00  0.00    +0.150 HD
ATOM     11  H   UNL     1      37.104 -18.828 -21.402  0.00  0.00    +0.150 HD
ENDROOT
BRANCH   8  13
ATOM     12  O   UNL     1      33.664 -15.624 -21.459  0.00  0.00    -0.226 OA
ATOM     13  N   UNL     1      35.282 -17.021 -22.437  0.00  0.00    -0.240 N 
ATOM     14  C   UNL     1      34.548 -15.845 -22.277  0.00  0.00    +0.404 C 
ATOM     15  H   UNL     1      35.960 -17.019 -23.151  0.00  0.00    +0.156 HD
BRANCH  14  16
ATOM     16  O   UNL     1      34.966 -14.921 -23.199  0.00  0.00    -0.431 OA
ATOM     17  C   UNL     1      33.997 -13.943 -23.595  0.00  0.00    +0.257 C 
ENDBRANCH  14  16
ENDBRANCH   8  13
BRANCH   5  18
ATOM     18  O   UNL     1      32.953 -22.705 -18.790  0.00  0.00    -0.475 OA
BRANCH  18  19
ATOM     19  C   UNL     1      33.343 -23.180 -17.503  0.00  0.00    +0.205 C 
BRANCH  19  20
ATOM     20  C   UNL     1      32.123 -23.190 -16.594  0.00  0.00    +0.047 C 
ATOM     21  C   UNL     1      32.511 -23.319 -15.131  0.00  0.00    +0.004 C 
ENDBRANCH  19  20
ENDBRANCH  18  19
ENDBRANCH   5  18
TORSDOF 5
ENDMDL
MODEL 3
REMARK VINA RESULT:      -8.1      5.366      9.672
REMARK  Name = 4622
REMARK  5 active torsions:
REMARK  status: ('A' for Active; 'I' for Inactive)
REMARK    1  A    between atoms: N_4  and  C_10
REMARK    2  A    between atoms: C_7  and  O_18
REMARK    3  A    between atoms: C_12  and  O_16
REMARK    4  A    between atoms: O_18  and  C_19
REMARK    5  A    between atoms: C_19  and  C_20
REMARK                            x       y       z     vdW  Elec       q    Type
REMARK                         _______ _______ _______ _____ _____    ______ ____
ROOT
ATOM      1  N   UNL     1      34.420 -14.777 -22.554  0.00  0.00    -0.302 N 
ATOM      2  N   UNL     1      34.019 -14.775 -24.741  0.00  0.00    -0.302 N 
ATOM      3  C   UNL     1      34.522 -16.087 -22.947  0.00  0.00    +0.063 C 
ATOM      4  C   UNL     1      34.267 -16.060 -24.315  0.00  0.00    +0.060 C 
ATOM      5  C   UNL     1      34.828 -18.446 -22.981  0.00  0.00    +0.140 C 
ATOM      6  C   UNL     1      34.805 -17.258 -22.243  0.00  0.00    +0.052 C 
ATOM      7  C   UNL     1      34.294 -17.262 -25.041  0.00  0.00    +0.019 C 
ATOM      8  C   UNL     1      34.118 -14.032 -23.660  0.00  0.00    +0.229 C 
ATOM      9  C   UNL     1      34.576 -18.450 -24.356  0.00  0.00    +0.038 C 
ATOM     10  H   UNL     1      34.542 -14.434 -21.640  0.00  0.00    +0.150 HD
ATOM     11  H   UNL     1      33.812 -14.477 -25.656  0.00  0.00    +0.150 HD
ENDROOT
BRANCH   8  13
ATOM     12  O   UNL     1      33.808 -11.996 -25.805  0.00  0.00    -0.226 OA
ATOM     13  N   UNL     1      33.957 -12.675 -23.560  0.00  0.00    -0.240 N 
ATOM     14  C   UNL     1      33.814 -11.760 -24.604  0.00  0.00    +0.404 C 
ATOM     15  H   UNL     1      33.937 -12.304 -22.648  0.00  0.00    +0.156 HD
BRANCH  14  16
ATOM     16  O   UNL     1      33.676 -10.499 -24.085  0.00  0.00    -0.431 OA
ATOM     17  C   UNL     1      34.800  -9.626 -24.244  0.00  0.00    +0.257 C 
ENDBRANCH  14  16
ENDBRANCH   8  13
BRANCH   5  18
ATOM     18  O   UNL     1      35.100 -19.622 -22.347  0.00  0.00    -0.475 OA
BRANCH  18  19
ATOM     19  C   UNL     1      35.330 -19.560 -20.941  0.00  0.00    +0.205 C 
BRANCH  19  20
ATOM     20  C   UNL     1      34.433 -20.578 -20.252  0.00  0.00    +0.047 C 
ATOM     21  C   UNL     1      32.963 -20.225 -20.398  0.00  0.00    +0.004 C 
ENDBRANCH  19  20
ENDBRANCH  18  19
ENDBRANCH   5  18
TORSDOF 5
ENDMDL
MODEL 4
REMARK VINA RESULT:      -8.1      7.579     10.819
REMARK  Name = 4622
REMARK  5 active torsions:
REMARK  status: ('A' for Active; 'I' for Inactive)
REMARK    1  A    between atoms: N_4  and  C_10
REMARK    2  A    between atoms: C_7  and  O_18
REMARK    3  A    between atoms: C_12  and  O_16
REMARK    4  A    between atoms: O_18  and  C_19
REMARK    5  A    between atoms: C_19  and  C_20
REMARK                            x       y       z     vdW  Elec       q    Type
REMARK                         _______ _______ _______ _____ _____    ______ ____
ROOT
ATOM      1  N   UNL     1      33.843 -13.200 -24.344  0.00  0.00    -0.302 N 
ATOM      2  N   UNL     1      32.550 -14.076 -22.762  0.00  0.00    -0.302 N 
ATOM      3  C   UNL     1      33.257 -12.131 -23.715  0.00  0.00    +0.063 C 
ATOM      4  C   UNL     1      32.456 -12.703 -22.732  0.00  0.00    +0.060 C 
ATOM      5  C   UNL     1      32.603  -9.937 -23.070  0.00  0.00    +0.140 C 
ATOM      6  C   UNL     1      33.358 -10.755 -23.917  0.00  0.00    +0.052 C 
ATOM      7  C   UNL     1      31.703 -11.868 -21.890  0.00  0.00    +0.019 C 
ATOM      8  C   UNL     1      33.389 -14.340 -23.739  0.00  0.00    +0.229 C 
ATOM      9  C   UNL     1      31.788 -10.483 -22.074  0.00  0.00    +0.038 C 
ATOM     10  H   UNL     1      34.475 -13.156 -25.097  0.00  0.00    +0.150 HD
ATOM     11  H   UNL     1      32.089 -14.721 -22.178  0.00  0.00    +0.150 HD
ENDROOT
BRANCH   8  13
ATOM     12  O   UNL     1      33.571 -15.421 -26.503  0.00  0.00    -0.226 OA
ATOM     13  N   UNL     1      33.813 -15.569 -24.170  0.00  0.00    -0.240 N 
ATOM     14  C   UNL     1      33.879 -16.029 -25.486  0.00  0.00    +0.404 C 
ATOM     15  H   UNL     1      34.105 -16.199 -23.471  0.00  0.00    +0.156 HD
BRANCH  14  16
ATOM     16  O   UNL     1      34.358 -17.313 -25.493  0.00  0.00    -0.431 OA
ATOM     17  C   UNL     1      34.870 -17.802 -24.247  0.00  0.00    +0.257 C 
ENDBRANCH  14  16
ENDBRANCH   8  13
BRANCH   5  18
ATOM     18  O   UNL     1      32.661  -8.583 -23.220  0.00  0.00    -0.475 OA
BRANCH  18  19
ATOM     19  C   UNL     1      33.612  -7.885 -22.419  0.00  0.00    +0.205 C 
BRANCH  19  20
ATOM     20  C   UNL     1      34.805  -7.512 -23.286  0.00  0.00    +0.047 C 
ATOM     21  C   UNL     1      34.374  -6.851 -24.584  0.00  0.00    +0.004 C 
ENDBRANCH  19  20
ENDBRANCH  18  19
ENDBRANCH   5  18
TORSDOF 5
ENDMDL
MODEL 5
REMARK VINA RESULT:      -8.1      4.070      5.728
REMARK  Name = 4622
REMARK  5 active torsions:
REMARK  status: ('A' for Active; 'I' for Inactive)
REMARK    1  A    between atoms: N_4  and  C_10
REMARK    2  A    between atoms: C_7  and  O_18
REMARK    3  A    between atoms: C_12  and  O_16
REMARK    4  A    between atoms: O_18  and  C_19
REMARK    5  A    between atoms: C_19  and  C_20
REMARK                            x       y       z     vdW  Elec       q    Type
REMARK                         _______ _______ _______ _____ _____    ______ ____
ROOT
ATOM      1  N   UNL     1      35.718 -23.531 -15.328  0.00  0.00    -0.302 N 
ATOM      2  N   UNL     1      34.050 -24.020 -13.942  0.00  0.00    -0.302 N 
ATOM      3  C   UNL     1      34.570 -23.303 -16.042  0.00  0.00    +0.063 C 
ATOM      4  C   UNL     1      33.542 -23.615 -15.156  0.00  0.00    +0.060 C 
ATOM      5  C   UNL     1      33.016 -22.743 -17.754  0.00  0.00    +0.140 C 
ATOM      6  C   UNL     1      34.349 -22.865 -17.348  0.00  0.00    +0.052 C 
ATOM      7  C   UNL     1      32.209 -23.488 -15.580  0.00  0.00    +0.019 C 
ATOM      8  C   UNL     1      35.356 -23.958 -14.080  0.00  0.00    +0.229 C 
ATOM      9  C   UNL     1      31.963 -23.049 -16.886  0.00  0.00    +0.038 C 
ATOM     10  H   UNL     1      36.639 -23.410 -15.655  0.00  0.00    +0.150 HD
ATOM     11  H   UNL     1      33.545 -24.295 -13.144  0.00  0.00    +0.150 HD
ENDROOT
BRANCH   8  13
ATOM     12  O   UNL     1      35.037 -24.895 -11.277  0.00  0.00    -0.226 OA
ATOM     13  N   UNL     1      36.312 -24.262 -13.147  0.00  0.00    -0.240 N 
ATOM     14  C   UNL     1      36.107 -24.701 -11.838  0.00  0.00    +0.404 C 
ATOM     15  H   UNL     1      37.249 -24.162 -13.433  0.00  0.00    +0.156 HD
BRANCH  14  16
ATOM     16  O   UNL     1      37.320 -24.896 -11.231  0.00  0.00    -0.431 OA
ATOM     17  C   UNL     1      38.451 -24.297 -11.877  0.00  0.00    +0.257 C 
ENDBRANCH  14  16
ENDBRANCH   8  13
BRANCH   5  18
ATOM     18  O   UNL     1      32.738 -22.319 -19.019  0.00  0.00    -0.475 OA
BRANCH  18  19
ATOM     19  C   UNL     1      33.666 -21.415 -19.616  0.00  0.00    +0.205 C 
BRANCH  19  20
ATOM     20  C   UNL     1      32.892 -20.347 -20.374  0.00  0.00    +0.047 C 
ATOM     21  C   UNL     1      33.817 -19.421 -21.145  0.00  0.00    +0.004 C 
ENDBRANCH  19  20
ENDBRANCH  18  19
ENDBRANCH   5  18
TORSDOF 5
ENDMDL
MODEL 6
REMARK VINA RESULT:      -8.0      4.917      8.918
REMARK  Name = 4622
REMARK  5 active torsions:
REMARK  status: ('A' for Active; 'I' for Inactive)
REMARK    1  A    between atoms: N_4  and  C_10
REMARK    2  A    between atoms: C_7  and  O_18
REMARK    3  A    between atoms: C_12  and  O_16
REMARK    4  A    between atoms: O_18  and  C_19
REMARK    5  A    between atoms: C_19  and  C_20
REMARK                            x       y       z     vdW  Elec       q    Type
REMARK                         _______ _______ _______ _____ _____    ______ ____
ROOT
ATOM      1  N   UNL     1      34.515 -15.070 -22.019  0.00  0.00    -0.302 N 
ATOM      2  N   UNL     1      34.508 -15.647 -24.166  0.00  0.00    -0.302 N 
ATOM      3  C   UNL     1      34.747 -16.422 -22.036  0.00  0.00    +0.063 C 
ATOM      4  C   UNL     1      34.739 -16.758 -23.387  0.00  0.00    +0.060 C 
ATOM      5  C   UNL     1      35.168 -18.677 -21.407  0.00  0.00    +0.140 C 
ATOM      6  C   UNL     1      34.957 -17.350 -21.017  0.00  0.00    +0.052 C 
ATOM      7  C   UNL     1      34.952 -18.095 -23.761  0.00  0.00    +0.019 C 
ATOM      8  C   UNL     1      34.378 -14.653 -23.314  0.00  0.00    +0.229 C 
ATOM      9  C   UNL     1      35.165 -19.044 -22.755  0.00  0.00    +0.038 C 
ATOM     10  H   UNL     1      34.455 -14.501 -21.218  0.00  0.00    +0.150 HD
ATOM     11  H   UNL     1      34.453 -15.605 -25.148  0.00  0.00    +0.150 HD
ENDROOT
BRANCH   8  13
ATOM     12  O   UNL     1      32.104 -12.926 -22.489  0.00  0.00    -0.226 OA
ATOM     13  N   UNL     1      34.136 -13.335 -23.597  0.00  0.00    -0.240 N 
ATOM     14  C   UNL     1      33.047 -12.567 -23.182  0.00  0.00    +0.404 C 
ATOM     15  H   UNL     1      34.806 -12.877 -24.154  0.00  0.00    +0.156 HD
BRANCH  14  16
ATOM     16  O   UNL     1      33.176 -11.295 -23.676  0.00  0.00    -0.431 OA
ATOM     17  C   UNL     1      34.004 -11.151 -24.836  0.00  0.00    +0.257 C 
ENDBRANCH  14  16
ENDBRANCH   8  13
BRANCH   5  18
ATOM     18  O   UNL     1      35.379 -19.628 -20.454  0.00  0.00    -0.475 OA
BRANCH  18  19
ATOM     19  C   UNL     1      34.348 -20.595 -20.265  0.00  0.00    +0.205 C 
BRANCH  19  20
ATOM     20  C   UNL     1      34.851 -21.671 -19.314  0.00  0.00    +0.047 C 
ATOM     21  C   UNL     1      36.327 -21.501 -19.002  0.00  0.00    +0.004 C 
ENDBRANCH  19  20
ENDBRANCH  18  19
ENDBRANCH   5  18
TORSDOF 5
ENDMDL
MODEL 7
REMARK VINA RESULT:      -8.0      4.869      6.270
REMARK  Name = 4622
REMARK  5 active torsions:
REMARK  status: ('A' for Active; 'I' for Inactive)
REMARK    1  A    between atoms: N_4  and  C_10
REMARK    2  A    between atoms: C_7  and  O_18
REMARK    3  A    between atoms: C_12  and  O_16
REMARK    4  A    between atoms: O_18  and  C_19
REMARK    5  A    between atoms: C_19  and  C_20
REMARK                            x       y       z     vdW  Elec       q    Type
REMARK                         _______ _______ _______ _____ _____    ______ ____
ROOT
ATOM      1  N   UNL     1      31.210 -22.725 -17.171  0.00  0.00    -0.302 N 
ATOM      2  N   UNL     1      30.365 -23.359 -15.214  0.00  0.00    -0.302 N 
ATOM      3  C   UNL     1      32.275 -23.194 -16.446  0.00  0.00    +0.063 C 
ATOM      4  C   UNL     1      31.723 -23.584 -15.229  0.00  0.00    +0.060 C 
ATOM      5  C   UNL     1      34.453 -23.844 -15.744  0.00  0.00    +0.140 C 
ATOM      6  C   UNL     1      33.634 -23.307 -16.742  0.00  0.00    +0.052 C 
ATOM      7  C   UNL     1      32.560 -24.121 -14.238  0.00  0.00    +0.019 C 
ATOM      8  C   UNL     1      30.091 -22.844 -16.392  0.00  0.00    +0.229 C 
ATOM      9  C   UNL     1      33.927 -24.244 -14.513  0.00  0.00    +0.038 C 
ATOM     10  H   UNL     1      31.243 -22.366 -18.086  0.00  0.00    +0.150 HD
ATOM     11  H   UNL     1      29.736 -23.544 -14.481  0.00  0.00    +0.150 HD
ENDROOT
BRANCH   8  13
ATOM     12  O   UNL     1      27.842 -24.480 -17.444  0.00  0.00    -0.226 OA
ATOM     13  N   UNL     1      28.869 -22.446 -16.868  0.00  0.00    -0.240 N 
ATOM     14  C   UNL     1      27.844 -23.259 -17.353  0.00  0.00    +0.404 C 
ATOM     15  H   UNL     1      28.695 -21.477 -16.867  0.00  0.00    +0.156 HD
BRANCH  14  16
ATOM     16  O   UNL     1      26.786 -22.476 -17.732  0.00  0.00    -0.431 OA
ATOM     17  C   UNL     1      26.221 -21.642 -16.712  0.00  0.00    +0.257 C 
ENDBRANCH  14  16
ENDBRANCH   8  13
BRANCH   5  18
ATOM     18  O   UNL     1      35.790 -23.979 -15.977  0.00  0.00    -0.475 OA
BRANCH  18  19
ATOM     19  C   UNL     1      36.666 -23.164 -15.202  0.00  0.00    +0.205 C 
BRANCH  19  20
ATOM     20  C   UNL     1      37.653 -22.479 -16.135  0.00  0.00    +0.047 C 
ATOM     21  C   UNL     1      36.951 -21.809 -17.304  0.00  0.00    +0.004 C 
ENDBRANCH  19  20
ENDBRANCH  18  19
ENDBRANCH   5  18
TORSDOF 5
ENDMDL
MODEL 8
REMARK VINA RESULT:      -7.9      1.994      2.460
REMARK  Name = 4622
REMARK  5 active torsions:
REMARK  status: ('A' for Active; 'I' for Inactive)
REMARK    1  A    between atoms: N_4  and  C_10
REMARK    2  A    between atoms: C_7  and  O_18
REMARK    3  A    between atoms: C_12  and  O_16
REMARK    4  A    between atoms: O_18  and  C_19
REMARK    5  A    between atoms: C_19  and  C_20
REMARK                            x       y       z     vdW  Elec       q    Type
REMARK                         _______ _______ _______ _____ _____    ______ ____
ROOT
ATOM      1  N   UNL     1      35.109 -22.138 -18.554  0.00  0.00    -0.302 N 
ATOM      2  N   UNL     1      32.892 -22.059 -18.705  0.00  0.00    -0.302 N 
ATOM      3  C   UNL     1      34.841 -21.246 -19.561  0.00  0.00    +0.063 C 
ATOM      4  C   UNL     1      33.451 -21.213 -19.635  0.00  0.00    +0.060 C 
ATOM      5  C   UNL     1      35.042 -19.664 -21.326  0.00  0.00    +0.140 C 
ATOM      6  C   UNL     1      35.671 -20.488 -20.387  0.00  0.00    +0.052 C 
ATOM      7  C   UNL     1      32.836 -20.380 -20.584  0.00  0.00    +0.019 C 
ATOM      8  C   UNL     1      33.913 -22.597 -18.074  0.00  0.00    +0.229 C 
ATOM      9  C   UNL     1      33.649 -19.611 -21.424  0.00  0.00    +0.038 C 
ATOM     10  H   UNL     1      36.001 -22.402 -18.234  0.00  0.00    +0.150 HD
ATOM     11  H   UNL     1      31.935 -22.224 -18.545  0.00  0.00    +0.150 HD
ENDROOT
BRANCH   8  13
ATOM     12  O   UNL     1      35.317 -22.562 -15.453  0.00  0.00    -0.226 OA
ATOM     13  N   UNL     1      33.879 -23.510 -17.053  0.00  0.00    -0.240 N 
ATOM     14  C   UNL     1      34.561 -23.446 -15.837  0.00  0.00    +0.404 C 
ATOM     15  H   UNL     1      33.309 -24.300 -17.193  0.00  0.00    +0.156 HD
BRANCH  14  16
ATOM     16  O   UNL     1      34.260 -24.555 -15.090  0.00  0.00    -0.431 OA
ATOM     17  C   UNL     1      34.235 -24.369 -13.670  0.00  0.00    +0.257 C 
ENDBRANCH  14  16
ENDBRANCH   8  13
BRANCH   5  18
ATOM     18  O   UNL     1      35.802 -18.900 -22.160  0.00  0.00    -0.475 OA
BRANCH  18  19
ATOM     19  C   UNL     1      35.149 -17.817 -22.820  0.00  0.00    +0.205 C 
BRANCH  19  20
ATOM     20  C   UNL     1      35.047 -18.136 -24.304  0.00  0.00    +0.047 C 
ATOM     21  C   UNL     1      34.680 -16.909 -25.121  0.00  0.00    +0.004 C 
ENDBRANCH  19  20
ENDBRANCH  18  19
ENDBRANCH   5  18
TORSDOF 5
ENDMDL
MODEL 9
REMARK VINA RESULT:      -7.9      3.522      7.807
REMARK  Name = 4622
REMARK  5 active torsions:
REMARK  status: ('A' for Active; 'I' for Inactive)
REMARK    1  A    between atoms: N_4  and  C_10
REMARK    2  A    between atoms: C_7  and  O_18
REMARK    3  A    between atoms: C_12  and  O_16
REMARK    4  A    between atoms: O_18  and  C_19
REMARK    5  A    between atoms: C_19  and  C_20
REMARK                            x       y       z     vdW  Elec       q    Type
REMARK                         _______ _______ _______ _____ _____    ______ ____
ROOT
ATOM      1  N   UNL     1      36.058 -19.098 -21.538  0.00  0.00    -0.302 N 
ATOM      2  N   UNL     1      33.858 -19.285 -21.797  0.00  0.00    -0.302 N 
ATOM      3  C   UNL     1      35.659 -20.033 -20.618  0.00  0.00    +0.063 C 
ATOM      4  C   UNL     1      34.282 -20.133 -20.799  0.00  0.00    +0.060 C 
ATOM      5  C   UNL     1      35.617 -21.658 -18.882  0.00  0.00    +0.140 C 
ATOM      6  C   UNL     1      36.363 -20.777 -19.671  0.00  0.00    +0.052 C 
ATOM      7  C   UNL     1      33.549 -21.023 -19.998  0.00  0.00    +0.019 C 
ATOM      8  C   UNL     1      34.947 -18.681 -22.219  0.00  0.00    +0.229 C 
ATOM      9  C   UNL     1      34.234 -21.780 -19.041  0.00  0.00    +0.038 C 
ATOM     10  H   UNL     1      36.979 -18.782 -21.683  0.00  0.00    +0.150 HD
ATOM     11  H   UNL     1      32.939 -19.160 -22.126  0.00  0.00    +0.150 HD
ENDROOT
BRANCH   8  13
ATOM     12  O   UNL     1      34.117 -18.824 -25.070  0.00  0.00    -0.226 OA
ATOM     13  N   UNL     1      35.053 -17.738 -23.207  0.00  0.00    -0.240 N 
ATOM     14  C   UNL     1      34.645 -17.857 -24.537  0.00  0.00    +0.404 C 
ATOM     15  H   UNL     1      35.461 -16.880 -22.950  0.00  0.00    +0.156 HD
BRANCH  14  16
ATOM     16  O   UNL     1      34.925 -16.692 -25.202  0.00  0.00    -0.431 OA
ATOM     17  C   UNL     1      33.814 -15.821 -25.443  0.00  0.00    +0.257 C 
ENDBRANCH  14  16
ENDBRANCH   8  13
BRANCH   5  18
ATOM     18  O   UNL     1      36.251 -22.412 -17.939  0.00  0.00    -0.475 OA
BRANCH  18  19
ATOM     19  C   UNL     1      36.980 -21.711 -16.934  0.00  0.00    +0.205 C 
BRANCH  19  20
ATOM     20  C   UNL     1      37.662 -22.724 -16.026  0.00  0.00    +0.047 C 
ATOM     21  C   UNL     1      36.654 -23.568 -15.266  0.00  0.00    +0.004 C 
ENDBRANCH  19  20
ENDBRANCH  18  19
ENDBRANCH   5  18
TORSDOF 5
ENDMDL
