MODEL 1
REMARK VINA RESULT:      -8.5      0.000      0.000
REMARK  Name = 673481
REMARK  3 active torsions:
REMARK  status: ('A' for Active; 'I' for Inactive)
REMARK    1  A    between atoms: C_8  and  N_16
REMARK    2  A    between atoms: C_9  and  C_12
REMARK    3  A    between atoms: C_17  and  C_19
REMARK                            x       y       z     vdW  Elec       q    Type
REMARK                         _______ _______ _______ _____ _____    ______ ____
ROOT
ATOM      1  S   UNL     1      34.644 -17.692 -24.596  0.00  0.00    -0.077 S 
ATOM      2  C   UNL     1      33.914 -15.520 -23.425  0.00  0.00    -0.014 A 
ATOM      3  C   UNL     1      33.378 -14.134 -23.244  0.00  0.00    +0.027 C 
ATOM      4  C   UNL     1      33.374 -13.347 -24.564  0.00  0.00    +0.005 C 
ATOM      5  C   UNL     1      34.024 -16.109 -24.671  0.00  0.00    +0.005 A 
ATOM      6  C   UNL     1      32.827 -14.191 -25.724  0.00  0.00    +0.006 C 
ATOM      7  C   UNL     1      33.679 -15.447 -25.968  0.00  0.00    +0.033 C 
ATOM      8  C   UNL     1      34.769 -17.619 -22.891  0.00  0.00    +0.084 A 
ATOM      9  C   UNL     1      34.346 -16.404 -22.392  0.00  0.00    +0.069 A 
ENDROOT
BRANCH   9  12
ATOM     10  O   UNL     1      35.295 -16.408 -20.227  0.00  0.00    -0.270 OA
ATOM     11  N   UNL     1      33.253 -15.423 -20.467  0.00  0.00    -0.325 N 
ATOM     12  C   UNL     1      34.353 -16.105 -20.982  0.00  0.00    +0.244 C 
ATOM     13  H   UNL     1      33.217 -15.199 -19.510  0.00  0.00    +0.145 HD
ATOM     14  H   UNL     1      32.510 -15.167 -21.060  0.00  0.00    +0.145 HD
ENDBRANCH   9  12
BRANCH   8  16
ATOM     15  O   UNL     1      33.419 -19.541 -21.007  0.00  0.00    -0.275 OA
ATOM     16  N   UNL     1      35.252 -18.735 -22.264  0.00  0.00    -0.279 N 
ATOM     17  C   UNL     1      34.586 -19.620 -21.378  0.00  0.00    +0.226 C 
ATOM     18  H   UNL     1      36.192 -18.955 -22.454  0.00  0.00    +0.155 HD
BRANCH  17  19
ATOM     19  C   UNL     1      35.474 -20.739 -20.899  0.00  0.00    +0.077 C 
ATOM     20  C   UNL     1      36.511 -20.417 -19.889  0.00  0.00    +0.010 C 
ATOM     21  C   UNL     1      35.300 -21.216 -19.505  0.00  0.00    +0.010 C 
ENDBRANCH  17  19
ENDBRANCH   8  16
TORSDOF 3
ENDMDL
MODEL 2
REMARK VINA RESULT:      -8.2      2.472      5.938
REMARK  Name = 673481
REMARK  3 active torsions:
REMARK  status: ('A' for Active; 'I' for Inactive)
REMARK    1  A    between atoms: C_8  and  N_16
REMARK    2  A    between atoms: C_9  and  C_12
REMARK    3  A    between atoms: C_17  and  C_19
REMARK                            x       y       z     vdW  Elec       q    Type
REMARK                         _______ _______ _______ _____ _____    ______ ____
ROOT
ATOM      1  S   UNL     1      34.454 -15.978 -24.715  0.00  0.00    -0.077 S 
ATOM      2  C   UNL     1      34.475 -16.934 -22.326  0.00  0.00    -0.014 A 
ATOM      3  C   UNL     1      34.566 -17.932 -21.213  0.00  0.00    +0.027 C 
ATOM      4  C   UNL     1      34.356 -19.369 -21.717  0.00  0.00    +0.005 C 
ATOM      5  C   UNL     1      34.570 -17.304 -23.655  0.00  0.00    +0.005 A 
ATOM      6  C   UNL     1      35.151 -19.640 -23.002  0.00  0.00    +0.006 C 
ATOM      7  C   UNL     1      34.721 -18.710 -24.147  0.00  0.00    +0.033 C 
ATOM      8  C   UNL     1      34.283 -14.883 -23.411  0.00  0.00    +0.084 A 
ATOM      9  C   UNL     1      34.312 -15.524 -22.190  0.00  0.00    +0.069 A 
ENDROOT
BRANCH   9  12
ATOM     10  O   UNL     1      35.174 -14.440 -20.274  0.00  0.00    -0.270 OA
ATOM     11  N   UNL     1      32.906 -14.515 -20.495  0.00  0.00    -0.325 N 
ATOM     12  C   UNL     1      34.192 -14.811 -20.942  0.00  0.00    +0.244 C 
ATOM     13  H   UNL     1      32.779 -14.030 -19.648  0.00  0.00    +0.145 HD
ATOM     14  H   UNL     1      32.124 -14.792 -21.025  0.00  0.00    +0.145 HD
ENDBRANCH   9  12
BRANCH   8  16
ATOM     15  O   UNL     1      32.024 -12.964 -22.884  0.00  0.00    -0.275 OA
ATOM     16  N   UNL     1      34.148 -13.561 -23.735  0.00  0.00    -0.279 N 
ATOM     17  C   UNL     1      33.065 -12.684 -23.472  0.00  0.00    +0.226 C 
ATOM     18  H   UNL     1      34.908 -13.162 -24.217  0.00  0.00    +0.155 HD
BRANCH  17  19
ATOM     19  C   UNL     1      33.305 -11.291 -23.997  0.00  0.00    +0.077 C 
ATOM     20  C   UNL     1      34.706 -10.812 -24.077  0.00  0.00    +0.010 C 
ATOM     21  C   UNL     1      33.946 -11.152 -25.327  0.00  0.00    +0.010 C 
ENDBRANCH  17  19
ENDBRANCH   8  16
TORSDOF 3
ENDMDL
MODEL 3
REMARK VINA RESULT:      -8.2      3.751      5.527
REMARK  Name = 673481
REMARK  3 active torsions:
REMARK  status: ('A' for Active; 'I' for Inactive)
REMARK    1  A    between atoms: C_8  and  N_16
REMARK    2  A    between atoms: C_9  and  C_12
REMARK    3  A    between atoms: C_17  and  C_19
REMARK                            x       y       z     vdW  Elec       q    Type
REMARK                         _______ _______ _______ _____ _____    ______ ____
ROOT
ATOM      1  S   UNL     1      32.452 -13.930 -22.156  0.00  0.00    -0.077 S 
ATOM      2  C   UNL     1      32.679 -11.500 -22.974  0.00  0.00    -0.014 A 
ATOM      3  C   UNL     1      32.556 -10.008 -22.993  0.00  0.00    +0.027 C 
ATOM      4  C   UNL     1      31.478  -9.511 -22.017  0.00  0.00    +0.005 C 
ATOM      5  C   UNL     1      32.160 -12.266 -21.946  0.00  0.00    +0.005 A 
ATOM      6  C   UNL     1      31.582 -10.212 -20.656  0.00  0.00    +0.006 C 
ATOM      7  C   UNL     1      31.389 -11.732 -20.780  0.00  0.00    +0.033 C 
ATOM      8  C   UNL     1      33.286 -13.651 -23.625  0.00  0.00    +0.084 A 
ATOM      9  C   UNL     1      33.335 -12.311 -23.946  0.00  0.00    +0.069 A 
ENDROOT
BRANCH   9  12
ATOM     10  O   UNL     1      33.680 -12.199 -26.282  0.00  0.00    -0.270 OA
ATOM     11  N   UNL     1      34.999 -10.880 -24.971  0.00  0.00    -0.325 N 
ATOM     12  C   UNL     1      33.991 -11.826 -25.136  0.00  0.00    +0.244 C 
ATOM     13  H   UNL     1      35.471 -10.523 -25.757  0.00  0.00    +0.145 HD
ATOM     14  H   UNL     1      35.240 -10.569 -24.069  0.00  0.00    +0.145 HD
ENDBRANCH   9  12
BRANCH   8  16
ATOM     15  O   UNL     1      35.275 -15.718 -22.709  0.00  0.00    -0.275 OA
ATOM     16  N   UNL     1      33.780 -14.753 -24.267  0.00  0.00    -0.279 N 
ATOM     17  C   UNL     1      34.721 -15.709 -23.804  0.00  0.00    +0.226 C 
ATOM     18  H   UNL     1      33.435 -14.906 -25.176  0.00  0.00    +0.155 HD
BRANCH  17  19
ATOM     19  C   UNL     1      35.006 -16.784 -24.822  0.00  0.00    +0.077 C 
ATOM     20  C   UNL     1      34.776 -18.193 -24.424  0.00  0.00    +0.010 C 
ATOM     21  C   UNL     1      33.853 -17.518 -25.397  0.00  0.00    +0.010 C 
ENDBRANCH  17  19
ENDBRANCH   8  16
TORSDOF 3
ENDMDL
MODEL 4
REMARK VINA RESULT:      -8.2      4.171      6.188
REMARK  Name = 673481
REMARK  3 active torsions:
REMARK  status: ('A' for Active; 'I' for Inactive)
REMARK    1  A    between atoms: C_8  and  N_16
REMARK    2  A    between atoms: C_9  and  C_12
REMARK    3  A    between atoms: C_17  and  C_19
REMARK                            x       y       z     vdW  Elec       q    Type
REMARK                         _______ _______ _______ _____ _____    ______ ____
ROOT
ATOM      1  S   UNL     1      34.381 -11.033 -24.775  0.00  0.00    -0.077 S 
ATOM      2  C   UNL     1      33.021  -9.902 -22.905  0.00  0.00    -0.014 A 
ATOM      3  C   UNL     1      32.475  -8.823 -22.022  0.00  0.00    +0.027 C 
ATOM      4  C   UNL     1      33.330  -7.548 -22.083  0.00  0.00    +0.005 C 
ATOM      5  C   UNL     1      33.937  -9.638 -23.907  0.00  0.00    +0.005 A 
ATOM      6  C   UNL     1      33.700  -7.184 -23.528  0.00  0.00    +0.006 C 
ATOM      7  C   UNL     1      34.523  -8.293 -24.203  0.00  0.00    +0.033 C 
ATOM      8  C   UNL     1      33.347 -12.015 -23.828  0.00  0.00    +0.084 A 
ATOM      9  C   UNL     1      32.679 -11.286 -22.866  0.00  0.00    +0.069 A 
ENDROOT
BRANCH   9  12
ATOM     10  O   UNL     1      32.063 -12.804 -21.162  0.00  0.00    -0.270 OA
ATOM     11  N   UNL     1      30.443 -11.402 -21.942  0.00  0.00    -0.325 N 
ATOM     12  C   UNL     1      31.747 -11.892 -21.948  0.00  0.00    +0.244 C 
ATOM     13  H   UNL     1      29.776 -11.787 -21.331  0.00  0.00    +0.145 HD
ATOM     14  H   UNL     1      30.189 -10.671 -22.550  0.00  0.00    +0.145 HD
ENDBRANCH   9  12
BRANCH   8  16
ATOM     15  O   UNL     1      34.809 -14.342 -22.598  0.00  0.00    -0.275 OA
ATOM     16  N   UNL     1      33.315 -13.347 -24.137  0.00  0.00    -0.279 N 
ATOM     17  C   UNL     1      34.020 -14.420 -23.535  0.00  0.00    +0.226 C 
ATOM     18  H   UNL     1      32.719 -13.596 -24.880  0.00  0.00    +0.155 HD
BRANCH  17  19
ATOM     19  C   UNL     1      33.707 -15.750 -24.172  0.00  0.00    +0.077 C 
ATOM     20  C   UNL     1      33.798 -15.851 -25.648  0.00  0.00    +0.010 C 
ATOM     21  C   UNL     1      34.827 -16.511 -24.777  0.00  0.00    +0.010 C 
ENDBRANCH  17  19
ENDBRANCH   8  16
TORSDOF 3
ENDMDL
MODEL 5
REMARK VINA RESULT:      -8.2      8.738     10.488
REMARK  Name = 673481
REMARK  3 active torsions:
REMARK  status: ('A' for Active; 'I' for Inactive)
REMARK    1  A    between atoms: C_8  and  N_16
REMARK    2  A    between atoms: C_9  and  C_12
REMARK    3  A    between atoms: C_17  and  C_19
REMARK                            x       y       z     vdW  Elec       q    Type
REMARK                         _______ _______ _______ _____ _____    ______ ____
ROOT
ATOM      1  S   UNL     1      33.215 -24.291 -13.653  0.00  0.00    -0.077 S 
ATOM      2  C   UNL     1      32.238 -23.297 -15.817  0.00  0.00    -0.014 A 
ATOM      3  C   UNL     1      31.235 -22.736 -16.777  0.00  0.00    +0.027 C 
ATOM      4  C   UNL     1      29.795 -23.064 -16.353  0.00  0.00    +0.005 C 
ATOM      5  C   UNL     1      31.886 -23.713 -14.546  0.00  0.00    +0.005 A 
ATOM      6  C   UNL     1      29.577 -22.823 -14.853  0.00  0.00    +0.006 C 
ATOM      7  C   UNL     1      30.495 -23.705 -13.993  0.00  0.00    +0.033 C 
ATOM      8  C   UNL     1      34.287 -23.986 -14.952  0.00  0.00    +0.084 A 
ATOM      9  C   UNL     1      33.637 -23.455 -16.047  0.00  0.00    +0.069 A 
ENDROOT
BRANCH   9  12
ATOM     10  O   UNL     1      35.482 -22.638 -17.279  0.00  0.00    -0.270 OA
ATOM     11  N   UNL     1      33.669 -23.346 -18.466  0.00  0.00    -0.325 N 
ATOM     12  C   UNL     1      34.330 -23.109 -17.263  0.00  0.00    +0.244 C 
ATOM     13  H   UNL     1      34.106 -23.124 -19.319  0.00  0.00    +0.145 HD
ATOM     14  H   UNL     1      32.764 -23.732 -18.463  0.00  0.00    +0.145 HD
ENDBRANCH   9  12
BRANCH   8  16
ATOM     15  O   UNL     1      35.867 -26.430 -15.724  0.00  0.00    -0.275 OA
ATOM     16  N   UNL     1      35.604 -24.294 -14.745  0.00  0.00    -0.279 N 
ATOM     17  C   UNL     1      36.317 -25.460 -15.122  0.00  0.00    +0.226 C 
ATOM     18  H   UNL     1      36.129 -23.612 -14.269  0.00  0.00    +0.155 HD
BRANCH  17  19
ATOM     19  C   UNL     1      37.766 -25.415 -14.706  0.00  0.00    +0.077 C 
ATOM     20  C   UNL     1      38.149 -24.465 -13.634  0.00  0.00    +0.010 C 
ATOM     21  C   UNL     1      38.119 -25.941 -13.365  0.00  0.00    +0.010 C 
ENDBRANCH  17  19
ENDBRANCH   8  16
TORSDOF 3
ENDMDL
MODEL 6
REMARK VINA RESULT:      -8.1      5.380      8.985
REMARK  Name = 673481
REMARK  3 active torsions:
REMARK  status: ('A' for Active; 'I' for Inactive)
REMARK    1  A    between atoms: C_8  and  N_16
REMARK    2  A    between atoms: C_9  and  C_12
REMARK    3  A    between atoms: C_17  and  C_19
REMARK                            x       y       z     vdW  Elec       q    Type
REMARK                         _______ _______ _______ _____ _____    ______ ____
ROOT
ATOM      1  S   UNL     1      31.852 -11.051 -21.950  0.00  0.00    -0.077 S 
ATOM      2  C   UNL     1      33.386 -12.702 -23.191  0.00  0.00    -0.014 A 
ATOM      3  C   UNL     1      34.083 -13.981 -23.541  0.00  0.00    +0.027 C 
ATOM      4  C   UNL     1      34.054 -14.983 -22.377  0.00  0.00    +0.005 C 
ATOM      5  C   UNL     1      32.523 -12.606 -22.116  0.00  0.00    +0.005 A 
ATOM      6  C   UNL     1      32.661 -15.067 -21.737  0.00  0.00    +0.006 C 
ATOM      7  C   UNL     1      32.215 -13.715 -21.158  0.00  0.00    +0.033 C 
ATOM      8  C   UNL     1      32.701 -10.481 -23.322  0.00  0.00    +0.084 A 
ATOM      9  C   UNL     1      33.484 -11.463 -23.892  0.00  0.00    +0.069 A 
ENDROOT
BRANCH   9  12
ATOM     10  O   UNL     1      34.010 -11.685 -26.186  0.00  0.00    -0.270 OA
ATOM     11  N   UNL     1      35.415 -10.419 -24.913  0.00  0.00    -0.325 N 
ATOM     12  C   UNL     1      34.290 -11.225 -25.063  0.00  0.00    +0.244 C 
ATOM     13  H   UNL     1      35.993 -10.231 -25.687  0.00  0.00    +0.145 HD
ATOM     14  H   UNL     1      35.635 -10.039 -24.032  0.00  0.00    +0.145 HD
ENDBRANCH   9  12
BRANCH   8  16
ATOM     15  O   UNL     1      34.497  -8.083 -23.026  0.00  0.00    -0.275 OA
ATOM     16  N   UNL     1      32.499  -9.173 -23.667  0.00  0.00    -0.279 N 
ATOM     17  C   UNL     1      33.370  -8.064 -23.512  0.00  0.00    +0.226 C 
ATOM     18  H   UNL     1      31.629  -8.972 -24.082  0.00  0.00    +0.155 HD
BRANCH  17  19
ATOM     19  C   UNL     1      32.771  -6.779 -24.023  0.00  0.00    +0.077 C 
ATOM     20  C   UNL     1      31.297  -6.708 -24.160  0.00  0.00    +0.010 C 
ATOM     21  C   UNL     1      31.995  -5.947 -23.071  0.00  0.00    +0.010 C 
ENDBRANCH  17  19
ENDBRANCH   8  16
TORSDOF 3
ENDMDL
MODEL 7
REMARK VINA RESULT:      -8.1      3.833      7.150
REMARK  Name = 673481
REMARK  3 active torsions:
REMARK  status: ('A' for Active; 'I' for Inactive)
REMARK    1  A    between atoms: C_8  and  N_16
REMARK    2  A    between atoms: C_9  and  C_12
REMARK    3  A    between atoms: C_17  and  C_19
REMARK                            x       y       z     vdW  Elec       q    Type
REMARK                         _______ _______ _______ _____ _____    ______ ____
ROOT
ATOM      1  S   UNL     1      33.762 -14.156 -21.971  0.00  0.00    -0.077 S 
ATOM      2  C   UNL     1      33.965 -15.582 -24.103  0.00  0.00    -0.014 A 
ATOM      3  C   UNL     1      34.255 -16.758 -24.984  0.00  0.00    +0.027 C 
ATOM      4  C   UNL     1      35.179 -17.773 -24.294  0.00  0.00    +0.005 C 
ATOM      5  C   UNL     1      34.193 -15.611 -22.740  0.00  0.00    +0.005 A 
ATOM      6  C   UNL     1      34.745 -18.041 -22.847  0.00  0.00    +0.006 C 
ATOM      7  C   UNL     1      34.786 -16.764 -21.992  0.00  0.00    +0.033 C 
ATOM      8  C   UNL     1      33.254 -13.463 -23.452  0.00  0.00    +0.084 A 
ATOM      9  C   UNL     1      33.415 -14.331 -24.511  0.00  0.00    +0.069 A 
ENDROOT
BRANCH   9  12
ATOM     10  O   UNL     1      33.464 -12.947 -26.427  0.00  0.00    -0.270 OA
ATOM     11  N   UNL     1      32.221 -14.853 -26.553  0.00  0.00    -0.325 N 
ATOM     12  C   UNL     1      33.053 -13.976 -25.861  0.00  0.00    +0.244 C 
ATOM     13  H   UNL     1      31.949 -14.649 -27.476  0.00  0.00    +0.145 HD
ATOM     14  H   UNL     1      31.903 -15.677 -26.117  0.00  0.00    +0.145 HD
ENDBRANCH   9  12
BRANCH   8  16
ATOM     15  O   UNL     1      34.575 -10.840 -24.111  0.00  0.00    -0.275 OA
ATOM     16  N   UNL     1      32.768 -12.186 -23.395  0.00  0.00    -0.279 N 
ATOM     17  C   UNL     1      33.421 -10.968 -23.713  0.00  0.00    +0.226 C 
ATOM     18  H   UNL     1      31.835 -12.099 -23.093  0.00  0.00    +0.155 HD
BRANCH  17  19
ATOM     19  C   UNL     1      32.534  -9.765 -23.517  0.00  0.00    +0.077 C 
ATOM     20  C   UNL     1      31.594  -9.776 -22.370  0.00  0.00    +0.010 C 
ATOM     21  C   UNL     1      32.803  -8.886 -22.353  0.00  0.00    +0.010 C 
ENDBRANCH  17  19
ENDBRANCH   8  16
TORSDOF 3
ENDMDL
MODEL 8
REMARK VINA RESULT:      -8.0      3.088      4.466
REMARK  Name = 673481
REMARK  3 active torsions:
REMARK  status: ('A' for Active; 'I' for Inactive)
REMARK    1  A    between atoms: C_8  and  N_16
REMARK    2  A    between atoms: C_9  and  C_12
REMARK    3  A    between atoms: C_17  and  C_19
REMARK                            x       y       z     vdW  Elec       q    Type
REMARK                         _______ _______ _______ _____ _____    ______ ____
ROOT
ATOM      1  S   UNL     1      33.584 -13.001 -24.196  0.00  0.00    -0.077 S 
ATOM      2  C   UNL     1      32.434 -12.877 -21.897  0.00  0.00    -0.014 A 
ATOM      3  C   UNL     1      31.669 -12.317 -20.738  0.00  0.00    +0.027 C 
ATOM      4  C   UNL     1      31.630 -10.781 -20.769  0.00  0.00    +0.005 C 
ATOM      5  C   UNL     1      32.723 -12.123 -23.019  0.00  0.00    +0.005 A 
ATOM      6  C   UNL     1      31.308 -10.252 -22.173  0.00  0.00    +0.006 C 
ATOM      7  C   UNL     1      32.367 -10.681 -23.202  0.00  0.00    +0.033 C 
ATOM      8  C   UNL     1      33.577 -14.411 -23.224  0.00  0.00    +0.084 A 
ATOM      9  C   UNL     1      32.930 -14.208 -22.023  0.00  0.00    +0.069 A 
ENDROOT
BRANCH   9  12
ATOM     10  O   UNL     1      31.753 -15.927 -20.905  0.00  0.00    -0.270 OA
ATOM     11  N   UNL     1      33.888 -15.513 -20.221  0.00  0.00    -0.325 N 
ATOM     12  C   UNL     1      32.790 -15.251 -21.037  0.00  0.00    +0.244 C 
ATOM     13  H   UNL     1      33.835 -16.217 -19.536  0.00  0.00    +0.145 HD
ATOM     14  H   UNL     1      34.717 -14.993 -20.330  0.00  0.00    +0.145 HD
ENDBRANCH   9  12
BRANCH   8  16
ATOM     15  O   UNL     1      33.204 -15.781 -25.879  0.00  0.00    -0.275 OA
ATOM     16  N   UNL     1      34.190 -15.517 -23.746  0.00  0.00    -0.279 N 
ATOM     17  C   UNL     1      33.988 -16.138 -25.005  0.00  0.00    +0.226 C 
ATOM     18  H   UNL     1      34.865 -15.940 -23.169  0.00  0.00    +0.155 HD
BRANCH  17  19
ATOM     19  C   UNL     1      34.867 -17.347 -25.203  0.00  0.00    +0.077 C 
ATOM     20  C   UNL     1      35.232 -18.142 -24.007  0.00  0.00    +0.010 C 
ATOM     21  C   UNL     1      34.260 -18.686 -25.012  0.00  0.00    +0.010 C 
ENDBRANCH  17  19
ENDBRANCH   8  16
TORSDOF 3
ENDMDL
MODEL 9
REMARK VINA RESULT:      -8.0      8.200     10.228
REMARK  Name = 673481
REMARK  3 active torsions:
REMARK  status: ('A' for Active; 'I' for Inactive)
REMARK    1  A    between atoms: C_8  and  N_16
REMARK    2  A    between atoms: C_9  and  C_12
REMARK    3  A    between atoms: C_17  and  C_19
REMARK                            x       y       z     vdW  Elec       q    Type
REMARK                         _______ _______ _______ _____ _____    ______ ____
ROOT
ATOM      1  S   UNL     1      30.984  -5.999 -22.356  0.00  0.00    -0.077 S 
ATOM      2  C   UNL     1      32.733  -6.046 -24.244  0.00  0.00    -0.014 A 
ATOM      3  C   UNL     1      33.464  -5.654 -25.491  0.00  0.00    +0.027 C 
ATOM      4  C   UNL     1      32.615  -4.739 -26.387  0.00  0.00    +0.005 C 
ATOM      5  C   UNL     1      31.612  -5.365 -23.805  0.00  0.00    +0.005 A 
ATOM      6  C   UNL     1      31.924  -3.635 -25.574  0.00  0.00    +0.006 C 
ATOM      7  C   UNL     1      30.971  -4.215 -24.517  0.00  0.00    +0.033 C 
ATOM      8  C   UNL     1      32.209  -7.194 -22.288  0.00  0.00    +0.084 A 
ATOM      9  C   UNL     1      33.077  -7.107 -23.356  0.00  0.00    +0.069 A 
ENDROOT
BRANCH   9  12
ATOM     10  O   UNL     1      35.364  -7.692 -23.220  0.00  0.00    -0.270 OA
ATOM     11  N   UNL     1      33.928  -9.280 -24.002  0.00  0.00    -0.325 N 
ATOM     12  C   UNL     1      34.195  -8.003 -23.515  0.00  0.00    +0.244 C 
ATOM     13  H   UNL     1      34.662  -9.923 -24.126  0.00  0.00    +0.145 HD
ATOM     14  H   UNL     1      33.005  -9.539 -24.224  0.00  0.00    +0.145 HD
ENDBRANCH   9  12
BRANCH   8  16
ATOM     15  O   UNL     1      31.590 -10.137 -22.161  0.00  0.00    -0.275 OA
ATOM     16  N   UNL     1      32.172  -8.048 -21.220  0.00  0.00    -0.279 N 
ATOM     17  C   UNL     1      31.874  -9.434 -21.196  0.00  0.00    +0.226 C 
ATOM     18  H   UNL     1      32.382  -7.645 -20.347  0.00  0.00    +0.155 HD
BRANCH  17  19
ATOM     19  C   UNL     1      31.940 -10.018 -19.808  0.00  0.00    +0.077 C 
ATOM     20  C   UNL     1      30.674 -10.476 -19.188  0.00  0.00    +0.010 C 
ATOM     21  C   UNL     1      31.695 -11.473 -19.654  0.00  0.00    +0.010 C 
ENDBRANCH  17  19
ENDBRANCH   8  16
TORSDOF 3
ENDMDL
