MODEL 1
REMARK VINA RESULT:      -8.0      0.000      0.000
REMARK  Name = 13711
REMARK  4 active torsions:
REMARK  status: ('A' for Active; 'I' for Inactive)
REMARK    1  A    between atoms: N1_2  and  C1*_15
REMARK    2  A    between atoms: C3*_12  and  O3*_16
REMARK    3  A    between atoms: C4*_14  and  C5*_18
REMARK    4  A    between atoms: C5*_18  and  O5*_19
REMARK                            x       y       z     vdW  Elec       q    Type
REMARK                         _______ _______ _______ _____ _____    ______ ____
ROOT
ATOM      1  O2  C   A   1      36.900 -20.044 -20.130  0.00  0.00    -0.193 OA
ATOM      2  N1  C   A   1      34.806 -19.396 -20.849  0.00  0.00    -0.180 N 
ATOM      3  N3  C   A   1      35.163 -21.361 -19.499  0.00  0.00    -0.306 NA
ATOM      4  N4  C   A   1      33.380 -22.707 -18.857  0.00  0.00    -0.332 N 
ATOM      5  C6  C   A   1      33.449 -19.671 -20.857  0.00  0.00    +0.083 C 
ATOM      6  C2  C   A   1      35.688 -20.260 -20.155  0.00  0.00    +0.275 C 
ATOM      7  C5  C   A   1      32.925 -20.725 -20.234  0.00  0.00    +0.065 C 
ATOM      8  C4  C   A   1      33.880 -21.608 -19.515  0.00  0.00    +0.193 C 
ATOM      9  H41 C   A   1      33.989 -23.311 -18.372  0.00  0.00    +0.145 HD
ATOM     10  H42 C   A   1      32.412 -22.892 -18.872  0.00  0.00    +0.145 HD
ENDROOT
BRANCH   2  15
ATOM     11  O4* C   A   1      35.093 -17.077 -20.727  0.00  0.00    -0.334 OA
ATOM     12  C3* C   A   1      34.539 -16.484 -22.955  0.00  0.00    +0.144 C 
ATOM     13  C2* C   A   1      34.529 -17.993 -22.852  0.00  0.00    +0.084 C 
ATOM     14  C4* C   A   1      34.462 -16.039 -21.501  0.00  0.00    +0.173 C 
ATOM     15  C1* C   A   1      35.276 -18.237 -21.551  0.00  0.00    +0.209 C 
BRANCH  12  16
ATOM     16  O3* C   A   1      35.769 -16.050 -23.531  0.00  0.00    -0.382 OA
ATOM     17  H3* C   A   1      35.896 -16.484 -24.389  0.00  0.00    +0.210 HD
ENDBRANCH  12  16
BRANCH  14  18
ATOM     18  C5* C   A   1      33.030 -15.888 -21.004  0.00  0.00    +0.169 C 
BRANCH  18  19
ATOM     19  O5* C   A   1      32.341 -14.991 -21.860  0.00  0.00    -0.379 OA
ATOM     20  H5* C   A   1      32.738 -15.020 -22.745  0.00  0.00    +0.211 HD
ENDBRANCH  18  19
ENDBRANCH  14  18
ENDBRANCH   2  15
TORSDOF 4
ENDMDL
MODEL 2
REMARK VINA RESULT:      -7.6      6.508      9.635
REMARK  Name = 13711
REMARK  4 active torsions:
REMARK  status: ('A' for Active; 'I' for Inactive)
REMARK    1  A    between atoms: N1_2  and  C1*_15
REMARK    2  A    between atoms: C3*_12  and  O3*_16
REMARK    3  A    between atoms: C4*_14  and  C5*_18
REMARK    4  A    between atoms: C5*_18  and  O5*_19
REMARK                            x       y       z     vdW  Elec       q    Type
REMARK                         _______ _______ _______ _____ _____    ______ ____
ROOT
ATOM      1  O2  C   A   1      37.434 -22.136 -16.764  0.00  0.00    -0.193 OA
ATOM      2  N1  C   A   1      36.089 -23.082 -15.146  0.00  0.00    -0.180 N 
ATOM      3  N3  C   A   1      35.303 -22.619 -17.378  0.00  0.00    -0.306 NA
ATOM      4  N4  C   A   1      33.118 -23.115 -18.000  0.00  0.00    -0.332 N 
ATOM      5  C6  C   A   1      34.836 -23.581 -14.829  0.00  0.00    +0.083 C 
ATOM      6  C2  C   A   1      36.332 -22.588 -16.451  0.00  0.00    +0.275 C 
ATOM      7  C5  C   A   1      33.834 -23.618 -15.705  0.00  0.00    +0.065 C 
ATOM      8  C4  C   A   1      34.126 -23.093 -17.065  0.00  0.00    +0.193 C 
ATOM      9  H41 C   A   1      33.282 -22.772 -18.909  0.00  0.00    +0.145 HD
ATOM     10  H42 C   A   1      32.232 -23.471 -17.761  0.00  0.00    +0.145 HD
ENDROOT
BRANCH   2  15
ATOM     11  O4* C   A   1      37.992 -24.188 -14.353  0.00  0.00    -0.334 OA
ATOM     12  C3* C   A   1      37.625 -23.999 -12.019  0.00  0.00    +0.144 C 
ATOM     13  C2* C   A   1      36.538 -23.225 -12.731  0.00  0.00    +0.084 C 
ATOM     14  C4* C   A   1      38.184 -24.897 -13.114  0.00  0.00    +0.173 C 
ATOM     15  C1* C   A   1      37.105 -23.082 -14.134  0.00  0.00    +0.209 C 
BRANCH  12  16
ATOM     16  O3* C   A   1      38.635 -23.101 -11.565  0.00  0.00    -0.382 OA
ATOM     17  H3* C   A   1      38.350 -22.686 -10.735  0.00  0.00    +0.210 HD
ENDBRANCH  12  16
BRANCH  14  18
ATOM     18  C5* C   A   1      37.453 -26.229 -13.217  0.00  0.00    +0.169 C 
BRANCH  18  19
ATOM     19  O5* C   A   1      36.869 -26.529 -11.959  0.00  0.00    -0.379 OA
ATOM     20  H5* C   A   1      37.324 -27.291 -11.566  0.00  0.00    +0.211 HD
ENDBRANCH  18  19
ENDBRANCH  14  18
ENDBRANCH   2  15
TORSDOF 4
ENDMDL
MODEL 3
REMARK VINA RESULT:      -7.4      6.750      9.829
REMARK  Name = 13711
REMARK  4 active torsions:
REMARK  status: ('A' for Active; 'I' for Inactive)
REMARK    1  A    between atoms: N1_2  and  C1*_15
REMARK    2  A    between atoms: C3*_12  and  O3*_16
REMARK    3  A    between atoms: C4*_14  and  C5*_18
REMARK    4  A    between atoms: C5*_18  and  O5*_19
REMARK                            x       y       z     vdW  Elec       q    Type
REMARK                         _______ _______ _______ _____ _____    ______ ____
ROOT
ATOM      1  O2  C   A   1      34.040 -23.986 -15.963  0.00  0.00    -0.193 OA
ATOM      2  N1  C   A   1      36.235 -23.650 -15.337  0.00  0.00    -0.180 N 
ATOM      3  N3  C   A   1      35.253 -22.570 -17.256  0.00  0.00    -0.306 NA
ATOM      4  N4  C   A   1      36.502 -21.121 -18.578  0.00  0.00    -0.332 N 
ATOM      5  C6  C   A   1      37.431 -23.007 -15.611  0.00  0.00    +0.083 C 
ATOM      6  C2  C   A   1      35.117 -23.429 -16.178  0.00  0.00    +0.275 C 
ATOM      7  C5  C   A   1      37.583 -22.179 -16.643  0.00  0.00    +0.065 C 
ATOM      8  C4  C   A   1      36.388 -21.969 -17.502  0.00  0.00    +0.193 C 
ATOM      9  H41 C   A   1      35.727 -20.963 -19.165  0.00  0.00    +0.145 HD
ATOM     10  H42 C   A   1      37.359 -20.670 -18.761  0.00  0.00    +0.145 HD
ENDROOT
BRANCH   2  15
ATOM     11  O4* C   A   1      35.711 -23.788 -13.062  0.00  0.00    -0.334 OA
ATOM     12  C3* C   A   1      37.428 -25.256 -12.340  0.00  0.00    +0.144 C 
ATOM     13  C2* C   A   1      37.519 -25.126 -13.844  0.00  0.00    +0.084 C 
ATOM     14  C4* C   A   1      36.576 -24.059 -11.942  0.00  0.00    +0.173 C 
ATOM     15  C1* C   A   1      36.170 -24.526 -14.203  0.00  0.00    +0.209 C 
BRANCH  12  16
ATOM     16  O3* C   A   1      36.752 -26.466 -12.003  0.00  0.00    -0.382 OA
ATOM     17  H3* C   A   1      35.796 -26.307 -11.983  0.00  0.00    +0.210 HD
ENDBRANCH  12  16
BRANCH  14  18
ATOM     18  C5* C   A   1      37.403 -22.807 -11.675  0.00  0.00    +0.169 C 
BRANCH  18  19
ATOM     19  O5* C   A   1      38.771 -23.171 -11.596  0.00  0.00    -0.379 OA
ATOM     20  H5* C   A   1      39.090 -23.420 -12.479  0.00  0.00    +0.211 HD
ENDBRANCH  18  19
ENDBRANCH  14  18
ENDBRANCH   2  15
TORSDOF 4
ENDMDL
MODEL 4
REMARK VINA RESULT:      -7.3      6.407      8.571
REMARK  Name = 13711
REMARK  4 active torsions:
REMARK  status: ('A' for Active; 'I' for Inactive)
REMARK    1  A    between atoms: N1_2  and  C1*_15
REMARK    2  A    between atoms: C3*_12  and  O3*_16
REMARK    3  A    between atoms: C4*_14  and  C5*_18
REMARK    4  A    between atoms: C5*_18  and  O5*_19
REMARK                            x       y       z     vdW  Elec       q    Type
REMARK                         _______ _______ _______ _____ _____    ______ ____
ROOT
ATOM      1  O2  C   A   1      34.133 -23.173 -18.398  0.00  0.00    -0.193 OA
ATOM      2  N1  C   A   1      33.843 -23.510 -16.134  0.00  0.00    -0.180 N 
ATOM      3  N3  C   A   1      32.030 -22.884 -17.595  0.00  0.00    -0.306 NA
ATOM      4  N4  C   A   1      29.878 -22.588 -16.766  0.00  0.00    -0.332 N 
ATOM      5  C6  C   A   1      32.958 -23.514 -15.069  0.00  0.00    +0.083 C 
ATOM      6  C2  C   A   1      33.371 -23.187 -17.430  0.00  0.00    +0.275 C 
ATOM      7  C5  C   A   1      31.665 -23.224 -15.206  0.00  0.00    +0.065 C 
ATOM      8  C4  C   A   1      31.206 -22.892 -16.580  0.00  0.00    +0.193 C 
ATOM      9  H41 C   A   1      29.545 -22.363 -17.665  0.00  0.00    +0.145 HD
ATOM     10  H42 C   A   1      29.260 -22.593 -15.999  0.00  0.00    +0.145 HD
ENDROOT
BRANCH   2  15
ATOM     11  O4* C   A   1      35.295 -24.779 -14.810  0.00  0.00    -0.334 OA
ATOM     12  C3* C   A   1      37.061 -23.222 -14.541  0.00  0.00    +0.144 C 
ATOM     13  C2* C   A   1      36.046 -22.624 -15.488  0.00  0.00    +0.084 C 
ATOM     14  C4* C   A   1      36.282 -24.338 -13.859  0.00  0.00    +0.173 C 
ATOM     15  C1* C   A   1      35.218 -23.834 -15.887  0.00  0.00    +0.209 C 
BRANCH  12  16
ATOM     16  O3* C   A   1      38.146 -23.772 -15.285  0.00  0.00    -0.382 OA
ATOM     17  H3* C   A   1      37.801 -24.257 -16.050  0.00  0.00    +0.210 HD
ENDBRANCH  12  16
BRANCH  14  18
ATOM     18  C5* C   A   1      35.551 -23.869 -12.607  0.00  0.00    +0.169 C 
BRANCH  18  19
ATOM     19  O5* C   A   1      34.742 -24.930 -12.127  0.00  0.00    -0.379 OA
ATOM     20  H5* C   A   1      35.290 -25.550 -11.619  0.00  0.00    +0.211 HD
ENDBRANCH  18  19
ENDBRANCH  14  18
ENDBRANCH   2  15
TORSDOF 4
ENDMDL
MODEL 5
REMARK VINA RESULT:      -7.3      6.693     10.012
REMARK  Name = 13711
REMARK  4 active torsions:
REMARK  status: ('A' for Active; 'I' for Inactive)
REMARK    1  A    between atoms: N1_2  and  C1*_15
REMARK    2  A    between atoms: C3*_12  and  O3*_16
REMARK    3  A    between atoms: C4*_14  and  C5*_18
REMARK    4  A    between atoms: C5*_18  and  O5*_19
REMARK                            x       y       z     vdW  Elec       q    Type
REMARK                         _______ _______ _______ _____ _____    ______ ____
ROOT
ATOM      1  O2  C   A   1      34.281 -24.050 -15.519  0.00  0.00    -0.193 OA
ATOM      2  N1  C   A   1      36.502 -23.461 -15.305  0.00  0.00    -0.180 N 
ATOM      3  N3  C   A   1      35.126 -22.694 -17.131  0.00  0.00    -0.306 NA
ATOM      4  N4  C   A   1      35.997 -21.305 -18.779  0.00  0.00    -0.332 N 
ATOM      5  C6  C   A   1      37.568 -22.755 -15.837  0.00  0.00    +0.083 C 
ATOM      6  C2  C   A   1      35.248 -23.432 -15.965  0.00  0.00    +0.275 C 
ATOM      7  C5  C   A   1      37.470 -22.041 -16.957  0.00  0.00    +0.065 C 
ATOM      8  C4  C   A   1      36.141 -22.032 -17.621  0.00  0.00    +0.193 C 
ATOM      9  H41 C   A   1      35.128 -21.282 -19.242  0.00  0.00    +0.145 HD
ATOM     10  H42 C   A   1      36.764 -20.809 -19.147  0.00  0.00    +0.145 HD
ENDROOT
BRANCH   2  15
ATOM     11  O4* C   A   1      38.002 -23.900 -13.565  0.00  0.00    -0.334 OA
ATOM     12  C3* C   A   1      37.624 -26.223 -13.283  0.00  0.00    +0.144 C 
ATOM     13  C2* C   A   1      36.642 -25.707 -14.309  0.00  0.00    +0.084 C 
ATOM     14  C4* C   A   1      38.680 -25.128 -13.234  0.00  0.00    +0.173 C 
ATOM     15  C1* C   A   1      36.704 -24.204 -14.095  0.00  0.00    +0.209 C 
BRANCH  12  16
ATOM     16  O3* C   A   1      36.981 -26.335 -12.015  0.00  0.00    -0.382 OA
ATOM     17  H3* C   A   1      36.633 -27.233 -11.907  0.00  0.00    +0.210 HD
ENDBRANCH  12  16
BRANCH  14  18
ATOM     18  C5* C   A   1      39.796 -25.336 -14.249  0.00  0.00    +0.169 C 
BRANCH  18  19
ATOM     19  O5* C   A   1      39.896 -26.720 -14.541  0.00  0.00    -0.379 OA
ATOM     20  H5* C   A   1      39.035 -27.049 -14.845  0.00  0.00    +0.211 HD
ENDBRANCH  18  19
ENDBRANCH  14  18
ENDBRANCH   2  15
TORSDOF 4
ENDMDL
MODEL 6
REMARK VINA RESULT:      -7.2      7.729      9.383
REMARK  Name = 13711
REMARK  4 active torsions:
REMARK  status: ('A' for Active; 'I' for Inactive)
REMARK    1  A    between atoms: N1_2  and  C1*_15
REMARK    2  A    between atoms: C3*_12  and  O3*_16
REMARK    3  A    between atoms: C4*_14  and  C5*_18
REMARK    4  A    between atoms: C5*_18  and  O5*_19
REMARK                            x       y       z     vdW  Elec       q    Type
REMARK                         _______ _______ _______ _____ _____    ______ ____
ROOT
ATOM      1  O2  C   A   1      32.681 -22.983 -16.893  0.00  0.00    -0.193 OA
ATOM      2  N1  C   A   1      33.320 -23.936 -14.891  0.00  0.00    -0.180 N 
ATOM      3  N3  C   A   1      31.056 -24.046 -15.717  0.00  0.00    -0.306 NA
ATOM      4  N4  C   A   1      29.397 -25.134 -14.506  0.00  0.00    -0.332 N 
ATOM      5  C6  C   A   1      32.926 -24.654 -13.774  0.00  0.00    +0.083 C 
ATOM      6  C2  C   A   1      32.364 -23.622 -15.889  0.00  0.00    +0.275 C 
ATOM      7  C5  C   A   1      31.675 -25.070 -13.590  0.00  0.00    +0.065 C 
ATOM      8  C4  C   A   1      30.700 -24.723 -14.657  0.00  0.00    +0.193 C 
ATOM      9  H41 C   A   1      28.729 -24.918 -15.197  0.00  0.00    +0.145 HD
ATOM     10  H42 C   A   1      29.131 -25.644 -13.706  0.00  0.00    +0.145 HD
ENDROOT
BRANCH   2  15
ATOM     11  O4* C   A   1      35.369 -24.398 -15.920  0.00  0.00    -0.334 OA
ATOM     12  C3* C   A   1      36.836 -23.965 -14.110  0.00  0.00    +0.144 C 
ATOM     13  C2* C   A   1      35.433 -23.604 -13.677  0.00  0.00    +0.084 C 
ATOM     14  C4* C   A   1      36.605 -24.844 -15.331  0.00  0.00    +0.173 C 
ATOM     15  C1* C   A   1      34.691 -23.531 -15.000  0.00  0.00    +0.209 C 
BRANCH  12  16
ATOM     16  O3* C   A   1      37.541 -22.785 -14.488  0.00  0.00    -0.382 OA
ATOM     17  H3* C   A   1      38.061 -22.961 -15.287  0.00  0.00    +0.210 HD
ENDBRANCH  12  16
BRANCH  14  18
ATOM     18  C5* C   A   1      36.450 -26.318 -14.978  0.00  0.00    +0.169 C 
BRANCH  18  19
ATOM     19  O5* C   A   1      36.777 -27.097 -16.118  0.00  0.00    -0.379 OA
ATOM     20  H5* C   A   1      35.972 -27.515 -16.465  0.00  0.00    +0.211 HD
ENDBRANCH  18  19
ENDBRANCH  14  18
ENDBRANCH   2  15
TORSDOF 4
ENDMDL
MODEL 7
REMARK VINA RESULT:      -7.1      6.653      8.891
REMARK  Name = 13711
REMARK  4 active torsions:
REMARK  status: ('A' for Active; 'I' for Inactive)
REMARK    1  A    between atoms: N1_2  and  C1*_15
REMARK    2  A    between atoms: C3*_12  and  O3*_16
REMARK    3  A    between atoms: C4*_14  and  C5*_18
REMARK    4  A    between atoms: C5*_18  and  O5*_19
REMARK                            x       y       z     vdW  Elec       q    Type
REMARK                         _______ _______ _______ _____ _____    ______ ____
ROOT
ATOM      1  O2  C   A   1      33.959 -23.254 -18.220  0.00  0.00    -0.193 OA
ATOM      2  N1  C   A   1      34.212 -23.546 -15.945  0.00  0.00    -0.180 N 
ATOM      3  N3  C   A   1      32.074 -23.093 -16.965  0.00  0.00    -0.306 NA
ATOM      4  N4  C   A   1      30.148 -22.928 -15.674  0.00  0.00    -0.332 N 
ATOM      5  C6  C   A   1      33.592 -23.583 -14.708  0.00  0.00    +0.083 C 
ATOM      6  C2  C   A   1      33.438 -23.295 -17.105  0.00  0.00    +0.275 C 
ATOM      7  C5  C   A   1      32.283 -23.390 -14.552  0.00  0.00    +0.065 C 
ATOM      8  C4  C   A   1      31.503 -23.131 -15.790  0.00  0.00    +0.193 C 
ATOM      9  H41 C   A   1      29.605 -22.753 -16.478  0.00  0.00    +0.145 HD
ATOM     10  H42 C   A   1      29.720 -22.956 -14.788  0.00  0.00    +0.145 HD
ENDROOT
BRANCH   2  15
ATOM     11  O4* C   A   1      35.929 -25.074 -15.511  0.00  0.00    -0.334 OA
ATOM     12  C3* C   A   1      37.600 -23.590 -14.721  0.00  0.00    +0.144 C 
ATOM     13  C2* C   A   1      36.417 -22.768 -15.178  0.00  0.00    +0.084 C 
ATOM     14  C4* C   A   1      37.011 -24.985 -14.564  0.00  0.00    +0.173 C 
ATOM     15  C1* C   A   1      35.628 -23.764 -16.011  0.00  0.00    +0.209 C 
BRANCH  12  16
ATOM     16  O3* C   A   1      38.601 -23.597 -15.737  0.00  0.00    -0.382 OA
ATOM     17  H3* C   A   1      38.264 -23.145 -16.526  0.00  0.00    +0.210 HD
ENDBRANCH  12  16
BRANCH  14  18
ATOM     18  C5* C   A   1      36.439 -25.233 -13.174  0.00  0.00    +0.169 C 
BRANCH  18  19
ATOM     19  O5* C   A   1      36.771 -26.552 -12.772  0.00  0.00    -0.379 OA
ATOM     20  H5* C   A   1      36.054 -26.913 -12.225  0.00  0.00    +0.211 HD
ENDBRANCH  18  19
ENDBRANCH  14  18
ENDBRANCH   2  15
TORSDOF 4
ENDMDL
MODEL 8
REMARK VINA RESULT:      -7.1      3.273      5.705
REMARK  Name = 13711
REMARK  4 active torsions:
REMARK  status: ('A' for Active; 'I' for Inactive)
REMARK    1  A    between atoms: N1_2  and  C1*_15
REMARK    2  A    between atoms: C3*_12  and  O3*_16
REMARK    3  A    between atoms: C4*_14  and  C5*_18
REMARK    4  A    between atoms: C5*_18  and  O5*_19
REMARK                            x       y       z     vdW  Elec       q    Type
REMARK                         _______ _______ _______ _____ _____    ______ ____
ROOT
ATOM      1  O2  C   A   1      34.695 -18.339 -25.642  0.00  0.00    -0.193 OA
ATOM      2  N1  C   A   1      34.676 -17.137 -23.673  0.00  0.00    -0.180 N 
ATOM      3  N3  C   A   1      33.750 -16.277 -25.727  0.00  0.00    -0.306 NA
ATOM      4  N4  C   A   1      32.785 -14.164 -25.807  0.00  0.00    -0.332 N 
ATOM      5  C6  C   A   1      34.316 -15.959 -23.040  0.00  0.00    +0.083 C 
ATOM      6  C2  C   A   1      34.387 -17.304 -25.050  0.00  0.00    +0.275 C 
ATOM      7  C5  C   A   1      33.704 -14.960 -23.673  0.00  0.00    +0.065 C 
ATOM      8  C4  C   A   1      33.417 -15.171 -25.116  0.00  0.00    +0.193 C 
ATOM      9  H41 C   A   1      32.582 -14.275 -26.764  0.00  0.00    +0.145 HD
ATOM     10  H42 C   A   1      32.536 -13.330 -25.344  0.00  0.00    +0.145 HD
ENDROOT
BRANCH   2  15
ATOM     11  O4* C   A   1      34.489 -19.314 -22.836  0.00  0.00    -0.334 OA
ATOM     12  C3* C   A   1      35.501 -19.018 -20.713  0.00  0.00    +0.144 C 
ATOM     13  C2* C   A   1      35.629 -17.722 -21.481  0.00  0.00    +0.084 C 
ATOM     14  C4* C   A   1      34.409 -19.761 -21.469  0.00  0.00    +0.173 C 
ATOM     15  C1* C   A   1      35.333 -18.156 -22.907  0.00  0.00    +0.209 C 
BRANCH  12  16
ATOM     16  O3* C   A   1      36.726 -19.745 -20.791  0.00  0.00    -0.382 OA
ATOM     17  H3* C   A   1      36.790 -20.351 -20.036  0.00  0.00    +0.210 HD
ENDBRANCH  12  16
BRANCH  14  18
ATOM     18  C5* C   A   1      33.011 -19.443 -20.953  0.00  0.00    +0.169 C 
BRANCH  18  19
ATOM     19  O5* C   A   1      32.643 -20.425 -19.997  0.00  0.00    -0.379 OA
ATOM     20  H5* C   A   1      31.975 -20.056 -19.397  0.00  0.00    +0.211 HD
ENDBRANCH  18  19
ENDBRANCH  14  18
ENDBRANCH   2  15
TORSDOF 4
ENDMDL
MODEL 9
REMARK VINA RESULT:      -7.0      7.435      9.217
REMARK  Name = 13711
REMARK  4 active torsions:
REMARK  status: ('A' for Active; 'I' for Inactive)
REMARK    1  A    between atoms: N1_2  and  C1*_15
REMARK    2  A    between atoms: C3*_12  and  O3*_16
REMARK    3  A    between atoms: C4*_14  and  C5*_18
REMARK    4  A    between atoms: C5*_18  and  O5*_19
REMARK                            x       y       z     vdW  Elec       q    Type
REMARK                         _______ _______ _______ _____ _____    ______ ____
ROOT
ATOM      1  O2  C   A   1      32.340 -24.645 -13.133  0.00  0.00    -0.193 OA
ATOM      2  N1  C   A   1      33.779 -24.095 -14.850  0.00  0.00    -0.180 N 
ATOM      3  N3  C   A   1      31.401 -23.711 -14.977  0.00  0.00    -0.306 NA
ATOM      4  N4  C   A   1      30.447 -22.756 -16.869  0.00  0.00    -0.332 N 
ATOM      5  C6  C   A   1      33.913 -23.561 -16.121  0.00  0.00    +0.083 C 
ATOM      6  C2  C   A   1      32.493 -24.174 -14.260  0.00  0.00    +0.275 C 
ATOM      7  C5  C   A   1      32.877 -23.112 -16.826  0.00  0.00    +0.065 C 
ATOM      8  C4  C   A   1      31.544 -23.209 -16.175  0.00  0.00    +0.193 C 
ATOM      9  H41 C   A   1      29.551 -22.808 -16.463  0.00  0.00    +0.145 HD
ATOM     10  H42 C   A   1      30.557 -22.379 -17.772  0.00  0.00    +0.145 HD
ENDROOT
BRANCH   2  15
ATOM     11  O4* C   A   1      35.799 -23.433 -13.875  0.00  0.00    -0.334 OA
ATOM     12  C3* C   A   1      37.185 -25.231 -14.558  0.00  0.00    +0.144 C 
ATOM     13  C2* C   A   1      35.771 -25.532 -14.998  0.00  0.00    +0.084 C 
ATOM     14  C4* C   A   1      37.149 -23.735 -14.279  0.00  0.00    +0.173 C 
ATOM     15  C1* C   A   1      34.955 -24.554 -14.170  0.00  0.00    +0.209 C 
BRANCH  12  16
ATOM     16  O3* C   A   1      37.476 -25.941 -13.357  0.00  0.00    -0.382 OA
ATOM     17  H3* C   A   1      37.287 -25.375 -12.592  0.00  0.00    +0.210 HD
ENDBRANCH  12  16
BRANCH  14  18
ATOM     18  C5* C   A   1      37.468 -22.895 -15.510  0.00  0.00    +0.169 C 
BRANCH  18  19
ATOM     19  O5* C   A   1      38.705 -23.331 -16.052  0.00  0.00    -0.379 OA
ATOM     20  H5* C   A   1      38.676 -23.260 -17.020  0.00  0.00    +0.211 HD
ENDBRANCH  18  19
ENDBRANCH  14  18
ENDBRANCH   2  15
TORSDOF 4
ENDMDL
