MODEL 1
REMARK VINA RESULT:      -7.3      0.000      0.000
REMARK  Name = 6038
REMARK  0 active torsions:
REMARK  status: ('A' for Active; 'I' for Inactive)
REMARK                            x       y       z     vdW  Elec       q    Type
REMARK                         _______ _______ _______ _____ _____    ______ ____
ROOT
ATOM      1  O   UNL     1      32.580 -22.680 -18.423  0.00  0.00    -0.270 OA
ATOM      2  N   UNL     1      33.158 -20.943 -19.820  0.00  0.00    -0.280 N 
ATOM      3  C   UNL     1      34.149 -20.155 -20.432  0.00  0.00    +0.050 C 
ATOM      4  C   UNL     1      35.498 -20.424 -20.174  0.00  0.00    +0.014 C 
ATOM      5  C   UNL     1      35.840 -21.521 -19.271  0.00  0.00    +0.006 C 
ATOM      6  C   UNL     1      33.782 -19.115 -21.288  0.00  0.00    +0.015 C 
ATOM      7  C   UNL     1      36.484 -19.641 -20.782  0.00  0.00    +0.001 C 
ATOM      8  C   UNL     1      33.441 -21.988 -18.962  0.00  0.00    +0.250 C 
ATOM      9  C   UNL     1      34.881 -22.258 -18.700  0.00  0.00    +0.058 C 
ATOM     10  C   UNL     1      34.771 -18.338 -21.891  0.00  0.00    +0.001 C 
ATOM     11  C   UNL     1      36.118 -18.601 -21.639  0.00  0.00    +0.000 C 
ATOM     12  H   UNL     1      32.214 -20.739 -20.012  0.00  0.00    +0.155 HD
ENDROOT
TORSDOF 0
ENDMDL
MODEL 2
REMARK VINA RESULT:      -7.2      1.223      2.166
REMARK  Name = 6038
REMARK  0 active torsions:
REMARK  status: ('A' for Active; 'I' for Inactive)
REMARK                            x       y       z     vdW  Elec       q    Type
REMARK                         _______ _______ _______ _____ _____    ______ ____
ROOT
ATOM      1  O   UNL     1      34.969 -22.874 -18.153  0.00  0.00    -0.270 OA
ATOM      2  N   UNL     1      35.827 -21.225 -19.512  0.00  0.00    -0.280 N 
ATOM      3  C   UNL     1      35.623 -20.168 -20.416  0.00  0.00    +0.050 C 
ATOM      4  C   UNL     1      34.318 -19.812 -20.775  0.00  0.00    +0.014 C 
ATOM      5  C   UNL     1      33.199 -20.554 -20.197  0.00  0.00    +0.006 C 
ATOM      6  C   UNL     1      36.718 -19.483 -20.947  0.00  0.00    +0.015 C 
ATOM      7  C   UNL     1      34.113 -18.762 -21.673  0.00  0.00    +0.001 C 
ATOM      8  C   UNL     1      34.798 -21.949 -18.944  0.00  0.00    +0.250 C 
ATOM      9  C   UNL     1      33.417 -21.557 -19.338  0.00  0.00    +0.058 C 
ATOM     10  C   UNL     1      36.507 -18.436 -21.843  0.00  0.00    +0.001 C 
ATOM     11  C   UNL     1      35.208 -18.076 -22.205  0.00  0.00    +0.000 C 
ATOM     12  H   UNL     1      36.752 -21.462 -19.271  0.00  0.00    +0.155 HD
ENDROOT
TORSDOF 0
ENDMDL
MODEL 3
REMARK VINA RESULT:      -7.2      2.392      3.960
REMARK  Name = 6038
REMARK  0 active torsions:
REMARK  status: ('A' for Active; 'I' for Inactive)
REMARK                            x       y       z     vdW  Elec       q    Type
REMARK                         _______ _______ _______ _____ _____    ______ ____
ROOT
ATOM      1  O   UNL     1      34.796 -17.190 -22.724  0.00  0.00    -0.270 OA
ATOM      2  N   UNL     1      34.002 -18.927 -21.438  0.00  0.00    -0.280 N 
ATOM      3  C   UNL     1      34.247 -20.020 -20.588  0.00  0.00    +0.050 C 
ATOM      4  C   UNL     1      35.566 -20.354 -20.261  0.00  0.00    +0.014 C 
ATOM      5  C   UNL     1      36.656 -19.554 -20.815  0.00  0.00    +0.006 C 
ATOM      6  C   UNL     1      33.178 -20.761 -20.079  0.00  0.00    +0.015 C 
ATOM      7  C   UNL     1      35.812 -21.441 -19.416  0.00  0.00    +0.001 C 
ATOM      8  C   UNL     1      35.003 -18.147 -21.981  0.00  0.00    +0.250 C 
ATOM      9  C   UNL     1      36.399 -18.518 -21.621  0.00  0.00    +0.058 C 
ATOM     10  C   UNL     1      33.431 -21.843 -19.236  0.00  0.00    +0.001 C 
ATOM     11  C   UNL     1      34.744 -22.182 -18.906  0.00  0.00    +0.000 C 
ATOM     12  H   UNL     1      33.067 -18.707 -21.658  0.00  0.00    +0.155 HD
ENDROOT
TORSDOF 0
ENDMDL
MODEL 4
REMARK VINA RESULT:      -7.1      5.580      6.665
REMARK  Name = 6038
REMARK  0 active torsions:
REMARK  status: ('A' for Active; 'I' for Inactive)
REMARK                            x       y       z     vdW  Elec       q    Type
REMARK                         _______ _______ _______ _____ _____    ______ ____
ROOT
ATOM      1  O   UNL     1      33.414 -15.588 -26.702  0.00  0.00    -0.270 OA
ATOM      2  N   UNL     1      33.391 -14.988 -24.479  0.00  0.00    -0.280 N 
ATOM      3  C   UNL     1      33.767 -15.243 -23.148  0.00  0.00    +0.050 C 
ATOM      4  C   UNL     1      34.533 -16.378 -22.856  0.00  0.00    +0.014 C 
ATOM      5  C   UNL     1      34.922 -17.268 -23.946  0.00  0.00    +0.006 C 
ATOM      6  C   UNL     1      33.376 -14.367 -22.133  0.00  0.00    +0.015 C 
ATOM      7  C   UNL     1      34.907 -16.633 -21.533  0.00  0.00    +0.001 C 
ATOM      8  C   UNL     1      33.739 -15.805 -25.537  0.00  0.00    +0.250 C 
ATOM      9  C   UNL     1      34.553 -17.006 -25.205  0.00  0.00    +0.058 C 
ATOM     10  C   UNL     1      33.753 -14.628 -20.816  0.00  0.00    +0.001 C 
ATOM     11  C   UNL     1      34.516 -15.757 -20.517  0.00  0.00    +0.000 C 
ATOM     12  H   UNL     1      32.852 -14.186 -24.667  0.00  0.00    +0.155 HD
ENDROOT
TORSDOF 0
ENDMDL
MODEL 5
REMARK VINA RESULT:      -7.0      4.846      6.524
REMARK  Name = 6038
REMARK  0 active torsions:
REMARK  status: ('A' for Active; 'I' for Inactive)
REMARK                            x       y       z     vdW  Elec       q    Type
REMARK                         _______ _______ _______ _____ _____    ______ ____
ROOT
ATOM      1  O   UNL     1      33.466 -15.433 -26.651  0.00  0.00    -0.270 OA
ATOM      2  N   UNL     1      34.376 -16.914 -25.142  0.00  0.00    -0.280 N 
ATOM      3  C   UNL     1      34.731 -17.237 -23.820  0.00  0.00    +0.050 C 
ATOM      4  C   UNL     1      34.475 -16.319 -22.795  0.00  0.00    +0.014 C 
ATOM      5  C   UNL     1      33.844 -15.044 -23.130  0.00  0.00    +0.006 C 
ATOM      6  C   UNL     1      35.333 -18.466 -23.540  0.00  0.00    +0.015 C 
ATOM      7  C   UNL     1      34.828 -16.638 -21.481  0.00  0.00    +0.001 C 
ATOM      8  C   UNL     1      33.778 -15.722 -25.498  0.00  0.00    +0.250 C 
ATOM      9  C   UNL     1      33.515 -14.758 -24.395  0.00  0.00    +0.058 C 
ATOM     10  C   UNL     1      35.681 -18.778 -22.227  0.00  0.00    +0.001 C 
ATOM     11  C   UNL     1      35.430 -17.867 -21.200  0.00  0.00    +0.000 C 
ATOM     12  H   UNL     1      34.564 -17.572 -25.850  0.00  0.00    +0.155 HD
ENDROOT
TORSDOF 0
ENDMDL
MODEL 6
REMARK VINA RESULT:      -7.0      2.469      4.401
REMARK  Name = 6038
REMARK  0 active torsions:
REMARK  status: ('A' for Active; 'I' for Inactive)
REMARK                            x       y       z     vdW  Elec       q    Type
REMARK                         _______ _______ _______ _____ _____    ______ ____
ROOT
ATOM      1  O   UNL     1      36.395 -17.954 -22.172  0.00  0.00    -0.270 OA
ATOM      2  N   UNL     1      36.223 -19.653 -20.627  0.00  0.00    -0.280 N 
ATOM      3  C   UNL     1      35.433 -20.577 -19.921  0.00  0.00    +0.050 C 
ATOM      4  C   UNL     1      34.053 -20.619 -20.151  0.00  0.00    +0.014 C 
ATOM      5  C   UNL     1      33.470 -19.697 -21.122  0.00  0.00    +0.006 C 
ATOM      6  C   UNL     1      36.028 -21.443 -19.001  0.00  0.00    +0.015 C 
ATOM      7  C   UNL     1      33.267 -21.538 -19.450  0.00  0.00    +0.001 C 
ATOM      8  C   UNL     1      35.710 -18.765 -21.552  0.00  0.00    +0.250 C 
ATOM      9  C   UNL     1      34.241 -18.825 -21.783  0.00  0.00    +0.058 C 
ATOM     10  C   UNL     1      35.237 -22.357 -18.305  0.00  0.00    +0.001 C 
ATOM     11  C   UNL     1      33.861 -22.404 -18.529  0.00  0.00    +0.000 C 
ATOM     12  H   UNL     1      37.192 -19.636 -20.452  0.00  0.00    +0.155 HD
ENDROOT
TORSDOF 0
ENDMDL
MODEL 7
REMARK VINA RESULT:      -7.0      4.588      5.938
REMARK  Name = 6038
REMARK  0 active torsions:
REMARK  status: ('A' for Active; 'I' for Inactive)
REMARK                            x       y       z     vdW  Elec       q    Type
REMARK                         _______ _______ _______ _____ _____    ______ ____
ROOT
ATOM      1  O   UNL     1      34.139 -13.287 -23.278  0.00  0.00    -0.270 OA
ATOM      2  N   UNL     1      34.445 -15.535 -23.674  0.00  0.00    -0.280 N 
ATOM      3  C   UNL     1      34.631 -16.840 -23.184  0.00  0.00    +0.050 C 
ATOM      4  C   UNL     1      34.678 -17.056 -21.802  0.00  0.00    +0.014 C 
ATOM      5  C   UNL     1      34.531 -15.914 -20.903  0.00  0.00    +0.006 C 
ATOM      6  C   UNL     1      34.767 -17.906 -24.077  0.00  0.00    +0.015 C 
ATOM      7  C   UNL     1      34.863 -18.353 -21.315  0.00  0.00    +0.001 C 
ATOM      8  C   UNL     1      34.302 -14.431 -22.857  0.00  0.00    +0.250 C 
ATOM      9  C   UNL     1      34.355 -14.681 -21.391  0.00  0.00    +0.058 C 
ATOM     10  C   UNL     1      34.952 -19.197 -23.583  0.00  0.00    +0.001 C 
ATOM     11  C   UNL     1      34.999 -19.420 -22.206  0.00  0.00    +0.000 C 
ATOM     12  H   UNL     1      34.416 -15.401 -24.649  0.00  0.00    +0.155 HD
ENDROOT
TORSDOF 0
ENDMDL
MODEL 8
REMARK VINA RESULT:      -6.9      4.320      5.858
REMARK  Name = 6038
REMARK  0 active torsions:
REMARK  status: ('A' for Active; 'I' for Inactive)
REMARK                            x       y       z     vdW  Elec       q    Type
REMARK                         _______ _______ _______ _____ _____    ______ ____
ROOT
ATOM      1  O   UNL     1      34.856 -14.784 -20.143  0.00  0.00    -0.270 OA
ATOM      2  N   UNL     1      34.909 -16.697 -21.424  0.00  0.00    -0.280 N 
ATOM      3  C   UNL     1      34.781 -17.324 -22.676  0.00  0.00    +0.050 C 
ATOM      4  C   UNL     1      34.472 -16.554 -23.803  0.00  0.00    +0.014 C 
ATOM      5  C   UNL     1      34.291 -15.113 -23.645  0.00  0.00    +0.006 C 
ATOM      6  C   UNL     1      34.962 -18.705 -22.786  0.00  0.00    +0.015 C 
ATOM      7  C   UNL     1      34.345 -17.176 -25.048  0.00  0.00    +0.001 C 
ATOM      8  C   UNL     1      34.745 -15.339 -21.235  0.00  0.00    +0.250 C 
ATOM      9  C   UNL     1      34.417 -14.537 -22.444  0.00  0.00    +0.058 C 
ATOM     10  C   UNL     1      34.833 -19.319 -24.031  0.00  0.00    +0.001 C 
ATOM     11  C   UNL     1      34.526 -18.557 -25.159  0.00  0.00    +0.000 C 
ATOM     12  H   UNL     1      35.126 -17.255 -20.642  0.00  0.00    +0.155 HD
ENDROOT
TORSDOF 0
ENDMDL
MODEL 9
REMARK VINA RESULT:      -6.9      3.137      4.654
REMARK  Name = 6038
REMARK  0 active torsions:
REMARK  status: ('A' for Active; 'I' for Inactive)
REMARK                            x       y       z     vdW  Elec       q    Type
REMARK                         _______ _______ _______ _____ _____    ______ ____
ROOT
ATOM      1  O   UNL     1      35.844 -19.692 -20.358  0.00  0.00    -0.270 OA
ATOM      2  N   UNL     1      35.223 -17.510 -20.752  0.00  0.00    -0.280 N 
ATOM      3  C   UNL     1      34.855 -16.496 -21.654  0.00  0.00    +0.050 C 
ATOM      4  C   UNL     1      34.779 -16.786 -23.021  0.00  0.00    +0.014 C 
ATOM      5  C   UNL     1      35.087 -18.141 -23.475  0.00  0.00    +0.006 C 
ATOM      6  C   UNL     1      34.569 -15.213 -21.182  0.00  0.00    +0.015 C 
ATOM      7  C   UNL     1      34.413 -15.779 -23.919  0.00  0.00    +0.001 C 
ATOM      8  C   UNL     1      35.521 -18.801 -21.141  0.00  0.00    +0.250 C 
ATOM      9  C   UNL     1      35.435 -19.090 -22.599  0.00  0.00    +0.058 C 
ATOM     10  C   UNL     1      34.204 -14.214 -22.083  0.00  0.00    +0.001 C 
ATOM     11  C   UNL     1      34.127 -14.496 -23.448  0.00  0.00    +0.000 C 
ATOM     12  H   UNL     1      35.272 -17.288 -19.794  0.00  0.00    +0.155 HD
ENDROOT
TORSDOF 0
ENDMDL
