MODEL 1
REMARK VINA RESULT:      -8.8      0.000      0.000
REMARK  Name = 439176
REMARK  5 active torsions:
REMARK  status: ('A' for Active; 'I' for Inactive)
REMARK    1  A    between atoms: N_1  and  C_13
REMARK    2  A    between atoms: C_11  and  O_15
REMARK    3  A    between atoms: C_12  and  O_17
REMARK    4  A    between atoms: C_14  and  C_19
REMARK    5  A    between atoms: C_19  and  S_20
REMARK                            x       y       z     vdW  Elec       q    Type
REMARK                         _______ _______ _______ _____ _____    ______ ____
ROOT
ATOM      1  N   UNL     1      34.331 -19.555 -20.870  0.00  0.00    -0.247 N 
ATOM      2  N   UNL     1      32.745 -20.973 -20.201  0.00  0.00    -0.242 NA
ATOM      3  N   UNL     1      36.237 -20.471 -19.675  0.00  0.00    -0.228 NA
ATOM      4  N   UNL     1      35.602 -22.421 -18.352  0.00  0.00    -0.229 NA
ATOM      5  C   UNL     1      34.945 -20.444 -20.032  0.00  0.00    +0.152 C 
ATOM      6  C   UNL     1      33.010 -19.915 -20.939  0.00  0.00    +0.223 C 
ATOM      7  C   UNL     1      33.944 -21.314 -19.629  0.00  0.00    +0.140 C 
ATOM      8  C   UNL     1      34.312 -22.333 -18.756  0.00  0.00    +0.143 C 
ATOM      9  C   UNL     1      36.472 -21.498 -18.830  0.00  0.00    +0.253 C 
ATOM     10  N   UNL     1      33.362 -23.262 -18.296  0.00  0.00    -0.342 N 
ATOM     11  H   UNL     1      33.634 -23.979 -17.679  0.00  0.00    +0.144 HD
ATOM     12  H   UNL     1      32.426 -23.196 -18.592  0.00  0.00    +0.144 HD
ENDROOT
BRANCH   1  16
ATOM     13  O   UNL     1      35.047 -17.301 -20.678  0.00  0.00    -0.335 OA
ATOM     14  C   UNL     1      34.180 -17.950 -22.784  0.00  0.00    +0.187 C 
ATOM     15  C   UNL     1      34.645 -16.510 -22.887  0.00  0.00    +0.169 C 
ATOM     16  C   UNL     1      34.954 -18.431 -21.567  0.00  0.00    +0.225 C 
ATOM     17  C   UNL     1      34.750 -16.097 -21.422  0.00  0.00    +0.157 C 
BRANCH  14  18
ATOM     18  O   UNL     1      34.480 -18.712 -23.935  0.00  0.00    -0.378 OA
ATOM     19  H   UNL     1      34.630 -19.636 -23.681  0.00  0.00    +0.211 HD
ENDBRANCH  14  18
BRANCH  15  20
ATOM     20  O   UNL     1      35.946 -16.471 -23.472  0.00  0.00    -0.379 OA
ATOM     21  H   UNL     1      35.895 -16.061 -24.349  0.00  0.00    +0.211 HD
ENDBRANCH  15  20
BRANCH  17  22
ATOM     22  C   UNL     1      33.458 -15.504 -20.878  0.00  0.00    +0.090 C 
BRANCH  22  23
ATOM     23  S   UNL     1      32.695 -14.416 -22.109  0.00  0.00    -0.137 S 
ATOM     24  C   UNL     1      32.198 -13.073 -21.006  0.00  0.00    +0.069 C 
ENDBRANCH  22  23
ENDBRANCH  17  22
ENDBRANCH   1  16
TORSDOF 5
ENDMDL
MODEL 2
REMARK VINA RESULT:      -8.2      7.472      8.899
REMARK  Name = 439176
REMARK  5 active torsions:
REMARK  status: ('A' for Active; 'I' for Inactive)
REMARK    1  A    between atoms: N_1  and  C_13
REMARK    2  A    between atoms: C_11  and  O_15
REMARK    3  A    between atoms: C_12  and  O_17
REMARK    4  A    between atoms: C_14  and  C_19
REMARK    5  A    between atoms: C_19  and  S_20
REMARK                            x       y       z     vdW  Elec       q    Type
REMARK                         _______ _______ _______ _____ _____    ______ ____
ROOT
ATOM      1  N   UNL     1      33.783 -23.694 -15.331  0.00  0.00    -0.247 N 
ATOM      2  N   UNL     1      35.135 -23.039 -16.979  0.00  0.00    -0.242 NA
ATOM      3  N   UNL     1      35.376 -23.781 -13.498  0.00  0.00    -0.228 NA
ATOM      4  N   UNL     1      37.614 -23.149 -14.237  0.00  0.00    -0.229 NA
ATOM      5  C   UNL     1      35.025 -23.563 -14.774  0.00  0.00    +0.152 C 
ATOM      6  C   UNL     1      33.901 -23.368 -16.657  0.00  0.00    +0.223 C 
ATOM      7  C   UNL     1      35.848 -23.156 -15.813  0.00  0.00    +0.140 C 
ATOM      8  C   UNL     1      37.189 -22.947 -15.507  0.00  0.00    +0.143 C 
ATOM      9  C   UNL     1      36.694 -23.547 -13.324  0.00  0.00    +0.253 C 
ATOM     10  N   UNL     1      38.095 -22.532 -16.498  0.00  0.00    -0.342 N 
ATOM     11  H   UNL     1      39.041 -22.387 -16.271  0.00  0.00    +0.144 HD
ATOM     12  H   UNL     1      37.782 -22.386 -17.420  0.00  0.00    +0.144 HD
ENDROOT
BRANCH   1  16
ATOM     13  O   UNL     1      31.576 -24.516 -15.624  0.00  0.00    -0.335 OA
ATOM     14  C   UNL     1      31.901 -22.998 -13.835  0.00  0.00    +0.187 C 
ATOM     15  C   UNL     1      30.457 -23.457 -13.809  0.00  0.00    +0.169 C 
ATOM     16  C   UNL     1      32.555 -24.102 -14.651  0.00  0.00    +0.225 C 
ATOM     17  C   UNL     1      30.276 -24.040 -15.207  0.00  0.00    +0.157 C 
BRANCH  14  18
ATOM     18  O   UNL     1      32.470 -22.886 -12.547  0.00  0.00    -0.378 OA
ATOM     19  H   UNL     1      32.966 -23.694 -12.341  0.00  0.00    +0.211 HD
ENDBRANCH  14  18
BRANCH  15  20
ATOM     20  O   UNL     1      30.308 -24.504 -12.850  0.00  0.00    -0.379 OA
ATOM     21  H   UNL     1      31.070 -24.505 -12.250  0.00  0.00    +0.211 HD
ENDBRANCH  15  20
BRANCH  17  22
ATOM     22  C   UNL     1      29.794 -23.012 -16.221  0.00  0.00    +0.090 C 
BRANCH  22  23
ATOM     23  S   UNL     1      28.157 -23.465 -16.851  0.00  0.00    -0.137 S 
ATOM     24  C   UNL     1      27.170 -22.282 -15.906  0.00  0.00    +0.069 C 
ENDBRANCH  22  23
ENDBRANCH  17  22
ENDBRANCH   1  16
TORSDOF 5
ENDMDL
MODEL 3
REMARK VINA RESULT:      -8.0      7.617      9.960
REMARK  Name = 439176
REMARK  5 active torsions:
REMARK  status: ('A' for Active; 'I' for Inactive)
REMARK    1  A    between atoms: N_1  and  C_13
REMARK    2  A    between atoms: C_11  and  O_15
REMARK    3  A    between atoms: C_12  and  O_17
REMARK    4  A    between atoms: C_14  and  C_19
REMARK    5  A    between atoms: C_19  and  S_20
REMARK                            x       y       z     vdW  Elec       q    Type
REMARK                         _______ _______ _______ _____ _____    ______ ____
ROOT
ATOM      1  N   UNL     1      35.944 -23.005 -14.778  0.00  0.00    -0.247 N 
ATOM      2  N   UNL     1      35.928 -22.768 -16.995  0.00  0.00    -0.242 NA
ATOM      3  N   UNL     1      33.588 -23.458 -14.392  0.00  0.00    -0.228 NA
ATOM      4  N   UNL     1      32.329 -23.452 -16.482  0.00  0.00    -0.229 NA
ATOM      5  C   UNL     1      34.648 -23.189 -15.170  0.00  0.00    +0.152 C 
ATOM      6  C   UNL     1      36.674 -22.755 -15.911  0.00  0.00    +0.223 C 
ATOM      7  C   UNL     1      34.660 -23.039 -16.548  0.00  0.00    +0.140 C 
ATOM      8  C   UNL     1      33.442 -23.181 -17.206  0.00  0.00    +0.143 C 
ATOM      9  C   UNL     1      32.470 -23.573 -15.139  0.00  0.00    +0.253 C 
ATOM     10  N   UNL     1      33.361 -23.046 -18.603  0.00  0.00    -0.342 N 
ATOM     11  H   UNL     1      32.495 -23.148 -19.058  0.00  0.00    +0.144 HD
ATOM     12  H   UNL     1      34.171 -22.849 -19.126  0.00  0.00    +0.144 HD
ENDROOT
BRANCH   1  16
ATOM     13  O   UNL     1      37.845 -23.475 -13.438  0.00  0.00    -0.335 OA
ATOM     14  C   UNL     1      35.743 -24.055 -12.515  0.00  0.00    +0.187 C 
ATOM     15  C   UNL     1      36.812 -24.364 -11.486  0.00  0.00    +0.169 C 
ATOM     16  C   UNL     1      36.465 -23.063 -13.413  0.00  0.00    +0.225 C 
ATOM     17  C   UNL     1      38.083 -24.374 -12.330  0.00  0.00    +0.157 C 
BRANCH  14  18
ATOM     18  O   UNL     1      34.574 -23.500 -11.949  0.00  0.00    -0.378 OA
ATOM     19  H   UNL     1      34.795 -23.066 -11.110  0.00  0.00    +0.211 HD
ENDBRANCH  14  18
BRANCH  15  20
ATOM     20  O   UNL     1      36.892 -23.292 -10.546  0.00  0.00    -0.379 OA
ATOM     21  H   UNL     1      37.805 -22.968 -10.502  0.00  0.00    +0.211 HD
ENDBRANCH  15  20
BRANCH  17  22
ATOM     22  C   UNL     1      38.411 -25.750 -12.893  0.00  0.00    +0.090 C 
BRANCH  22  23
ATOM     23  S   UNL     1      38.617 -25.666 -14.690  0.00  0.00    -0.137 S 
ATOM     24  C   UNL     1      37.075 -26.475 -15.174  0.00  0.00    +0.069 C 
ENDBRANCH  22  23
ENDBRANCH  17  22
ENDBRANCH   1  16
TORSDOF 5
ENDMDL
MODEL 4
REMARK VINA RESULT:      -7.9      0.999      2.047
REMARK  Name = 439176
REMARK  5 active torsions:
REMARK  status: ('A' for Active; 'I' for Inactive)
REMARK    1  A    between atoms: N_1  and  C_13
REMARK    2  A    between atoms: C_11  and  O_15
REMARK    3  A    between atoms: C_12  and  O_17
REMARK    4  A    between atoms: C_14  and  C_19
REMARK    5  A    between atoms: C_19  and  S_20
REMARK                            x       y       z     vdW  Elec       q    Type
REMARK                         _______ _______ _______ _____ _____    ______ ____
ROOT
ATOM      1  N   UNL     1      35.716 -19.126 -20.984  0.00  0.00    -0.247 N 
ATOM      2  N   UNL     1      36.442 -20.791 -19.690  0.00  0.00    -0.242 NA
ATOM      3  N   UNL     1      33.335 -19.609 -20.986  0.00  0.00    -0.228 NA
ATOM      4  N   UNL     1      32.830 -21.587 -19.649  0.00  0.00    -0.229 NA
ATOM      5  C   UNL     1      34.608 -19.844 -20.632  0.00  0.00    +0.152 C 
ATOM      6  C   UNL     1      36.793 -19.734 -20.393  0.00  0.00    +0.223 C 
ATOM      7  C   UNL     1      35.079 -20.871 -19.830  0.00  0.00    +0.140 C 
ATOM      8  C   UNL     1      34.135 -21.763 -19.332  0.00  0.00    +0.143 C 
ATOM      9  C   UNL     1      32.516 -20.535 -20.444  0.00  0.00    +0.253 C 
ATOM     10  N   UNL     1      34.524 -22.834 -18.509  0.00  0.00    -0.342 N 
ATOM     11  H   UNL     1      33.848 -23.459 -18.161  0.00  0.00    +0.144 HD
ATOM     12  H   UNL     1      35.473 -22.959 -18.279  0.00  0.00    +0.144 HD
ENDROOT
BRANCH   1  16
ATOM     13  O   UNL     1      35.376 -16.778 -21.055  0.00  0.00    -0.335 OA
ATOM     14  C   UNL     1      34.808 -17.980 -23.016  0.00  0.00    +0.187 C 
ATOM     15  C   UNL     1      34.590 -16.505 -23.286  0.00  0.00    +0.169 C 
ATOM     16  C   UNL     1      35.757 -17.933 -21.828  0.00  0.00    +0.225 C 
ATOM     17  C   UNL     1      34.554 -15.918 -21.878  0.00  0.00    +0.157 C 
BRANCH  14  18
ATOM     18  O   UNL     1      35.372 -18.666 -24.114  0.00  0.00    -0.378 OA
ATOM     19  H   UNL     1      36.311 -18.436 -24.193  0.00  0.00    +0.211 HD
ENDBRANCH  14  18
BRANCH  15  20
ATOM     20  O   UNL     1      35.720 -15.975 -23.977  0.00  0.00    -0.379 OA
ATOM     21  H   UNL     1      35.494 -15.110 -24.354  0.00  0.00    +0.211 HD
ENDBRANCH  15  20
BRANCH  17  22
ATOM     22  C   UNL     1      33.152 -15.883 -21.285  0.00  0.00    +0.090 C 
BRANCH  22  23
ATOM     23  S   UNL     1      32.696 -14.188 -20.840  0.00  0.00    -0.137 S 
ATOM     24  C   UNL     1      32.391 -13.549 -22.503  0.00  0.00    +0.069 C 
ENDBRANCH  22  23
ENDBRANCH  17  22
ENDBRANCH   1  16
TORSDOF 5
ENDMDL
MODEL 5
REMARK VINA RESULT:      -7.8      6.674      9.243
REMARK  Name = 439176
REMARK  5 active torsions:
REMARK  status: ('A' for Active; 'I' for Inactive)
REMARK    1  A    between atoms: N_1  and  C_13
REMARK    2  A    between atoms: C_11  and  O_15
REMARK    3  A    between atoms: C_12  and  O_17
REMARK    4  A    between atoms: C_14  and  C_19
REMARK    5  A    between atoms: C_19  and  S_20
REMARK                            x       y       z     vdW  Elec       q    Type
REMARK                         _______ _______ _______ _____ _____    ______ ____
ROOT
ATOM      1  N   UNL     1      34.847 -24.059 -15.575  0.00  0.00    -0.247 N 
ATOM      2  N   UNL     1      32.734 -23.917 -14.875  0.00  0.00    -0.242 NA
ATOM      3  N   UNL     1      34.625 -23.049 -17.773  0.00  0.00    -0.228 NA
ATOM      4  N   UNL     1      32.322 -22.370 -18.209  0.00  0.00    -0.229 NA
ATOM      5  C   UNL     1      34.150 -23.466 -16.590  0.00  0.00    +0.152 C 
ATOM      6  C   UNL     1      33.952 -24.311 -14.567  0.00  0.00    +0.223 C 
ATOM      7  C   UNL     1      32.843 -23.387 -16.136  0.00  0.00    +0.140 C 
ATOM      8  C   UNL     1      31.913 -22.813 -16.997  0.00  0.00    +0.143 C 
ATOM      9  C   UNL     1      33.635 -22.513 -18.517  0.00  0.00    +0.253 C 
ATOM     10  N   UNL     1      30.565 -22.691 -16.617  0.00  0.00    -0.342 N 
ATOM     11  H   UNL     1      29.915 -22.282 -17.234  0.00  0.00    +0.144 HD
ATOM     12  H   UNL     1      30.270 -23.013 -15.735  0.00  0.00    +0.144 HD
ENDROOT
BRANCH   1  16
ATOM     13  O   UNL     1      36.476 -25.699 -15.036  0.00  0.00    -0.335 OA
ATOM     14  C   UNL     1      37.100 -23.443 -14.675  0.00  0.00    +0.187 C 
ATOM     15  C   UNL     1      38.290 -24.322 -14.343  0.00  0.00    +0.169 C 
ATOM     16  C   UNL     1      36.275 -24.370 -15.555  0.00  0.00    +0.225 C 
ATOM     17  C   UNL     1      37.645 -25.696 -14.186  0.00  0.00    +0.157 C 
BRANCH  14  18
ATOM     18  O   UNL     1      37.460 -22.256 -15.350  0.00  0.00    -0.378 OA
ATOM     19  H   UNL     1      38.426 -22.193 -15.401  0.00  0.00    +0.211 HD
ENDBRANCH  14  18
BRANCH  15  20
ATOM     20  O   UNL     1      39.181 -24.356 -15.457  0.00  0.00    -0.379 OA
ATOM     21  H   UNL     1      38.766 -24.837 -16.189  0.00  0.00    +0.211 HD
ENDBRANCH  15  20
BRANCH  17  22
ATOM     22  C   UNL     1      37.201 -25.984 -12.758  0.00  0.00    +0.090 C 
BRANCH  22  23
ATOM     23  S   UNL     1      37.492 -24.540 -11.703  0.00  0.00    -0.137 S 
ATOM     24  C   UNL     1      35.779 -24.205 -11.232  0.00  0.00    +0.069 C 
ENDBRANCH  22  23
ENDBRANCH  17  22
ENDBRANCH   1  16
TORSDOF 5
ENDMDL
MODEL 6
REMARK VINA RESULT:      -7.6      2.877      4.442
REMARK  Name = 439176
REMARK  5 active torsions:
REMARK  status: ('A' for Active; 'I' for Inactive)
REMARK    1  A    between atoms: N_1  and  C_13
REMARK    2  A    between atoms: C_11  and  O_15
REMARK    3  A    between atoms: C_12  and  O_17
REMARK    4  A    between atoms: C_14  and  C_19
REMARK    5  A    between atoms: C_19  and  S_20
REMARK                            x       y       z     vdW  Elec       q    Type
REMARK                         _______ _______ _______ _____ _____    ______ ____
ROOT
ATOM      1  N   UNL     1      34.674 -15.692 -22.473  0.00  0.00    -0.247 N 
ATOM      2  N   UNL     1      35.009 -16.710 -20.517  0.00  0.00    -0.242 NA
ATOM      3  N   UNL     1      34.814 -17.604 -23.965  0.00  0.00    -0.228 NA
ATOM      4  N   UNL     1      35.234 -19.666 -22.729  0.00  0.00    -0.229 NA
ATOM      5  C   UNL     1      34.841 -17.018 -22.759  0.00  0.00    +0.152 C 
ATOM      6  C   UNL     1      34.783 -15.558 -21.113  0.00  0.00    +0.223 C 
ATOM      7  C   UNL     1      35.047 -17.632 -21.533  0.00  0.00    +0.140 C 
ATOM      8  C   UNL     1      35.248 -19.008 -21.546  0.00  0.00    +0.143 C 
ATOM      9  C   UNL     1      35.020 -18.933 -23.850  0.00  0.00    +0.253 C 
ATOM     10  N   UNL     1      35.463 -19.712 -20.348  0.00  0.00    -0.342 N 
ATOM     11  H   UNL     1      35.604 -20.686 -20.368  0.00  0.00    +0.144 HD
ATOM     12  H   UNL     1      35.472 -19.232 -19.489  0.00  0.00    +0.144 HD
ENDROOT
BRANCH   1  16
ATOM     13  O   UNL     1      34.233 -13.373 -22.719  0.00  0.00    -0.335 OA
ATOM     14  C   UNL     1      33.178 -14.812 -24.277  0.00  0.00    +0.187 C 
ATOM     15  C   UNL     1      32.833 -13.382 -24.644  0.00  0.00    +0.169 C 
ATOM     16  C   UNL     1      34.425 -14.613 -23.427  0.00  0.00    +0.225 C 
ATOM     17  C   UNL     1      33.177 -12.626 -23.365  0.00  0.00    +0.157 C 
BRANCH  14  18
ATOM     18  O   UNL     1      33.432 -15.627 -25.402  0.00  0.00    -0.378 OA
ATOM     19  H   UNL     1      32.677 -16.215 -25.553  0.00  0.00    +0.211 HD
ENDBRANCH  14  18
BRANCH  15  20
ATOM     20  O   UNL     1      33.696 -12.937 -25.689  0.00  0.00    -0.379 OA
ATOM     21  H   UNL     1      33.187 -12.420 -26.332  0.00  0.00    +0.211 HD
ENDBRANCH  15  20
BRANCH  17  22
ATOM     22  C   UNL     1      32.003 -12.524 -22.400  0.00  0.00    +0.090 C 
BRANCH  22  23
ATOM     23  S   UNL     1      31.616 -10.789 -22.056  0.00  0.00    -0.137 S 
ATOM     24  C   UNL     1      32.752 -10.023 -23.236  0.00  0.00    +0.069 C 
ENDBRANCH  22  23
ENDBRANCH  17  22
ENDBRANCH   1  16
TORSDOF 5
ENDMDL
MODEL 7
REMARK VINA RESULT:      -7.6      7.040      9.808
REMARK  Name = 439176
REMARK  5 active torsions:
REMARK  status: ('A' for Active; 'I' for Inactive)
REMARK    1  A    between atoms: N_1  and  C_13
REMARK    2  A    between atoms: C_11  and  O_15
REMARK    3  A    between atoms: C_12  and  O_17
REMARK    4  A    between atoms: C_14  and  C_19
REMARK    5  A    between atoms: C_19  and  S_20
REMARK                            x       y       z     vdW  Elec       q    Type
REMARK                         _______ _______ _______ _____ _____    ______ ____
ROOT
ATOM      1  N   UNL     1      35.314 -23.160 -14.732  0.00  0.00    -0.247 N 
ATOM      2  N   UNL     1      33.583 -23.643 -16.052  0.00  0.00    -0.242 NA
ATOM      3  N   UNL     1      36.779 -22.085 -16.345  0.00  0.00    -0.228 NA
ATOM      4  N   UNL     1      35.761 -22.017 -18.562  0.00  0.00    -0.229 NA
ATOM      5  C   UNL     1      35.646 -22.702 -15.976  0.00  0.00    +0.152 C 
ATOM      6  C   UNL     1      34.065 -23.718 -14.830  0.00  0.00    +0.223 C 
ATOM      7  C   UNL     1      34.560 -23.010 -16.779  0.00  0.00    +0.140 C 
ATOM      8  C   UNL     1      34.645 -22.644 -18.119  0.00  0.00    +0.143 C 
ATOM      9  C   UNL     1      36.744 -21.780 -17.659  0.00  0.00    +0.253 C 
ATOM     10  N   UNL     1      33.588 -22.916 -19.005  0.00  0.00    -0.342 N 
ATOM     11  H   UNL     1      33.659 -22.652 -19.951  0.00  0.00    +0.144 HD
ATOM     12  H   UNL     1      32.778 -23.371 -18.681  0.00  0.00    +0.144 HD
ENDROOT
BRANCH   1  16
ATOM     13  O   UNL     1      37.501 -23.378 -13.836  0.00  0.00    -0.335 OA
ATOM     14  C   UNL     1      35.719 -24.057 -12.431  0.00  0.00    +0.187 C 
ATOM     15  C   UNL     1      37.015 -24.204 -11.657  0.00  0.00    +0.169 C 
ATOM     16  C   UNL     1      36.127 -23.077 -13.520  0.00  0.00    +0.225 C 
ATOM     17  C   UNL     1      38.062 -24.174 -12.766  0.00  0.00    +0.157 C 
BRANCH  14  18
ATOM     18  O   UNL     1      34.658 -23.558 -11.644  0.00  0.00    -0.378 OA
ATOM     19  H   UNL     1      33.989 -23.156 -12.219  0.00  0.00    +0.211 HD
ENDBRANCH  14  18
BRANCH  15  20
ATOM     20  O   UNL     1      37.199 -23.065 -10.817  0.00  0.00    -0.379 OA
ATOM     21  H   UNL     1      38.141 -22.837 -10.782  0.00  0.00    +0.211 HD
ENDBRANCH  15  20
BRANCH  17  22
ATOM     22  C   UNL     1      38.385 -25.556 -13.316  0.00  0.00    +0.090 C 
BRANCH  22  23
ATOM     23  S   UNL     1      39.371 -25.419 -14.829  0.00  0.00    -0.137 S 
ATOM     24  C   UNL     1      40.779 -26.434 -14.323  0.00  0.00    +0.069 C 
ENDBRANCH  22  23
ENDBRANCH  17  22
ENDBRANCH   1  16
TORSDOF 5
ENDMDL
MODEL 8
REMARK VINA RESULT:      -7.6      6.892      9.555
REMARK  Name = 439176
REMARK  5 active torsions:
REMARK  status: ('A' for Active; 'I' for Inactive)
REMARK    1  A    between atoms: N_1  and  C_13
REMARK    2  A    between atoms: C_11  and  O_15
REMARK    3  A    between atoms: C_12  and  O_17
REMARK    4  A    between atoms: C_14  and  C_19
REMARK    5  A    between atoms: C_19  and  S_20
REMARK                            x       y       z     vdW  Elec       q    Type
REMARK                         _______ _______ _______ _____ _____    ______ ____
ROOT
ATOM      1  N   UNL     1      36.099 -22.768 -15.456  0.00  0.00    -0.247 N 
ATOM      2  N   UNL     1      37.287 -21.712 -17.021  0.00  0.00    -0.242 NA
ATOM      3  N   UNL     1      34.113 -23.316 -16.742  0.00  0.00    -0.228 NA
ATOM      4  N   UNL     1      34.293 -22.513 -19.040  0.00  0.00    -0.229 NA
ATOM      5  C   UNL     1      35.333 -22.781 -16.588  0.00  0.00    +0.152 C 
ATOM      6  C   UNL     1      37.264 -22.114 -15.767  0.00  0.00    +0.223 C 
ATOM      7  C   UNL     1      36.088 -22.122 -17.546  0.00  0.00    +0.140 C 
ATOM      8  C   UNL     1      35.524 -21.997 -18.812  0.00  0.00    +0.143 C 
ATOM      9  C   UNL     1      33.673 -23.132 -18.005  0.00  0.00    +0.253 C 
ATOM     10  N   UNL     1      36.220 -21.345 -19.845  0.00  0.00    -0.342 N 
ATOM     11  H   UNL     1      35.812 -21.262 -20.737  0.00  0.00    +0.144 HD
ATOM     12  H   UNL     1      37.115 -20.971 -19.676  0.00  0.00    +0.144 HD
ENDROOT
BRANCH   1  16
ATOM     13  O   UNL     1      36.661 -22.843 -13.151  0.00  0.00    -0.335 OA
ATOM     14  C   UNL     1      35.850 -24.856 -14.099  0.00  0.00    +0.187 C 
ATOM     15  C   UNL     1      36.079 -25.089 -12.619  0.00  0.00    +0.169 C 
ATOM     16  C   UNL     1      35.754 -23.339 -14.155  0.00  0.00    +0.225 C 
ATOM     17  C   UNL     1      36.984 -23.920 -12.242  0.00  0.00    +0.157 C 
BRANCH  14  18
ATOM     18  O   UNL     1      34.676 -25.476 -14.582  0.00  0.00    -0.378 OA
ATOM     19  H   UNL     1      34.840 -25.836 -15.467  0.00  0.00    +0.211 HD
ENDBRANCH  14  18
BRANCH  15  20
ATOM     20  O   UNL     1      34.842 -24.958 -11.919  0.00  0.00    -0.379 OA
ATOM     21  H   UNL     1      34.132 -24.768 -12.550  0.00  0.00    +0.211 HD
ENDBRANCH  15  20
BRANCH  17  22
ATOM     22  C   UNL     1      38.465 -24.243 -12.389  0.00  0.00    +0.090 C 
BRANCH  22  23
ATOM     23  S   UNL     1      38.684 -25.814 -13.264  0.00  0.00    -0.137 S 
ATOM     24  C   UNL     1      39.541 -25.188 -14.727  0.00  0.00    +0.069 C 
ENDBRANCH  22  23
ENDBRANCH  17  22
ENDBRANCH   1  16
TORSDOF 5
ENDMDL
MODEL 9
REMARK VINA RESULT:      -7.6      6.604      8.724
REMARK  Name = 439176
REMARK  5 active torsions:
REMARK  status: ('A' for Active; 'I' for Inactive)
REMARK    1  A    between atoms: N_1  and  C_13
REMARK    2  A    between atoms: C_11  and  O_15
REMARK    3  A    between atoms: C_12  and  O_17
REMARK    4  A    between atoms: C_14  and  C_19
REMARK    5  A    between atoms: C_19  and  S_20
REMARK                            x       y       z     vdW  Elec       q    Type
REMARK                         _______ _______ _______ _____ _____    ______ ____
ROOT
ATOM      1  N   UNL     1      34.152 -23.205 -16.809  0.00  0.00    -0.247 N 
ATOM      2  N   UNL     1      32.377 -22.660 -18.043  0.00  0.00    -0.242 NA
ATOM      3  N   UNL     1      33.062 -23.630 -14.680  0.00  0.00    -0.228 NA
ATOM      4  N   UNL     1      30.651 -23.291 -14.833  0.00  0.00    -0.229 NA
ATOM      5  C   UNL     1      33.071 -23.290 -15.977  0.00  0.00    +0.152 C 
ATOM      6  C   UNL     1      33.683 -22.823 -18.039  0.00  0.00    +0.223 C 
ATOM      7  C   UNL     1      31.980 -22.949 -16.762  0.00  0.00    +0.140 C 
ATOM      8  C   UNL     1      30.734 -22.957 -16.144  0.00  0.00    +0.143 C 
ATOM      9  C   UNL     1      31.804 -23.603 -14.192  0.00  0.00    +0.253 C 
ATOM     10  N   UNL     1      29.574 -22.625 -16.864  0.00  0.00    -0.342 N 
ATOM     11  H   UNL     1      28.697 -22.635 -16.417  0.00  0.00    +0.144 HD
ATOM     12  H   UNL     1      29.638 -22.384 -17.816  0.00  0.00    +0.144 HD
ENDROOT
BRANCH   1  16
ATOM     13  O   UNL     1      35.633 -24.671 -15.674  0.00  0.00    -0.335 OA
ATOM     14  C   UNL     1      36.201 -22.372 -15.637  0.00  0.00    +0.187 C 
ATOM     15  C   UNL     1      37.298 -23.142 -14.928  0.00  0.00    +0.169 C 
ATOM     16  C   UNL     1      35.548 -23.469 -16.464  0.00  0.00    +0.225 C 
ATOM     17  C   UNL     1      36.621 -24.478 -14.636  0.00  0.00    +0.157 C 
BRANCH  14  18
ATOM     18  O   UNL     1      36.694 -21.325 -16.447  0.00  0.00    -0.378 OA
ATOM     19  H   UNL     1      35.972 -20.715 -16.663  0.00  0.00    +0.211 HD
ENDBRANCH  14  18
BRANCH  15  20
ATOM     20  O   UNL     1      38.383 -23.362 -15.828  0.00  0.00    -0.379 OA
ATOM     21  H   UNL     1      38.036 -23.607 -16.700  0.00  0.00    +0.211 HD
ENDBRANCH  15  20
BRANCH  17  22
ATOM     22  C   UNL     1      35.913 -24.502 -13.288  0.00  0.00    +0.090 C 
BRANCH  22  23
ATOM     23  S   UNL     1      37.120 -24.473 -11.939  0.00  0.00    -0.137 S 
ATOM     24  C   UNL     1      38.239 -25.752 -12.555  0.00  0.00    +0.069 C 
ENDBRANCH  22  23
ENDBRANCH  17  22
ENDBRANCH   1  16
TORSDOF 5
ENDMDL
