MODEL 1
REMARK VINA RESULT:      -8.4      0.000      0.000
REMARK  Name = 3256861
REMARK  9 active torsions:
REMARK  status: ('A' for Active; 'I' for Inactive)
REMARK    1  A    between atoms: P_1  and  O_4
REMARK    2  A    between atoms: P_1  and  C_14
REMARK    3  A    between atoms: O_4  and  C_5
REMARK    4  A    between atoms: C_8  and  N_13
REMARK    5  A    between atoms: C_14  and  C_15
REMARK    6  A    between atoms: C_15  and  C_16
REMARK    7  A    between atoms: C_16  and  C_17
REMARK    8  A    between atoms: C_17  and  C_19
REMARK    9  A    between atoms: C_19  and  O_20
REMARK                            x       y       z     vdW  Elec       q    Type
REMARK                         _______ _______ _______ _____ _____    ______ ____
ROOT
ATOM      1  P   UNL     1      34.593 -16.405 -21.620  0.00  0.00    +0.418 P 
ATOM      2  O   UNL     1      35.247 -16.439 -20.254  0.00  0.00    -0.241 OA
ATOM      3  O   UNL     1      35.176 -15.602 -22.765  0.00  0.00    -0.130 OA
ENDROOT
BRANCH   1   4
ATOM      4  O   UNL     1      34.278 -17.925 -22.118  0.00  0.00    -0.421 OA
BRANCH   4   5
ATOM      5  C   UNL     1      34.356 -19.036 -21.321  0.00  0.00    +0.147 C 
ATOM      6  C   UNL     1      33.193 -19.596 -20.804  0.00  0.00    +0.039 C 
ATOM      7  C   UNL     1      35.598 -19.594 -21.036  0.00  0.00    +0.039 C 
ATOM      8  C   UNL     1      34.514 -21.294 -19.704  0.00  0.00    +0.143 C 
ATOM      9  C   UNL     1      33.272 -20.729 -19.994  0.00  0.00    +0.027 C 
ATOM     10  C   UNL     1      35.677 -20.727 -20.225  0.00  0.00    +0.027 C 
BRANCH   8  13
ATOM     11  O   UNL     1      33.827 -23.412 -19.106  0.00  0.00    -0.126 OA
ATOM     12  O   UNL     1      35.429 -22.464 -17.941  0.00  0.00    -0.126 OA
ATOM     13  N   UNL     1      34.594 -22.445 -18.877  0.00  0.00    +0.058 N 
ENDBRANCH   8  13
ENDBRANCH   4   5
ENDBRANCH   1   4
BRANCH   1  14
ATOM     14  C   UNL     1      32.891 -15.849 -21.387  0.00  0.00    +0.131 C 
BRANCH  14  15
ATOM     15  C   UNL     1      32.753 -14.701 -20.396  0.00  0.00    +0.015 C 
BRANCH  15  16
ATOM     16  C   UNL     1      32.366 -13.389 -21.084  0.00  0.00    +0.012 C 
BRANCH  16  17
ATOM     17  C   UNL     1      32.306 -13.522 -22.603  0.00  0.00    +0.109 C 
BRANCH  17  19
ATOM     18  O   UNL     1      32.888 -11.284 -23.300  0.00  0.00    -0.250 OA
ATOM     19  C   UNL     1      33.153 -12.480 -23.291  0.00  0.00    +0.314 C 
BRANCH  19  20
ATOM     20  O   UNL     1      34.258 -13.002 -23.879  0.00  0.00    -0.480 OA
ATOM     21  H   UNL     1      34.916 -13.414 -23.356  0.00  0.00    +0.295 HD
ENDBRANCH  19  20
ENDBRANCH  17  19
ENDBRANCH  16  17
ENDBRANCH  15  16
ENDBRANCH  14  15
ENDBRANCH   1  14
TORSDOF 9
ENDMDL
MODEL 2
REMARK VINA RESULT:      -8.3      1.854      2.421
REMARK  Name = 3256861
REMARK  9 active torsions:
REMARK  status: ('A' for Active; 'I' for Inactive)
REMARK    1  A    between atoms: P_1  and  O_4
REMARK    2  A    between atoms: P_1  and  C_14
REMARK    3  A    between atoms: O_4  and  C_5
REMARK    4  A    between atoms: C_8  and  N_13
REMARK    5  A    between atoms: C_14  and  C_15
REMARK    6  A    between atoms: C_15  and  C_16
REMARK    7  A    between atoms: C_16  and  C_17
REMARK    8  A    between atoms: C_17  and  C_19
REMARK    9  A    between atoms: C_19  and  O_20
REMARK                            x       y       z     vdW  Elec       q    Type
REMARK                         _______ _______ _______ _____ _____    ______ ____
ROOT
ATOM      1  P   UNL     1      34.108 -16.287 -21.290  0.00  0.00    +0.418 P 
ATOM      2  O   UNL     1      32.641 -15.995 -21.049  0.00  0.00    -0.241 OA
ATOM      3  O   UNL     1      35.151 -16.084 -20.210  0.00  0.00    -0.130 OA
ENDROOT
BRANCH   1   4
ATOM      4  O   UNL     1      34.273 -17.771 -21.944  0.00  0.00    -0.421 OA
BRANCH   4   5
ATOM      5  C   UNL     1      34.349 -18.934 -21.224  0.00  0.00    +0.147 C 
ATOM      6  C   UNL     1      33.183 -19.552 -20.788  0.00  0.00    +0.039 C 
ATOM      7  C   UNL     1      35.593 -19.486 -20.937  0.00  0.00    +0.039 C 
ATOM      8  C   UNL     1      34.504 -21.297 -19.765  0.00  0.00    +0.143 C 
ATOM      9  C   UNL     1      33.261 -20.737 -20.057  0.00  0.00    +0.027 C 
ATOM     10  C   UNL     1      35.671 -20.672 -20.206  0.00  0.00    +0.027 C 
BRANCH   8  13
ATOM     11  O   UNL     1      35.323 -22.542 -18.006  0.00  0.00    -0.126 OA
ATOM     12  O   UNL     1      33.910 -23.493 -19.393  0.00  0.00    -0.126 OA
ATOM     13  N   UNL     1      34.583 -22.502 -19.019  0.00  0.00    +0.058 N 
ENDBRANCH   8  13
ENDBRANCH   4   5
ENDBRANCH   1   4
BRANCH   1  14
ATOM     14  C   UNL     1      34.621 -15.313 -22.721  0.00  0.00    +0.131 C 
BRANCH  14  15
ATOM     15  C   UNL     1      33.948 -13.949 -22.805  0.00  0.00    +0.015 C 
BRANCH  15  16
ATOM     16  C   UNL     1      33.824 -13.455 -24.248  0.00  0.00    +0.012 C 
BRANCH  16  17
ATOM     17  C   UNL     1      32.786 -14.240 -25.047  0.00  0.00    +0.109 C 
BRANCH  17  19
ATOM     18  O   UNL     1      33.690 -16.137 -26.237  0.00  0.00    -0.250 OA
ATOM     19  C   UNL     1      33.404 -14.946 -26.228  0.00  0.00    +0.314 C 
BRANCH  19  20
ATOM     20  O   UNL     1      33.585 -14.129 -27.295  0.00  0.00    -0.480 OA
ATOM     21  H   UNL     1      32.926 -13.505 -27.525  0.00  0.00    +0.295 HD
ENDBRANCH  19  20
ENDBRANCH  17  19
ENDBRANCH  16  17
ENDBRANCH  15  16
ENDBRANCH  14  15
ENDBRANCH   1  14
TORSDOF 9
ENDMDL
MODEL 3
REMARK VINA RESULT:      -8.3      1.362      1.905
REMARK  Name = 3256861
REMARK  9 active torsions:
REMARK  status: ('A' for Active; 'I' for Inactive)
REMARK    1  A    between atoms: P_1  and  O_4
REMARK    2  A    between atoms: P_1  and  C_14
REMARK    3  A    between atoms: O_4  and  C_5
REMARK    4  A    between atoms: C_8  and  N_13
REMARK    5  A    between atoms: C_14  and  C_15
REMARK    6  A    between atoms: C_15  and  C_16
REMARK    7  A    between atoms: C_16  and  C_17
REMARK    8  A    between atoms: C_17  and  C_19
REMARK    9  A    between atoms: C_19  and  O_20
REMARK                            x       y       z     vdW  Elec       q    Type
REMARK                         _______ _______ _______ _____ _____    ______ ____
ROOT
ATOM      1  P   UNL     1      34.213 -16.512 -21.358  0.00  0.00    +0.418 P 
ATOM      2  O   UNL     1      32.780 -16.045 -21.201  0.00  0.00    -0.241 OA
ATOM      3  O   UNL     1      35.222 -16.386 -20.234  0.00  0.00    -0.130 OA
ENDROOT
BRANCH   1   4
ATOM      4  O   UNL     1      34.235 -18.031 -21.949  0.00  0.00    -0.421 OA
BRANCH   4   5
ATOM      5  C   UNL     1      34.284 -19.164 -21.181  0.00  0.00    +0.147 C 
ATOM      6  C   UNL     1      33.107 -19.712 -20.686  0.00  0.00    +0.039 C 
ATOM      7  C   UNL     1      35.512 -19.756 -20.904  0.00  0.00    +0.039 C 
ATOM      8  C   UNL     1      34.384 -21.466 -19.624  0.00  0.00    +0.143 C 
ATOM      9  C   UNL     1      33.157 -20.867 -19.905  0.00  0.00    +0.027 C 
ATOM     10  C   UNL     1      35.562 -20.911 -20.124  0.00  0.00    +0.027 C 
BRANCH   8  13
ATOM     11  O   UNL     1      35.007 -22.594 -17.712  0.00  0.00    -0.126 OA
ATOM     12  O   UNL     1      33.906 -23.693 -19.261  0.00  0.00    -0.126 OA
ATOM     13  N   UNL     1      34.435 -22.641 -18.827  0.00  0.00    +0.058 N 
ENDBRANCH   8  13
ENDBRANCH   4   5
ENDBRANCH   1   4
BRANCH   1  14
ATOM     14  C   UNL     1      34.902 -15.662 -22.794  0.00  0.00    +0.131 C 
BRANCH  14  15
ATOM     15  C   UNL     1      34.065 -15.822 -24.057  0.00  0.00    +0.015 C 
BRANCH  15  16
ATOM     16  C   UNL     1      33.316 -14.537 -24.419  0.00  0.00    +0.012 C 
BRANCH  16  17
ATOM     17  C   UNL     1      33.827 -13.325 -23.644  0.00  0.00    +0.109 C 
BRANCH  17  19
ATOM     18  O   UNL     1      32.553 -11.387 -22.974  0.00  0.00    -0.250 OA
ATOM     19  C   UNL     1      32.711 -12.601 -22.934  0.00  0.00    +0.314 C 
BRANCH  19  20
ATOM     20  O   UNL     1      31.880 -13.438 -22.265  0.00  0.00    -0.480 OA
ATOM     21  H   UNL     1      31.185 -13.090 -21.743  0.00  0.00    +0.295 HD
ENDBRANCH  19  20
ENDBRANCH  17  19
ENDBRANCH  16  17
ENDBRANCH  15  16
ENDBRANCH  14  15
ENDBRANCH   1  14
TORSDOF 9
ENDMDL
MODEL 4
REMARK VINA RESULT:      -8.2      1.141      1.547
REMARK  Name = 3256861
REMARK  9 active torsions:
REMARK  status: ('A' for Active; 'I' for Inactive)
REMARK    1  A    between atoms: P_1  and  O_4
REMARK    2  A    between atoms: P_1  and  C_14
REMARK    3  A    between atoms: O_4  and  C_5
REMARK    4  A    between atoms: C_8  and  N_13
REMARK    5  A    between atoms: C_14  and  C_15
REMARK    6  A    between atoms: C_15  and  C_16
REMARK    7  A    between atoms: C_16  and  C_17
REMARK    8  A    between atoms: C_17  and  C_19
REMARK    9  A    between atoms: C_19  and  O_20
REMARK                            x       y       z     vdW  Elec       q    Type
REMARK                         _______ _______ _______ _____ _____    ______ ____
ROOT
ATOM      1  P   UNL     1      34.576 -16.420 -21.600  0.00  0.00    +0.418 P 
ATOM      2  O   UNL     1      35.202 -16.457 -20.221  0.00  0.00    -0.241 OA
ATOM      3  O   UNL     1      35.188 -15.623 -22.735  0.00  0.00    -0.130 OA
ENDROOT
BRANCH   1   4
ATOM      4  O   UNL     1      34.258 -17.938 -22.102  0.00  0.00    -0.421 OA
BRANCH   4   5
ATOM      5  C   UNL     1      34.334 -19.050 -21.308  0.00  0.00    +0.147 C 
ATOM      6  C   UNL     1      33.171 -19.597 -20.775  0.00  0.00    +0.039 C 
ATOM      7  C   UNL     1      35.572 -19.625 -21.041  0.00  0.00    +0.039 C 
ATOM      8  C   UNL     1      34.486 -21.312 -19.696  0.00  0.00    +0.143 C 
ATOM      9  C   UNL     1      33.248 -20.731 -19.967  0.00  0.00    +0.027 C 
ATOM     10  C   UNL     1      35.649 -20.759 -20.233  0.00  0.00    +0.027 C 
BRANCH   8  13
ATOM     11  O   UNL     1      33.801 -23.435 -19.109  0.00  0.00    -0.126 OA
ATOM     12  O   UNL     1      35.392 -22.485 -17.930  0.00  0.00    -0.126 OA
ATOM     13  N   UNL     1      34.563 -22.466 -18.872  0.00  0.00    +0.058 N 
ENDBRANCH   8  13
ENDBRANCH   4   5
ENDBRANCH   1   4
BRANCH   1  14
ATOM     14  C   UNL     1      32.874 -15.849 -21.402  0.00  0.00    +0.131 C 
BRANCH  14  15
ATOM     15  C   UNL     1      32.730 -14.681 -20.435  0.00  0.00    +0.015 C 
BRANCH  15  16
ATOM     16  C   UNL     1      32.445 -13.364 -21.160  0.00  0.00    +0.012 C 
BRANCH  16  17
ATOM     17  C   UNL     1      31.879 -12.295 -20.230  0.00  0.00    +0.109 C 
BRANCH  17  19
ATOM     18  O   UNL     1      31.524  -9.963 -20.746  0.00  0.00    -0.250 OA
ATOM     19  C   UNL     1      31.288 -11.138 -20.997  0.00  0.00    +0.314 C 
BRANCH  19  20
ATOM     20  O   UNL     1      30.486 -11.535 -22.015  0.00  0.00    -0.480 OA
ATOM     21  H   UNL     1      29.988 -12.324 -21.939  0.00  0.00    +0.295 HD
ENDBRANCH  19  20
ENDBRANCH  17  19
ENDBRANCH  16  17
ENDBRANCH  15  16
ENDBRANCH  14  15
ENDBRANCH   1  14
TORSDOF 9
ENDMDL
MODEL 5
REMARK VINA RESULT:      -8.2      4.212      8.333
REMARK  Name = 3256861
REMARK  9 active torsions:
REMARK  status: ('A' for Active; 'I' for Inactive)
REMARK    1  A    between atoms: P_1  and  O_4
REMARK    2  A    between atoms: P_1  and  C_14
REMARK    3  A    between atoms: O_4  and  C_5
REMARK    4  A    between atoms: C_8  and  N_13
REMARK    5  A    between atoms: C_14  and  C_15
REMARK    6  A    between atoms: C_15  and  C_16
REMARK    7  A    between atoms: C_16  and  C_17
REMARK    8  A    between atoms: C_17  and  C_19
REMARK    9  A    between atoms: C_19  and  O_20
REMARK                            x       y       z     vdW  Elec       q    Type
REMARK                         _______ _______ _______ _____ _____    ______ ____
ROOT
ATOM      1  P   UNL     1      33.715 -23.189 -17.888  0.00  0.00    +0.418 P 
ATOM      2  O   UNL     1      33.660 -24.369 -18.837  0.00  0.00    -0.241 OA
ATOM      3  O   UNL     1      35.005 -22.761 -17.219  0.00  0.00    -0.130 OA
ENDROOT
BRANCH   1   4
ATOM      4  O   UNL     1      32.995 -21.897 -18.575  0.00  0.00    -0.421 OA
BRANCH   4   5
ATOM      5  C   UNL     1      33.560 -21.120 -19.550  0.00  0.00    +0.147 C 
ATOM      6  C   UNL     1      34.935 -21.161 -19.754  0.00  0.00    +0.039 C 
ATOM      7  C   UNL     1      32.753 -20.297 -20.330  0.00  0.00    +0.039 C 
ATOM      8  C   UNL     1      34.707 -19.544 -21.534  0.00  0.00    +0.143 C 
ATOM      9  C   UNL     1      35.509 -20.370 -20.749  0.00  0.00    +0.027 C 
ATOM     10  C   UNL     1      33.328 -19.507 -21.325  0.00  0.00    +0.027 C 
BRANCH   8  13
ATOM     11  O   UNL     1      35.949 -17.722 -22.210  0.00  0.00    -0.126 OA
ATOM     12  O   UNL     1      35.136 -19.062 -23.748  0.00  0.00    -0.126 OA
ATOM     13  N   UNL     1      35.292 -18.738 -22.546  0.00  0.00    +0.058 N 
ENDBRANCH   8  13
ENDBRANCH   4   5
ENDBRANCH   1   4
BRANCH   1  14
ATOM     14  C   UNL     1      32.509 -23.495 -16.580  0.00  0.00    +0.131 C 
BRANCH  14  15
ATOM     15  C   UNL     1      31.189 -22.761 -16.781  0.00  0.00    +0.015 C 
BRANCH  15  16
ATOM     16  C   UNL     1      30.027 -23.460 -16.073  0.00  0.00    +0.012 C 
BRANCH  16  17
ATOM     17  C   UNL     1      28.822 -22.543 -15.880  0.00  0.00    +0.109 C 
BRANCH  17  19
ATOM     18  O   UNL     1      27.646 -23.700 -17.643  0.00  0.00    -0.250 OA
ATOM     19  C   UNL     1      27.836 -22.666 -17.015  0.00  0.00    +0.314 C 
BRANCH  19  20
ATOM     20  O   UNL     1      27.158 -21.516 -17.252  0.00  0.00    -0.480 OA
ATOM     21  H   UNL     1      27.505 -20.882 -17.847  0.00  0.00    +0.295 HD
ENDBRANCH  19  20
ENDBRANCH  17  19
ENDBRANCH  16  17
ENDBRANCH  15  16
ENDBRANCH  14  15
ENDBRANCH   1  14
TORSDOF 9
ENDMDL
MODEL 6
REMARK VINA RESULT:      -8.1      4.835      8.637
REMARK  Name = 3256861
REMARK  9 active torsions:
REMARK  status: ('A' for Active; 'I' for Inactive)
REMARK    1  A    between atoms: P_1  and  O_4
REMARK    2  A    between atoms: P_1  and  C_14
REMARK    3  A    between atoms: O_4  and  C_5
REMARK    4  A    between atoms: C_8  and  N_13
REMARK    5  A    between atoms: C_14  and  C_15
REMARK    6  A    between atoms: C_15  and  C_16
REMARK    7  A    between atoms: C_16  and  C_17
REMARK    8  A    between atoms: C_17  and  C_19
REMARK    9  A    between atoms: C_19  and  O_20
REMARK                            x       y       z     vdW  Elec       q    Type
REMARK                         _______ _______ _______ _____ _____    ______ ____
ROOT
ATOM      1  P   UNL     1      34.646 -23.404 -16.115  0.00  0.00    +0.418 P 
ATOM      2  O   UNL     1      35.153 -24.788 -15.763  0.00  0.00    -0.241 OA
ATOM      3  O   UNL     1      35.464 -22.159 -15.837  0.00  0.00    -0.130 OA
ENDROOT
BRANCH   1   4
ATOM      4  O   UNL     1      34.122 -23.386 -17.658  0.00  0.00    -0.421 OA
BRANCH   4   5
ATOM      5  C   UNL     1      34.342 -22.364 -18.542  0.00  0.00    +0.147 C 
ATOM      6  C   UNL     1      35.645 -21.990 -18.852  0.00  0.00    +0.039 C 
ATOM      7  C   UNL     1      33.260 -21.710 -19.122  0.00  0.00    +0.039 C 
ATOM      8  C   UNL     1      34.790 -20.290 -20.340  0.00  0.00    +0.143 C 
ATOM      9  C   UNL     1      35.869 -20.950 -19.754  0.00  0.00    +0.027 C 
ATOM     10  C   UNL     1      33.485 -20.670 -20.024  0.00  0.00    +0.027 C 
BRANCH   8  13
ATOM     11  O   UNL     1      35.624 -18.204 -20.861  0.00  0.00    -0.126 OA
ATOM     12  O   UNL     1      34.607 -19.347 -22.436  0.00  0.00    -0.126 OA
ATOM     13  N   UNL     1      35.018 -19.229 -21.256  0.00  0.00    +0.058 N 
ENDBRANCH   8  13
ENDBRANCH   4   5
ENDBRANCH   1   4
BRANCH   1  14
ATOM     14  C   UNL     1      33.052 -23.192 -15.294  0.00  0.00    +0.131 C 
BRANCH  14  15
ATOM     15  C   UNL     1      31.857 -23.438 -16.207  0.00  0.00    +0.015 C 
BRANCH  15  16
ATOM     16  C   UNL     1      30.537 -23.030 -15.550  0.00  0.00    +0.012 C 
BRANCH  16  17
ATOM     17  C   UNL     1      29.393 -23.979 -15.899  0.00  0.00    +0.109 C 
BRANCH  17  19
ATOM     18  O   UNL     1      27.648 -24.031 -17.567  0.00  0.00    -0.250 OA
ATOM     19  C   UNL     1      28.456 -23.378 -16.916  0.00  0.00    +0.314 C 
BRANCH  19  20
ATOM     20  O   UNL     1      28.580 -22.032 -17.018  0.00  0.00    -0.480 OA
ATOM     21  H   UNL     1      28.744 -21.638 -17.852  0.00  0.00    +0.295 HD
ENDBRANCH  19  20
ENDBRANCH  17  19
ENDBRANCH  16  17
ENDBRANCH  15  16
ENDBRANCH  14  15
ENDBRANCH   1  14
TORSDOF 9
ENDMDL
MODEL 7
REMARK VINA RESULT:      -8.1      1.387      2.117
REMARK  Name = 3256861
REMARK  9 active torsions:
REMARK  status: ('A' for Active; 'I' for Inactive)
REMARK    1  A    between atoms: P_1  and  O_4
REMARK    2  A    between atoms: P_1  and  C_14
REMARK    3  A    between atoms: O_4  and  C_5
REMARK    4  A    between atoms: C_8  and  N_13
REMARK    5  A    between atoms: C_14  and  C_15
REMARK    6  A    between atoms: C_15  and  C_16
REMARK    7  A    between atoms: C_16  and  C_17
REMARK    8  A    between atoms: C_17  and  C_19
REMARK    9  A    between atoms: C_19  and  O_20
REMARK                            x       y       z     vdW  Elec       q    Type
REMARK                         _______ _______ _______ _____ _____    ______ ____
ROOT
ATOM      1  P   UNL     1      34.077 -16.223 -21.333  0.00  0.00    +0.418 P 
ATOM      2  O   UNL     1      32.595 -15.981 -21.128  0.00  0.00    -0.241 OA
ATOM      3  O   UNL     1      35.086 -15.977 -20.230  0.00  0.00    -0.130 OA
ENDROOT
BRANCH   1   4
ATOM      4  O   UNL     1      34.308 -17.705 -21.972  0.00  0.00    -0.421 OA
BRANCH   4   5
ATOM      5  C   UNL     1      34.348 -18.866 -21.248  0.00  0.00    +0.147 C 
ATOM      6  C   UNL     1      35.570 -19.478 -20.994  0.00  0.00    +0.039 C 
ATOM      7  C   UNL     1      33.165 -19.423 -20.773  0.00  0.00    +0.039 C 
ATOM      8  C   UNL     1      34.429 -21.224 -19.775  0.00  0.00    +0.143 C 
ATOM      9  C   UNL     1      35.611 -20.660 -20.255  0.00  0.00    +0.027 C 
ATOM     10  C   UNL     1      33.206 -20.605 -20.034  0.00  0.00    +0.027 C 
BRANCH   8  13
ATOM     11  O   UNL     1      35.114 -22.452 -17.947  0.00  0.00    -0.126 OA
ATOM     12  O   UNL     1      33.863 -23.437 -19.460  0.00  0.00    -0.126 OA
ATOM     13  N   UNL     1      34.471 -22.429 -19.024  0.00  0.00    +0.058 N 
ENDBRANCH   8  13
ENDBRANCH   4   5
ENDBRANCH   1   4
BRANCH   1  14
ATOM     14  C   UNL     1      34.589 -15.240 -22.758  0.00  0.00    +0.131 C 
BRANCH  14  15
ATOM     15  C   UNL     1      33.428 -14.607 -23.513  0.00  0.00    +0.015 C 
BRANCH  15  16
ATOM     16  C   UNL     1      33.305 -13.108 -23.229  0.00  0.00    +0.012 C 
BRANCH  16  17
ATOM     17  C   UNL     1      33.807 -12.250 -24.387  0.00  0.00    +0.109 C 
BRANCH  17  19
ATOM     18  O   UNL     1      32.875 -10.119 -23.739  0.00  0.00    -0.250 OA
ATOM     19  C   UNL     1      33.862 -10.788 -24.020  0.00  0.00    +0.314 C 
BRANCH  19  20
ATOM     20  O   UNL     1      35.124 -10.294 -24.005  0.00  0.00    -0.480 OA
ATOM     21  H   UNL     1      35.274  -9.385 -24.169  0.00  0.00    +0.295 HD
ENDBRANCH  19  20
ENDBRANCH  17  19
ENDBRANCH  16  17
ENDBRANCH  15  16
ENDBRANCH  14  15
ENDBRANCH   1  14
TORSDOF 9
ENDMDL
MODEL 8
REMARK VINA RESULT:      -8.1      2.010      2.873
REMARK  Name = 3256861
REMARK  9 active torsions:
REMARK  status: ('A' for Active; 'I' for Inactive)
REMARK    1  A    between atoms: P_1  and  O_4
REMARK    2  A    between atoms: P_1  and  C_14
REMARK    3  A    between atoms: O_4  and  C_5
REMARK    4  A    between atoms: C_8  and  N_13
REMARK    5  A    between atoms: C_14  and  C_15
REMARK    6  A    between atoms: C_15  and  C_16
REMARK    7  A    between atoms: C_16  and  C_17
REMARK    8  A    between atoms: C_17  and  C_19
REMARK    9  A    between atoms: C_19  and  O_20
REMARK                            x       y       z     vdW  Elec       q    Type
REMARK                         _______ _______ _______ _____ _____    ______ ____
ROOT
ATOM      1  P   UNL     1      35.173 -18.591 -23.349  0.00  0.00    +0.418 P 
ATOM      2  O   UNL     1      36.506 -18.109 -22.814  0.00  0.00    -0.241 OA
ATOM      3  O   UNL     1      35.069 -19.783 -24.280  0.00  0.00    -0.130 OA
ENDROOT
BRANCH   1   4
ATOM      4  O   UNL     1      34.114 -18.758 -22.121  0.00  0.00    -0.421 OA
BRANCH   4   5
ATOM      5  C   UNL     1      34.174 -19.742 -21.172  0.00  0.00    +0.147 C 
ATOM      6  C   UNL     1      32.999 -20.233 -20.613  0.00  0.00    +0.039 C 
ATOM      7  C   UNL     1      35.410 -20.243 -20.775  0.00  0.00    +0.039 C 
ATOM      8  C   UNL     1      34.295 -21.744 -19.245  0.00  0.00    +0.143 C 
ATOM      9  C   UNL     1      33.060 -21.237 -19.647  0.00  0.00    +0.027 C 
ATOM     10  C   UNL     1      35.470 -21.248 -19.809  0.00  0.00    +0.027 C 
BRANCH   8  13
ATOM     11  O   UNL     1      35.241 -22.701 -17.372  0.00  0.00    -0.126 OA
ATOM     12  O   UNL     1      33.524 -23.704 -18.304  0.00  0.00    -0.126 OA
ATOM     13  N   UNL     1      34.356 -22.765 -18.259  0.00  0.00    +0.058 N 
ENDBRANCH   8  13
ENDBRANCH   4   5
ENDBRANCH   1   4
BRANCH   1  14
ATOM     14  C   UNL     1      34.391 -17.192 -24.181  0.00  0.00    +0.131 C 
BRANCH  14  15
ATOM     15  C   UNL     1      34.809 -15.838 -23.623  0.00  0.00    +0.015 C 
BRANCH  15  16
ATOM     16  C   UNL     1      33.648 -15.111 -22.942  0.00  0.00    +0.012 C 
BRANCH  16  17
ATOM     17  C   UNL     1      33.398 -15.611 -21.522  0.00  0.00    +0.109 C 
BRANCH  17  19
ATOM     18  O   UNL     1      35.067 -14.399 -20.266  0.00  0.00    -0.250 OA
ATOM     19  C   UNL     1      34.625 -15.474 -20.654  0.00  0.00    +0.314 C 
BRANCH  19  20
ATOM     20  O   UNL     1      35.174 -16.668 -20.323  0.00  0.00    -0.480 OA
ATOM     21  H   UNL     1      35.907 -16.996 -20.804  0.00  0.00    +0.295 HD
ENDBRANCH  19  20
ENDBRANCH  17  19
ENDBRANCH  16  17
ENDBRANCH  15  16
ENDBRANCH  14  15
ENDBRANCH   1  14
TORSDOF 9
ENDMDL
MODEL 9
REMARK VINA RESULT:      -8.0      8.410     11.185
REMARK  Name = 3256861
REMARK  9 active torsions:
REMARK  status: ('A' for Active; 'I' for Inactive)
REMARK    1  A    between atoms: P_1  and  O_4
REMARK    2  A    between atoms: P_1  and  C_14
REMARK    3  A    between atoms: O_4  and  C_5
REMARK    4  A    between atoms: C_8  and  N_13
REMARK    5  A    between atoms: C_14  and  C_15
REMARK    6  A    between atoms: C_15  and  C_16
REMARK    7  A    between atoms: C_16  and  C_17
REMARK    8  A    between atoms: C_17  and  C_19
REMARK    9  A    between atoms: C_19  and  O_20
REMARK                            x       y       z     vdW  Elec       q    Type
REMARK                         _______ _______ _______ _____ _____    ______ ____
ROOT
ATOM      1  P   UNL     1      35.805 -23.831 -15.365  0.00  0.00    +0.418 P 
ATOM      2  O   UNL     1      35.764 -25.342 -15.473  0.00  0.00    -0.241 OA
ATOM      3  O   UNL     1      36.021 -22.949 -16.578  0.00  0.00    -0.130 OA
ENDROOT
BRANCH   1   4
ATOM      4  O   UNL     1      34.512 -23.304 -14.524  0.00  0.00    -0.421 OA
BRANCH   4   5
ATOM      5  C   UNL     1      33.234 -23.255 -15.012  0.00  0.00    +0.147 C 
ATOM      6  C   UNL     1      33.023 -23.215 -16.386  0.00  0.00    +0.039 C 
ATOM      7  C   UNL     1      32.159 -23.246 -14.130  0.00  0.00    +0.039 C 
ATOM      8  C   UNL     1      30.638 -23.158 -16.005  0.00  0.00    +0.143 C 
ATOM      9  C   UNL     1      31.721 -23.166 -16.884  0.00  0.00    +0.027 C 
ATOM     10  C   UNL     1      30.857 -23.198 -14.628  0.00  0.00    +0.027 C 
BRANCH   8  13
ATOM     11  O   UNL     1      28.624 -24.155 -16.522  0.00  0.00    -0.126 OA
ATOM     12  O   UNL     1      28.867 -22.013 -16.938  0.00  0.00    -0.126 OA
ATOM     13  N   UNL     1      29.313 -23.106 -16.512  0.00  0.00    +0.058 N 
ENDBRANCH   8  13
ENDBRANCH   4   5
ENDBRANCH   1   4
BRANCH   1  14
ATOM     14  C   UNL     1      37.087 -23.414 -14.163  0.00  0.00    +0.131 C 
BRANCH  14  15
ATOM     15  C   UNL     1      37.874 -24.619 -13.666  0.00  0.00    +0.015 C 
BRANCH  15  16
ATOM     16  C   UNL     1      37.776 -24.785 -12.148  0.00  0.00    +0.012 C 
BRANCH  16  17
ATOM     17  C   UNL     1      36.815 -23.784 -11.511  0.00  0.00    +0.109 C 
BRANCH  17  19
ATOM     18  O   UNL     1      35.347 -24.578  -9.766  0.00  0.00    -0.250 OA
ATOM     19  C   UNL     1      35.583 -24.459 -10.962  0.00  0.00    +0.314 C 
BRANCH  19  20
ATOM     20  O   UNL     1      34.746 -24.900 -11.933  0.00  0.00    -0.480 OA
ATOM     21  H   UNL     1      33.834 -24.688 -11.898  0.00  0.00    +0.295 HD
ENDBRANCH  19  20
ENDBRANCH  17  19
ENDBRANCH  16  17
ENDBRANCH  15  16
ENDBRANCH  14  15
ENDBRANCH   1  14
TORSDOF 9
ENDMDL
