MODEL 1
REMARK VINA RESULT:      -9.3      0.000      0.000
REMARK  Name = 3994
REMARK  10 active torsions:
REMARK  status: ('A' for Active; 'I' for Inactive)
REMARK    1  A    between atoms: N_2  and  C_14
REMARK    2  A    between atoms: C_3  and  C_5
REMARK    3  A    between atoms: C_6  and  N_11
REMARK    4  A    between atoms: C_14  and  C_15
REMARK    5  A    between atoms: C_15  and  C_16
REMARK    6  A    between atoms: C_16  and  C_17
REMARK    7  A    between atoms: C_17  and  C_18
REMARK    8  A    between atoms: C_18  and  C_19
REMARK    9  A    between atoms: C_19  and  C_22
REMARK   10  A    between atoms: N_21  and  O_24
REMARK                            x       y       z     vdW  Elec       q    Type
REMARK                         _______ _______ _______ _____ _____    ______ ____
ROOT
ATOM      1  O   UNL     1      33.793 -23.767 -19.109  0.00  0.00    -0.270 OA
ATOM      2  N   UNL     1      34.491 -22.533 -17.273  0.00  0.00    -0.301 N 
ATOM      3  C   UNL     1      34.186 -22.712 -18.616  0.00  0.00    +0.246 C 
ATOM      4  H   UNL     1      34.799 -21.647 -16.972  0.00  0.00    +0.150 HD
ENDROOT
BRANCH   3   5
ATOM      5  C   UNL     1      34.383 -21.531 -19.495  0.00  0.00    +0.053 C 
ATOM      6  C   UNL     1      34.752 -19.312 -21.145  0.00  0.00    +0.048 C 
ATOM      7  C   UNL     1      33.278 -20.864 -20.026  0.00  0.00    +0.006 C 
ATOM      8  C   UNL     1      35.672 -21.089 -19.790  0.00  0.00    +0.006 C 
ATOM      9  C   UNL     1      33.463 -19.754 -20.850  0.00  0.00    +0.015 C 
ATOM     10  C   UNL     1      35.857 -19.978 -20.615  0.00  0.00    +0.015 C 
BRANCH   6  11
ATOM     11  N   UNL     1      34.940 -18.190 -21.978  0.00  0.00    -0.304 N 
ATOM     12  C   UNL     1      35.056 -16.862 -21.408  0.00  0.00    +0.112 C 
ATOM     13  C   UNL     1      35.034 -18.351 -23.417  0.00  0.00    +0.112 C 
ENDBRANCH   6  11
ENDBRANCH   3   5
BRANCH   2  14
ATOM     14  C   UNL     1      34.375 -23.588 -16.303  0.00  0.00    +0.090 C 
BRANCH  14  15
ATOM     15  C   UNL     1      33.319 -23.268 -15.251  0.00  0.00    +0.021 C 
BRANCH  15  16
ATOM     16  C   UNL     1      31.910 -23.535 -15.779  0.00  0.00    +0.002 C 
BRANCH  16  17
ATOM     17  C   UNL     1      30.879 -23.521 -14.648  0.00  0.00    +0.001 C 
BRANCH  17  18
ATOM     18  C   UNL     1      29.611 -22.771 -15.063  0.00  0.00    +0.010 C 
BRANCH  18  19
ATOM     19  C   UNL     1      29.247 -23.013 -16.528  0.00  0.00    +0.087 C 
BRANCH  19  22
ATOM     20  O   UNL     1      27.270 -23.064 -17.925  0.00  0.00    -0.273 OA
ATOM     21  N   UNL     1      27.092 -22.311 -15.750  0.00  0.00    -0.197 N 
ATOM     22  C   UNL     1      27.771 -22.818 -16.831  0.00  0.00    +0.244 C 
ATOM     23  H   UNL     1      27.538 -22.130 -14.890  0.00  0.00    +0.182 HD
BRANCH  21  24
ATOM     24  O   UNL     1      25.727 -22.069 -15.946  0.00  0.00    -0.295 OA
ATOM     25  H   UNL     1      25.535 -21.135 -15.766  0.00  0.00    +0.241 HD
ENDBRANCH  21  24
ENDBRANCH  19  22
ENDBRANCH  18  19
ENDBRANCH  17  18
ENDBRANCH  16  17
ENDBRANCH  15  16
ENDBRANCH  14  15
ENDBRANCH   2  14
TORSDOF 10
ENDMDL
MODEL 2
REMARK VINA RESULT:      -9.2      0.542      1.161
REMARK  Name = 3994
REMARK  10 active torsions:
REMARK  status: ('A' for Active; 'I' for Inactive)
REMARK    1  A    between atoms: N_2  and  C_14
REMARK    2  A    between atoms: C_3  and  C_5
REMARK    3  A    between atoms: C_6  and  N_11
REMARK    4  A    between atoms: C_14  and  C_15
REMARK    5  A    between atoms: C_15  and  C_16
REMARK    6  A    between atoms: C_16  and  C_17
REMARK    7  A    between atoms: C_17  and  C_18
REMARK    8  A    between atoms: C_18  and  C_19
REMARK    9  A    between atoms: C_19  and  C_22
REMARK   10  A    between atoms: N_21  and  O_24
REMARK                            x       y       z     vdW  Elec       q    Type
REMARK                         _______ _______ _______ _____ _____    ______ ____
ROOT
ATOM      1  O   UNL     1      33.831 -23.917 -19.340  0.00  0.00    -0.270 OA
ATOM      2  N   UNL     1      33.583 -22.620 -17.432  0.00  0.00    -0.301 N 
ATOM      3  C   UNL     1      33.842 -22.822 -18.782  0.00  0.00    +0.246 C 
ATOM      4  H   UNL     1      33.616 -21.702 -17.077  0.00  0.00    +0.150 HD
ENDROOT
BRANCH   3   5
ATOM      5  C   UNL     1      34.175 -21.609 -19.573  0.00  0.00    +0.053 C 
ATOM      6  C   UNL     1      34.800 -19.332 -21.058  0.00  0.00    +0.048 C 
ATOM      7  C   UNL     1      35.507 -21.297 -19.843  0.00  0.00    +0.006 C 
ATOM      8  C   UNL     1      33.156 -20.783 -20.044  0.00  0.00    +0.006 C 
ATOM      9  C   UNL     1      35.820 -20.159 -20.586  0.00  0.00    +0.015 C 
ATOM     10  C   UNL     1      33.468 -19.643 -20.787  0.00  0.00    +0.015 C 
BRANCH   6  11
ATOM     11  N   UNL     1      35.116 -18.181 -21.810  0.00  0.00    -0.304 N 
ATOM     12  C   UNL     1      34.931 -16.860 -21.243  0.00  0.00    +0.112 C 
ATOM     13  C   UNL     1      35.646 -18.305 -23.154  0.00  0.00    +0.112 C 
ENDBRANCH   6  11
ENDBRANCH   3   5
BRANCH   2  14
ATOM     14  C   UNL     1      33.271 -23.696 -16.532  0.00  0.00    +0.090 C 
BRANCH  14  15
ATOM     15  C   UNL     1      33.297 -23.237 -15.079  0.00  0.00    +0.021 C 
BRANCH  15  16
ATOM     16  C   UNL     1      32.036 -23.675 -14.334  0.00  0.00    +0.002 C 
BRANCH  16  17
ATOM     17  C   UNL     1      30.886 -22.691 -14.558  0.00  0.00    +0.001 C 
BRANCH  17  18
ATOM     18  C   UNL     1      29.631 -23.410 -15.060  0.00  0.00    +0.010 C 
BRANCH  18  19
ATOM     19  C   UNL     1      29.337 -23.106 -16.529  0.00  0.00    +0.087 C 
BRANCH  19  22
ATOM     20  O   UNL     1      27.349 -23.156 -17.911  0.00  0.00    -0.273 OA
ATOM     21  N   UNL     1      27.200 -22.353 -15.752  0.00  0.00    -0.197 N 
ATOM     22  C   UNL     1      27.862 -22.895 -16.826  0.00  0.00    +0.244 C 
ATOM     23  H   UNL     1      27.655 -22.159 -14.900  0.00  0.00    +0.182 HD
BRANCH  21  24
ATOM     24  O   UNL     1      25.837 -22.092 -15.944  0.00  0.00    -0.295 OA
ATOM     25  H   UNL     1      25.362 -22.230 -15.109  0.00  0.00    +0.241 HD
ENDBRANCH  21  24
ENDBRANCH  19  22
ENDBRANCH  18  19
ENDBRANCH  17  18
ENDBRANCH  16  17
ENDBRANCH  15  16
ENDBRANCH  14  15
ENDBRANCH   2  14
TORSDOF 10
ENDMDL
MODEL 3
REMARK VINA RESULT:      -9.1      3.533      5.795
REMARK  Name = 3994
REMARK  10 active torsions:
REMARK  status: ('A' for Active; 'I' for Inactive)
REMARK    1  A    between atoms: N_2  and  C_14
REMARK    2  A    between atoms: C_3  and  C_5
REMARK    3  A    between atoms: C_6  and  N_11
REMARK    4  A    between atoms: C_14  and  C_15
REMARK    5  A    between atoms: C_15  and  C_16
REMARK    6  A    between atoms: C_16  and  C_17
REMARK    7  A    between atoms: C_17  and  C_18
REMARK    8  A    between atoms: C_18  and  C_19
REMARK    9  A    between atoms: C_19  and  C_22
REMARK   10  A    between atoms: N_21  and  O_24
REMARK                            x       y       z     vdW  Elec       q    Type
REMARK                         _______ _______ _______ _____ _____    ______ ____
ROOT
ATOM      1  O   UNL     1      33.844 -23.893 -19.273  0.00  0.00    -0.270 OA
ATOM      2  N   UNL     1      34.051 -22.635 -17.335  0.00  0.00    -0.301 N 
ATOM      3  C   UNL     1      34.034 -22.816 -18.712  0.00  0.00    +0.246 C 
ATOM      4  H   UNL     1      34.212 -21.731 -16.979  0.00  0.00    +0.150 HD
ENDROOT
BRANCH   3   5
ATOM      5  C   UNL     1      34.290 -21.607 -19.535  0.00  0.00    +0.053 C 
ATOM      6  C   UNL     1      34.773 -19.334 -21.080  0.00  0.00    +0.048 C 
ATOM      7  C   UNL     1      35.599 -21.247 -19.858  0.00  0.00    +0.006 C 
ATOM      8  C   UNL     1      33.223 -20.829 -19.984  0.00  0.00    +0.006 C 
ATOM      9  C   UNL     1      35.841 -20.111 -20.630  0.00  0.00    +0.015 C 
ATOM     10  C   UNL     1      33.464 -19.692 -20.757  0.00  0.00    +0.015 C 
BRANCH   6  11
ATOM     11  N   UNL     1      35.016 -18.186 -21.862  0.00  0.00    -0.304 N 
ATOM     12  C   UNL     1      34.887 -16.863 -21.284  0.00  0.00    +0.112 C 
ATOM     13  C   UNL     1      35.414 -18.314 -23.250  0.00  0.00    +0.112 C 
ENDBRANCH   6  11
ENDBRANCH   3   5
BRANCH   2  14
ATOM     14  C   UNL     1      33.844 -23.713 -16.407  0.00  0.00    +0.090 C 
BRANCH  14  15
ATOM     15  C   UNL     1      34.230 -23.313 -14.988  0.00  0.00    +0.021 C 
BRANCH  15  16
ATOM     16  C   UNL     1      35.743 -23.382 -14.782  0.00  0.00    +0.002 C 
BRANCH  16  17
ATOM     17  C   UNL     1      36.097 -23.569 -13.306  0.00  0.00    +0.001 C 
BRANCH  17  18
ATOM     18  C   UNL     1      37.341 -24.447 -13.141  0.00  0.00    +0.010 C 
BRANCH  18  19
ATOM     19  C   UNL     1      37.010 -25.938 -13.184  0.00  0.00    +0.087 C 
BRANCH  19  22
ATOM     20  O   UNL     1      38.605 -26.885 -14.741  0.00  0.00    -0.273 OA
ATOM     21  N   UNL     1      36.363 -26.873 -15.292  0.00  0.00    -0.197 N 
ATOM     22  C   UNL     1      37.436 -26.622 -14.472  0.00  0.00    +0.244 C 
ATOM     23  H   UNL     1      35.441 -26.643 -15.033  0.00  0.00    +0.182 HD
BRANCH  21  24
ATOM     24  O   UNL     1      36.663 -27.476 -16.521  0.00  0.00    -0.295 OA
ATOM     25  H   UNL     1      37.621 -27.613 -16.588  0.00  0.00    +0.241 HD
ENDBRANCH  21  24
ENDBRANCH  19  22
ENDBRANCH  18  19
ENDBRANCH  17  18
ENDBRANCH  16  17
ENDBRANCH  15  16
ENDBRANCH  14  15
ENDBRANCH   2  14
TORSDOF 10
ENDMDL
MODEL 4
REMARK VINA RESULT:      -9.1      3.014      5.059
REMARK  Name = 3994
REMARK  10 active torsions:
REMARK  status: ('A' for Active; 'I' for Inactive)
REMARK    1  A    between atoms: N_2  and  C_14
REMARK    2  A    between atoms: C_3  and  C_5
REMARK    3  A    between atoms: C_6  and  N_11
REMARK    4  A    between atoms: C_14  and  C_15
REMARK    5  A    between atoms: C_15  and  C_16
REMARK    6  A    between atoms: C_16  and  C_17
REMARK    7  A    between atoms: C_17  and  C_18
REMARK    8  A    between atoms: C_18  and  C_19
REMARK    9  A    between atoms: C_19  and  C_22
REMARK   10  A    between atoms: N_21  and  O_24
REMARK                            x       y       z     vdW  Elec       q    Type
REMARK                         _______ _______ _______ _____ _____    ______ ____
ROOT
ATOM      1  O   UNL     1      34.374 -23.418 -17.703  0.00  0.00    -0.270 OA
ATOM      2  N   UNL     1      32.180 -22.663 -17.695  0.00  0.00    -0.301 N 
ATOM      3  C   UNL     1      33.501 -22.662 -18.124  0.00  0.00    +0.246 C 
ATOM      4  H   UNL     1      31.553 -22.017 -18.093  0.00  0.00    +0.150 HD
ENDROOT
BRANCH   3   5
ATOM      5  C   UNL     1      33.855 -21.647 -19.149  0.00  0.00    +0.053 C 
ATOM      6  C   UNL     1      34.519 -19.739 -21.073  0.00  0.00    +0.048 C 
ATOM      7  C   UNL     1      35.188 -21.460 -19.516  0.00  0.00    +0.006 C 
ATOM      8  C   UNL     1      32.854 -20.879 -19.744  0.00  0.00    +0.006 C 
ATOM      9  C   UNL     1      35.520 -20.507 -20.478  0.00  0.00    +0.015 C 
ATOM     10  C   UNL     1      33.186 -19.925 -20.707  0.00  0.00    +0.015 C 
BRANCH   6  11
ATOM     11  N   UNL     1      34.854 -18.775 -22.047  0.00  0.00    -0.304 N 
ATOM     12  C   UNL     1      34.789 -19.102 -23.458  0.00  0.00    +0.112 C 
ATOM     13  C   UNL     1      35.255 -17.439 -21.650  0.00  0.00    +0.112 C 
ENDBRANCH   6  11
ENDBRANCH   3   5
BRANCH   2  14
ATOM     14  C   UNL     1      31.691 -23.569 -16.691  0.00  0.00    +0.090 C 
BRANCH  14  15
ATOM     15  C   UNL     1      31.081 -22.821 -15.511  0.00  0.00    +0.021 C 
BRANCH  15  16
ATOM     16  C   UNL     1      31.868 -23.076 -14.225  0.00  0.00    +0.002 C 
BRANCH  16  17
ATOM     17  C   UNL     1      32.917 -24.172 -14.422  0.00  0.00    +0.001 C 
BRANCH  17  18
ATOM     18  C   UNL     1      34.332 -23.629 -14.205  0.00  0.00    +0.010 C 
BRANCH  18  19
ATOM     19  C   UNL     1      35.315 -24.721 -13.784  0.00  0.00    +0.087 C 
BRANCH  19  22
ATOM     20  O   UNL     1      36.953 -24.525 -15.558  0.00  0.00    -0.273 OA
ATOM     21  N   UNL     1      35.960 -26.572 -15.161  0.00  0.00    -0.197 N 
ATOM     22  C   UNL     1      36.179 -25.237 -14.922  0.00  0.00    +0.244 C 
ATOM     23  H   UNL     1      35.328 -27.103 -14.624  0.00  0.00    +0.182 HD
BRANCH  21  24
ATOM     24  O   UNL     1      36.693 -27.131 -16.216  0.00  0.00    -0.295 OA
ATOM     25  H   UNL     1      37.572 -27.388 -15.898  0.00  0.00    +0.241 HD
ENDBRANCH  21  24
ENDBRANCH  19  22
ENDBRANCH  18  19
ENDBRANCH  17  18
ENDBRANCH  16  17
ENDBRANCH  15  16
ENDBRANCH  14  15
ENDBRANCH   2  14
TORSDOF 10
ENDMDL
MODEL 5
REMARK VINA RESULT:      -9.0      3.561      5.702
REMARK  Name = 3994
REMARK  10 active torsions:
REMARK  status: ('A' for Active; 'I' for Inactive)
REMARK    1  A    between atoms: N_2  and  C_14
REMARK    2  A    between atoms: C_3  and  C_5
REMARK    3  A    between atoms: C_6  and  N_11
REMARK    4  A    between atoms: C_14  and  C_15
REMARK    5  A    between atoms: C_15  and  C_16
REMARK    6  A    between atoms: C_16  and  C_17
REMARK    7  A    between atoms: C_17  and  C_18
REMARK    8  A    between atoms: C_18  and  C_19
REMARK    9  A    between atoms: C_19  and  C_22
REMARK   10  A    between atoms: N_21  and  O_24
REMARK                            x       y       z     vdW  Elec       q    Type
REMARK                         _______ _______ _______ _____ _____    ______ ____
ROOT
ATOM      1  O   UNL     1      33.841 -23.869 -19.224  0.00  0.00    -0.270 OA
ATOM      2  N   UNL     1      34.109 -22.601 -17.300  0.00  0.00    -0.301 N 
ATOM      3  C   UNL     1      34.051 -22.790 -18.675  0.00  0.00    +0.246 C 
ATOM      4  H   UNL     1      34.283 -21.695 -16.954  0.00  0.00    +0.150 HD
ENDROOT
BRANCH   3   5
ATOM      5  C   UNL     1      34.288 -21.586 -19.511  0.00  0.00    +0.053 C 
ATOM      6  C   UNL     1      34.733 -19.323 -21.082  0.00  0.00    +0.048 C 
ATOM      7  C   UNL     1      33.209 -20.821 -19.955  0.00  0.00    +0.006 C 
ATOM      8  C   UNL     1      35.589 -21.219 -19.854  0.00  0.00    +0.006 C 
ATOM      9  C   UNL     1      33.431 -19.689 -20.740  0.00  0.00    +0.015 C 
ATOM     10  C   UNL     1      35.812 -20.088 -20.639  0.00  0.00    +0.015 C 
BRANCH   6  11
ATOM     11  N   UNL     1      34.958 -18.179 -21.875  0.00  0.00    -0.304 N 
ATOM     12  C   UNL     1      34.548 -16.869 -21.409  0.00  0.00    +0.112 C 
ATOM     13  C   UNL     1      35.618 -18.296 -23.162  0.00  0.00    +0.112 C 
ENDBRANCH   6  11
ENDBRANCH   3   5
BRANCH   2  14
ATOM     14  C   UNL     1      33.925 -23.673 -16.360  0.00  0.00    +0.090 C 
BRANCH  14  15
ATOM     15  C   UNL     1      34.648 -23.397 -15.047  0.00  0.00    +0.021 C 
BRANCH  15  16
ATOM     16  C   UNL     1      36.011 -22.749 -15.289  0.00  0.00    +0.002 C 
BRANCH  16  17
ATOM     17  C   UNL     1      37.151 -23.740 -15.043  0.00  0.00    +0.001 C 
BRANCH  17  18
ATOM     18  C   UNL     1      37.168 -24.216 -13.588  0.00  0.00    +0.010 C 
BRANCH  18  19
ATOM     19  C   UNL     1      36.846 -25.704 -13.460  0.00  0.00    +0.087 C 
BRANCH  19  22
ATOM     20  O   UNL     1      38.525 -26.858 -14.769  0.00  0.00    -0.273 OA
ATOM     21  N   UNL     1      36.333 -26.862 -15.493  0.00  0.00    -0.197 N 
ATOM     22  C   UNL     1      37.347 -26.541 -14.624  0.00  0.00    +0.244 C 
ATOM     23  H   UNL     1      35.401 -26.585 -15.335  0.00  0.00    +0.182 HD
BRANCH  21  24
ATOM     24  O   UNL     1      36.706 -27.609 -16.617  0.00  0.00    -0.295 OA
ATOM     25  H   UNL     1      37.472 -28.162 -16.398  0.00  0.00    +0.241 HD
ENDBRANCH  21  24
ENDBRANCH  19  22
ENDBRANCH  18  19
ENDBRANCH  17  18
ENDBRANCH  16  17
ENDBRANCH  15  16
ENDBRANCH  14  15
ENDBRANCH   2  14
TORSDOF 10
ENDMDL
MODEL 6
REMARK VINA RESULT:      -8.6      3.774      5.990
REMARK  Name = 3994
REMARK  10 active torsions:
REMARK  status: ('A' for Active; 'I' for Inactive)
REMARK    1  A    between atoms: N_2  and  C_14
REMARK    2  A    between atoms: C_3  and  C_5
REMARK    3  A    between atoms: C_6  and  N_11
REMARK    4  A    between atoms: C_14  and  C_15
REMARK    5  A    between atoms: C_15  and  C_16
REMARK    6  A    between atoms: C_16  and  C_17
REMARK    7  A    between atoms: C_17  and  C_18
REMARK    8  A    between atoms: C_18  and  C_19
REMARK    9  A    between atoms: C_19  and  C_22
REMARK   10  A    between atoms: N_21  and  O_24
REMARK                            x       y       z     vdW  Elec       q    Type
REMARK                         _______ _______ _______ _____ _____    ______ ____
ROOT
ATOM      1  O   UNL     1      33.513 -23.942 -18.553  0.00  0.00    -0.270 OA
ATOM      2  N   UNL     1      34.593 -22.719 -16.905  0.00  0.00    -0.301 N 
ATOM      3  C   UNL     1      34.090 -22.922 -18.183  0.00  0.00    +0.246 C 
ATOM      4  H   UNL     1      35.042 -21.865 -16.703  0.00  0.00    +0.150 HD
ENDROOT
BRANCH   3   5
ATOM      5  C   UNL     1      34.303 -21.818 -19.153  0.00  0.00    +0.053 C 
ATOM      6  C   UNL     1      34.703 -19.743 -20.976  0.00  0.00    +0.048 C 
ATOM      7  C   UNL     1      35.598 -21.415 -19.479  0.00  0.00    +0.006 C 
ATOM      8  C   UNL     1      33.208 -21.182 -19.738  0.00  0.00    +0.006 C 
ATOM      9  C   UNL     1      35.798 -20.378 -20.391  0.00  0.00    +0.015 C 
ATOM     10  C   UNL     1      33.407 -20.144 -20.650  0.00  0.00    +0.015 C 
BRANCH   6  11
ATOM     11  N   UNL     1      34.905 -18.695 -21.897  0.00  0.00    -0.304 N 
ATOM     12  C   UNL     1      34.803 -18.940 -23.322  0.00  0.00    +0.112 C 
ATOM     13  C   UNL     1      35.201 -17.354 -21.431  0.00  0.00    +0.112 C 
ENDBRANCH   6  11
ENDBRANCH   3   5
BRANCH   2  14
ATOM     14  C   UNL     1      34.488 -23.703 -15.863  0.00  0.00    +0.090 C 
BRANCH  14  15
ATOM     15  C   UNL     1      35.346 -23.338 -14.657  0.00  0.00    +0.021 C 
BRANCH  15  16
ATOM     16  C   UNL     1      36.834 -23.359 -15.008  0.00  0.00    +0.002 C 
BRANCH  16  17
ATOM     17  C   UNL     1      37.413 -24.771 -14.895  0.00  0.00    +0.001 C 
BRANCH  17  18
ATOM     18  C   UNL     1      38.371 -24.883 -13.706  0.00  0.00    +0.010 C 
BRANCH  18  19
ATOM     19  C   UNL     1      37.909 -24.056 -12.507  0.00  0.00    +0.087 C 
BRANCH  19  22
ATOM     20  O   UNL     1      36.627 -25.964 -11.746  0.00  0.00    -0.273 OA
ATOM     21  N   UNL     1      36.382 -23.938 -10.665  0.00  0.00    -0.197 N 
ATOM     22  C   UNL     1      36.919 -24.779 -11.610  0.00  0.00    +0.244 C 
ATOM     23  H   UNL     1      36.648 -22.992 -10.595  0.00  0.00    +0.182 HD
BRANCH  21  24
ATOM     24  O   UNL     1      35.433 -24.511  -9.809  0.00  0.00    -0.295 OA
ATOM     25  H   UNL     1      35.845 -25.229  -9.303  0.00  0.00    +0.241 HD
ENDBRANCH  21  24
ENDBRANCH  19  22
ENDBRANCH  18  19
ENDBRANCH  17  18
ENDBRANCH  16  17
ENDBRANCH  15  16
ENDBRANCH  14  15
ENDBRANCH   2  14
TORSDOF 10
ENDMDL
MODEL 7
REMARK VINA RESULT:      -8.6      6.285      9.693
REMARK  Name = 3994
REMARK  10 active torsions:
REMARK  status: ('A' for Active; 'I' for Inactive)
REMARK    1  A    between atoms: N_2  and  C_14
REMARK    2  A    between atoms: C_3  and  C_5
REMARK    3  A    between atoms: C_6  and  N_11
REMARK    4  A    between atoms: C_14  and  C_15
REMARK    5  A    between atoms: C_15  and  C_16
REMARK    6  A    between atoms: C_16  and  C_17
REMARK    7  A    between atoms: C_17  and  C_18
REMARK    8  A    between atoms: C_18  and  C_19
REMARK    9  A    between atoms: C_19  and  C_22
REMARK   10  A    between atoms: N_21  and  O_24
REMARK                            x       y       z     vdW  Elec       q    Type
REMARK                         _______ _______ _______ _____ _____    ______ ____
ROOT
ATOM      1  O   UNL     1      34.624 -17.165 -23.971  0.00  0.00    -0.270 OA
ATOM      2  N   UNL     1      34.696 -15.754 -22.130  0.00  0.00    -0.301 N 
ATOM      3  C   UNL     1      34.735 -16.993 -22.759  0.00  0.00    +0.246 C 
ATOM      4  H   UNL     1      34.794 -15.718 -21.151  0.00  0.00    +0.150 HD
ENDROOT
BRANCH   3   5
ATOM      5  C   UNL     1      34.900 -18.172 -21.871  0.00  0.00    +0.053 C 
ATOM      6  C   UNL     1      35.210 -20.387 -20.205  0.00  0.00    +0.048 C 
ATOM      7  C   UNL     1      33.781 -18.890 -21.450  0.00  0.00    +0.006 C 
ATOM      8  C   UNL     1      36.174 -18.561 -21.459  0.00  0.00    +0.006 C 
ATOM      9  C   UNL     1      33.936 -19.998 -20.617  0.00  0.00    +0.015 C 
ATOM     10  C   UNL     1      36.330 -19.670 -20.625  0.00  0.00    +0.015 C 
BRANCH   6  11
ATOM     11  N   UNL     1      35.367 -21.508 -19.362  0.00  0.00    -0.304 N 
ATOM     12  C   UNL     1      36.564 -21.661 -18.559  0.00  0.00    +0.112 C 
ATOM     13  C   UNL     1      34.325 -22.513 -19.277  0.00  0.00    +0.112 C 
ENDBRANCH   6  11
ENDBRANCH   3   5
BRANCH   2  14
ATOM     14  C   UNL     1      34.517 -14.523 -22.850  0.00  0.00    +0.090 C 
BRANCH  14  15
ATOM     15  C   UNL     1      33.053 -14.099 -22.881  0.00  0.00    +0.021 C 
BRANCH  15  16
ATOM     16  C   UNL     1      32.337 -14.479 -21.585  0.00  0.00    +0.002 C 
BRANCH  16  17
ATOM     17  C   UNL     1      32.388 -13.340 -20.565  0.00  0.00    +0.001 C 
BRANCH  17  18
ATOM     18  C   UNL     1      31.598 -12.123 -21.054  0.00  0.00    +0.010 C 
BRANCH  18  19
ATOM     19  C   UNL     1      31.444 -11.056 -19.971  0.00  0.00    +0.087 C 
BRANCH  19  22
ATOM     20  O   UNL     1      31.711  -9.225 -21.533  0.00  0.00    -0.273 OA
ATOM     21  N   UNL     1      32.566  -9.019 -19.398  0.00  0.00    -0.197 N 
ATOM     22  C   UNL     1      31.900  -9.674 -20.405  0.00  0.00    +0.244 C 
ATOM     23  H   UNL     1      32.693  -9.420 -18.507  0.00  0.00    +0.182 HD
BRANCH  21  24
ATOM     24  O   UNL     1      33.052  -7.744 -19.716  0.00  0.00    -0.295 OA
ATOM     25  H   UNL     1      33.467  -7.352 -18.932  0.00  0.00    +0.241 HD
ENDBRANCH  21  24
ENDBRANCH  19  22
ENDBRANCH  18  19
ENDBRANCH  17  18
ENDBRANCH  16  17
ENDBRANCH  15  16
ENDBRANCH  14  15
ENDBRANCH   2  14
TORSDOF 10
ENDMDL
MODEL 8
REMARK VINA RESULT:      -8.6      3.633      5.916
REMARK  Name = 3994
REMARK  10 active torsions:
REMARK  status: ('A' for Active; 'I' for Inactive)
REMARK    1  A    between atoms: N_2  and  C_14
REMARK    2  A    between atoms: C_3  and  C_5
REMARK    3  A    between atoms: C_6  and  N_11
REMARK    4  A    between atoms: C_14  and  C_15
REMARK    5  A    between atoms: C_15  and  C_16
REMARK    6  A    between atoms: C_16  and  C_17
REMARK    7  A    between atoms: C_17  and  C_18
REMARK    8  A    between atoms: C_18  and  C_19
REMARK    9  A    between atoms: C_19  and  C_22
REMARK   10  A    between atoms: N_21  and  O_24
REMARK                            x       y       z     vdW  Elec       q    Type
REMARK                         _______ _______ _______ _____ _____    ______ ____
ROOT
ATOM      1  O   UNL     1      33.905 -23.738 -19.591  0.00  0.00    -0.270 OA
ATOM      2  N   UNL     1      34.062 -22.592 -17.580  0.00  0.00    -0.301 N 
ATOM      3  C   UNL     1      34.059 -22.691 -18.966  0.00  0.00    +0.246 C 
ATOM      4  H   UNL     1      34.193 -21.706 -17.170  0.00  0.00    +0.150 HD
ENDROOT
BRANCH   3   5
ATOM      5  C   UNL     1      34.285 -21.428 -19.713  0.00  0.00    +0.053 C 
ATOM      6  C   UNL     1      34.709 -19.053 -21.115  0.00  0.00    +0.048 C 
ATOM      7  C   UNL     1      33.198 -20.687 -20.177  0.00  0.00    +0.006 C 
ATOM      8  C   UNL     1      35.584 -20.981 -19.951  0.00  0.00    +0.006 C 
ATOM      9  C   UNL     1      33.409 -19.500 -20.877  0.00  0.00    +0.015 C 
ATOM     10  C   UNL     1      35.797 -19.793 -20.652  0.00  0.00    +0.015 C 
BRANCH   6  11
ATOM     11  N   UNL     1      34.924 -17.852 -21.823  0.00  0.00    -0.304 N 
ATOM     12  C   UNL     1      35.306 -17.882 -23.221  0.00  0.00    +0.112 C 
ATOM     13  C   UNL     1      34.750 -16.571 -21.166  0.00  0.00    +0.112 C 
ENDBRANCH   6  11
ENDBRANCH   3   5
BRANCH   2  14
ATOM     14  C   UNL     1      33.881 -23.729 -16.720  0.00  0.00    +0.090 C 
BRANCH  14  15
ATOM     15  C   UNL     1      33.768 -23.313 -15.258  0.00  0.00    +0.021 C 
BRANCH  15  16
ATOM     16  C   UNL     1      35.145 -23.063 -14.643  0.00  0.00    +0.002 C 
BRANCH  16  17
ATOM     17  C   UNL     1      36.150 -24.134 -15.072  0.00  0.00    +0.001 C 
BRANCH  17  18
ATOM     18  C   UNL     1      37.550 -23.826 -14.536  0.00  0.00    +0.010 C 
BRANCH  18  19
ATOM     19  C   UNL     1      37.911 -24.685 -13.325  0.00  0.00    +0.087 C 
BRANCH  19  22
ATOM     20  O   UNL     1      38.564 -23.100 -11.614  0.00  0.00    -0.273 OA
ATOM     21  N   UNL     1      36.687 -24.403 -11.285  0.00  0.00    -0.197 N 
ATOM     22  C   UNL     1      37.774 -23.958 -11.998  0.00  0.00    +0.244 C 
ATOM     23  H   UNL     1      36.080 -25.095 -11.634  0.00  0.00    +0.182 HD
BRANCH  21  24
ATOM     24  O   UNL     1      36.497 -23.810 -10.030  0.00  0.00    -0.295 OA
ATOM     25  H   UNL     1      37.013 -22.991  -9.978  0.00  0.00    +0.241 HD
ENDBRANCH  21  24
ENDBRANCH  19  22
ENDBRANCH  18  19
ENDBRANCH  17  18
ENDBRANCH  16  17
ENDBRANCH  15  16
ENDBRANCH  14  15
ENDBRANCH   2  14
TORSDOF 10
ENDMDL
MODEL 9
REMARK VINA RESULT:      -8.5      7.811     12.339
REMARK  Name = 3994
REMARK  10 active torsions:
REMARK  status: ('A' for Active; 'I' for Inactive)
REMARK    1  A    between atoms: N_2  and  C_14
REMARK    2  A    between atoms: C_3  and  C_5
REMARK    3  A    between atoms: C_6  and  N_11
REMARK    4  A    between atoms: C_14  and  C_15
REMARK    5  A    between atoms: C_15  and  C_16
REMARK    6  A    between atoms: C_16  and  C_17
REMARK    7  A    between atoms: C_17  and  C_18
REMARK    8  A    between atoms: C_18  and  C_19
REMARK    9  A    between atoms: C_19  and  C_22
REMARK   10  A    between atoms: N_21  and  O_24
REMARK                            x       y       z     vdW  Elec       q    Type
REMARK                         _______ _______ _______ _____ _____    ______ ____
ROOT
ATOM      1  O   UNL     1      32.225 -12.503 -22.726  0.00  0.00    -0.270 OA
ATOM      2  N   UNL     1      34.130 -11.934 -23.921  0.00  0.00    -0.301 N 
ATOM      3  C   UNL     1      33.309 -12.807 -23.217  0.00  0.00    +0.246 C 
ATOM      4  H   UNL     1      34.984 -12.273 -24.278  0.00  0.00    +0.150 HD
ENDROOT
BRANCH   3   5
ATOM      5  C   UNL     1      33.820 -14.191 -23.045  0.00  0.00    +0.053 C 
ATOM      6  C   UNL     1      34.780 -16.790 -22.722  0.00  0.00    +0.048 C 
ATOM      7  C   UNL     1      34.202 -14.642 -21.781  0.00  0.00    +0.006 C 
ATOM      8  C   UNL     1      33.919 -15.039 -24.147  0.00  0.00    +0.006 C 
ATOM      9  C   UNL     1      34.681 -15.941 -21.619  0.00  0.00    +0.015 C 
ATOM     10  C   UNL     1      34.399 -16.340 -23.986  0.00  0.00    +0.015 C 
BRANCH   6  11
ATOM     11  N   UNL     1      35.264 -18.105 -22.558  0.00  0.00    -0.304 N 
ATOM     12  C   UNL     1      35.086 -19.089 -23.607  0.00  0.00    +0.112 C 
ATOM     13  C   UNL     1      35.961 -18.484 -21.344  0.00  0.00    +0.112 C 
ENDBRANCH   6  11
ENDBRANCH   3   5
BRANCH   2  14
ATOM     14  C   UNL     1      33.786 -10.558 -24.150  0.00  0.00    +0.090 C 
BRANCH  14  15
ATOM     15  C   UNL     1      35.028  -9.688 -24.305  0.00  0.00    +0.021 C 
BRANCH  15  16
ATOM     16  C   UNL     1      34.656  -8.223 -24.536  0.00  0.00    +0.002 C 
BRANCH  16  17
ATOM     17  C   UNL     1      34.460  -7.482 -23.212  0.00  0.00    +0.001 C 
BRANCH  17  18
ATOM     18  C   UNL     1      32.996  -7.079 -23.014  0.00  0.00    +0.010 C 
BRANCH  18  19
ATOM     19  C   UNL     1      32.601  -7.030 -21.539  0.00  0.00    +0.087 C 
BRANCH  19  22
ATOM     20  O   UNL     1      31.920  -9.354 -21.532  0.00  0.00    -0.273 OA
ATOM     21  N   UNL     1      32.754  -8.418 -19.592  0.00  0.00    -0.197 N 
ATOM     22  C   UNL     1      32.389  -8.399 -20.917  0.00  0.00    +0.244 C 
ATOM     23  H   UNL     1      33.126  -7.625 -19.141  0.00  0.00    +0.182 HD
BRANCH  21  24
ATOM     24  O   UNL     1      32.564  -9.634 -18.925  0.00  0.00    -0.295 OA
ATOM     25  H   UNL     1      32.139 -10.269 -19.523  0.00  0.00    +0.241 HD
ENDBRANCH  21  24
ENDBRANCH  19  22
ENDBRANCH  18  19
ENDBRANCH  17  18
ENDBRANCH  16  17
ENDBRANCH  15  16
ENDBRANCH  14  15
ENDBRANCH   2  14
TORSDOF 10
ENDMDL
