MODEL 1
REMARK VINA RESULT:      -6.7      0.000      0.000
REMARK  Name = 98487
REMARK  2 active torsions:
REMARK  status: ('A' for Active; 'I' for Inactive)
REMARK    1  A    between atoms: C_1  and  C_9
REMARK    2  A    between atoms: C_2  and  O_12
REMARK                            x       y       z     vdW  Elec       q    Type
REMARK                         _______ _______ _______ _____ _____    ______ ____
ROOT
ATOM      1  C   UNL     1      34.562 -21.281 -19.828  0.00  0.00    +0.056 C 
ATOM      2  C   UNL     1      34.755 -19.155 -20.961  0.00  0.00    +0.139 C 
ATOM      3  C   UNL     1      33.965 -20.190 -20.460  0.00  0.00    +0.041 C 
ATOM      4  C   UNL     1      35.950 -21.336 -19.697  0.00  0.00    +0.005 C 
ATOM      5  C   UNL     1      36.143 -19.211 -20.829  0.00  0.00    +0.037 C 
ATOM      6  C   UNL     1      36.741 -20.302 -20.197  0.00  0.00    +0.003 C 
ENDROOT
BRANCH   1   9
ATOM      7  O   UNL     1      34.061 -23.551 -19.455  0.00  0.00    -0.270 OA
ATOM      8  N   UNL     1      32.581 -22.014 -18.616  0.00  0.00    -0.325 N 
ATOM      9  C   UNL     1      33.739 -22.359 -19.306  0.00  0.00    +0.243 C 
ATOM     10  H   UNL     1      31.999 -22.718 -18.248  0.00  0.00    +0.145 HD
ATOM     11  H   UNL     1      32.343 -21.066 -18.495  0.00  0.00    +0.145 HD
ENDBRANCH   1   9
BRANCH   2  12
ATOM     12  O   UNL     1      34.173 -18.091 -21.577  0.00  0.00    -0.471 OA
ATOM     13  C   UNL     1      34.740 -16.805 -21.327  0.00  0.00    +0.252 C 
ENDBRANCH   2  12
TORSDOF 2
ENDMDL
MODEL 2
REMARK VINA RESULT:      -6.6      2.022      4.280
REMARK  Name = 98487
REMARK  2 active torsions:
REMARK  status: ('A' for Active; 'I' for Inactive)
REMARK    1  A    between atoms: C_1  and  C_9
REMARK    2  A    between atoms: C_2  and  O_12
REMARK                            x       y       z     vdW  Elec       q    Type
REMARK                         _______ _______ _______ _____ _____    ______ ____
ROOT
ATOM      1  C   UNL     1      34.655 -19.920 -20.739  0.00  0.00    +0.056 C 
ATOM      2  C   UNL     1      33.783 -21.651 -19.296  0.00  0.00    +0.139 C 
ATOM      3  C   UNL     1      33.569 -20.589 -20.175  0.00  0.00    +0.041 C 
ATOM      4  C   UNL     1      35.956 -20.313 -20.423  0.00  0.00    +0.005 C 
ATOM      5  C   UNL     1      35.083 -22.043 -18.980  0.00  0.00    +0.037 C 
ATOM      6  C   UNL     1      36.170 -21.375 -19.544  0.00  0.00    +0.003 C 
ENDROOT
BRANCH   1   9
ATOM      7  O   UNL     1      34.176 -17.670 -21.240  0.00  0.00    -0.270 OA
ATOM      8  N   UNL     1      34.534 -19.073 -23.019  0.00  0.00    -0.325 N 
ATOM      9  C   UNL     1      34.433 -18.814 -21.655  0.00  0.00    +0.243 C 
ATOM     10  H   UNL     1      34.390 -18.347 -23.669  0.00  0.00    +0.145 HD
ATOM     11  H   UNL     1      34.750 -19.980 -23.334  0.00  0.00    +0.145 HD
ENDBRANCH   1   9
BRANCH   2  12
ATOM     12  O   UNL     1      32.723 -22.303 -18.746  0.00  0.00    -0.471 OA
ATOM     13  C   UNL     1      32.967 -23.053 -17.557  0.00  0.00    +0.252 C 
ENDBRANCH   2  12
TORSDOF 2
ENDMDL
MODEL 3
REMARK VINA RESULT:      -6.5      1.520      2.186
REMARK  Name = 98487
REMARK  2 active torsions:
REMARK  status: ('A' for Active; 'I' for Inactive)
REMARK    1  A    between atoms: C_1  and  C_9
REMARK    2  A    between atoms: C_2  and  O_12
REMARK                            x       y       z     vdW  Elec       q    Type
REMARK                         _______ _______ _______ _____ _____    ______ ____
ROOT
ATOM      1  C   UNL     1      34.290 -21.274 -19.568  0.00  0.00    +0.056 C 
ATOM      2  C   UNL     1      35.177 -19.553 -21.014  0.00  0.00    +0.139 C 
ATOM      3  C   UNL     1      35.381 -20.626 -20.146  0.00  0.00    +0.041 C 
ATOM      4  C   UNL     1      32.994 -20.848 -19.858  0.00  0.00    +0.005 C 
ATOM      5  C   UNL     1      33.880 -19.128 -21.303  0.00  0.00    +0.037 C 
ATOM      6  C   UNL     1      32.788 -19.776 -20.725  0.00  0.00    +0.003 C 
ENDROOT
BRANCH   1   9
ATOM      7  O   UNL     1      35.564 -22.519 -18.028  0.00  0.00    -0.270 OA
ATOM      8  N   UNL     1      33.468 -23.312 -18.517  0.00  0.00    -0.325 N 
ATOM      9  C   UNL     1      34.503 -22.392 -18.664  0.00  0.00    +0.243 C 
ATOM     10  H   UNL     1      33.577 -24.082 -17.912  0.00  0.00    +0.145 HD
ATOM     11  H   UNL     1      32.629 -23.193 -19.017  0.00  0.00    +0.145 HD
ENDBRANCH   1   9
BRANCH   2  12
ATOM     12  O   UNL     1      36.242 -18.922 -21.578  0.00  0.00    -0.471 OA
ATOM     13  C   UNL     1      35.994 -18.156 -22.756  0.00  0.00    +0.252 C 
ENDBRANCH   2  12
TORSDOF 2
ENDMDL
MODEL 4
REMARK VINA RESULT:      -6.5      4.598      5.755
REMARK  Name = 98487
REMARK  2 active torsions:
REMARK  status: ('A' for Active; 'I' for Inactive)
REMARK    1  A    between atoms: C_1  and  C_9
REMARK    2  A    between atoms: C_2  and  O_12
REMARK                            x       y       z     vdW  Elec       q    Type
REMARK                         _______ _______ _______ _____ _____    ______ ____
ROOT
ATOM      1  C   UNL     1      34.689 -16.645 -22.675  0.00  0.00    +0.056 C 
ATOM      2  C   UNL     1      34.266 -16.615 -25.054  0.00  0.00    +0.139 C 
ATOM      3  C   UNL     1      34.326 -15.950 -23.828  0.00  0.00    +0.041 C 
ATOM      4  C   UNL     1      34.993 -18.004 -22.747  0.00  0.00    +0.005 C 
ATOM      5  C   UNL     1      34.570 -17.974 -25.125  0.00  0.00    +0.037 C 
ATOM      6  C   UNL     1      34.934 -18.669 -23.972  0.00  0.00    +0.003 C 
ENDROOT
BRANCH   1   9
ATOM      7  O   UNL     1      35.166 -16.520 -20.373  0.00  0.00    -0.270 OA
ATOM      8  N   UNL     1      34.346 -14.621 -21.363  0.00  0.00    -0.325 N 
ATOM      9  C   UNL     1      34.751 -15.953 -21.399  0.00  0.00    +0.243 C 
ATOM     10  H   UNL     1      34.375 -14.121 -20.515  0.00  0.00    +0.145 HD
ATOM     11  H   UNL     1      34.032 -14.180 -22.185  0.00  0.00    +0.145 HD
ENDBRANCH   1   9
BRANCH   2  12
ATOM     12  O   UNL     1      33.911 -15.937 -26.179  0.00  0.00    -0.471 OA
ATOM     13  C   UNL     1      33.130 -14.755 -26.006  0.00  0.00    +0.252 C 
ENDBRANCH   2  12
TORSDOF 2
ENDMDL
MODEL 5
REMARK VINA RESULT:      -6.5      2.473      4.669
REMARK  Name = 98487
REMARK  2 active torsions:
REMARK  status: ('A' for Active; 'I' for Inactive)
REMARK    1  A    between atoms: C_1  and  C_9
REMARK    2  A    between atoms: C_2  and  O_12
REMARK                            x       y       z     vdW  Elec       q    Type
REMARK                         _______ _______ _______ _____ _____    ______ ____
ROOT
ATOM      1  C   UNL     1      34.803 -19.068 -21.214  0.00  0.00    +0.056 C 
ATOM      2  C   UNL     1      35.517 -20.958 -19.888  0.00  0.00    +0.139 C 
ATOM      3  C   UNL     1      35.826 -19.844 -20.670  0.00  0.00    +0.041 C 
ATOM      4  C   UNL     1      33.471 -19.406 -20.977  0.00  0.00    +0.005 C 
ATOM      5  C   UNL     1      34.184 -21.296 -19.652  0.00  0.00    +0.037 C 
ATOM      6  C   UNL     1      33.161 -20.519 -20.196  0.00  0.00    +0.003 C 
ENDROOT
BRANCH   1   9
ATOM      7  O   UNL     1      34.587 -16.805 -21.826  0.00  0.00    -0.270 OA
ATOM      8  N   UNL     1      36.073 -18.066 -23.035  0.00  0.00    -0.325 N 
ATOM      9  C   UNL     1      35.125 -17.908 -22.028  0.00  0.00    +0.243 C 
ATOM     10  H   UNL     1      36.316 -17.301 -23.606  0.00  0.00    +0.145 HD
ATOM     11  H   UNL     1      36.500 -18.941 -23.176  0.00  0.00    +0.145 HD
ENDBRANCH   1   9
BRANCH   2  12
ATOM     12  O   UNL     1      36.515 -21.715 -19.358  0.00  0.00    -0.471 OA
ATOM     13  C   UNL     1      36.675 -21.679 -17.940  0.00  0.00    +0.252 C 
ENDBRANCH   2  12
TORSDOF 2
ENDMDL
MODEL 6
REMARK VINA RESULT:      -6.3      2.926      4.084
REMARK  Name = 98487
REMARK  2 active torsions:
REMARK  status: ('A' for Active; 'I' for Inactive)
REMARK    1  A    between atoms: C_1  and  C_9
REMARK    2  A    between atoms: C_2  and  O_12
REMARK                            x       y       z     vdW  Elec       q    Type
REMARK                         _______ _______ _______ _____ _____    ______ ____
ROOT
ATOM      1  C   UNL     1      35.045 -18.655 -22.274  0.00  0.00    +0.056 C 
ATOM      2  C   UNL     1      34.964 -16.503 -23.371  0.00  0.00    +0.139 C 
ATOM      3  C   UNL     1      35.141 -17.265 -22.215  0.00  0.00    +0.041 C 
ATOM      4  C   UNL     1      34.773 -19.284 -23.489  0.00  0.00    +0.005 C 
ATOM      5  C   UNL     1      34.692 -17.133 -24.585  0.00  0.00    +0.037 C 
ATOM      6  C   UNL     1      34.596 -18.523 -24.645  0.00  0.00    +0.003 C 
ENDROOT
BRANCH   1   9
ATOM      7  O   UNL     1      34.335 -20.203 -20.648  0.00  0.00    -0.270 OA
ATOM      8  N   UNL     1      36.450 -19.349 -20.409  0.00  0.00    -0.325 N 
ATOM      9  C   UNL     1      35.229 -19.448 -21.070  0.00  0.00    +0.243 C 
ATOM     10  H   UNL     1      36.610 -19.873 -19.590  0.00  0.00    +0.145 HD
ATOM     11  H   UNL     1      37.153 -18.757 -20.760  0.00  0.00    +0.145 HD
ENDBRANCH   1   9
BRANCH   2  12
ATOM     12  O   UNL     1      35.058 -15.147 -23.313  0.00  0.00    -0.471 OA
ATOM     13  C   UNL     1      33.907 -14.400 -23.703  0.00  0.00    +0.252 C 
ENDBRANCH   2  12
TORSDOF 2
ENDMDL
MODEL 7
REMARK VINA RESULT:      -6.2      4.055      6.265
REMARK  Name = 98487
REMARK  2 active torsions:
REMARK  status: ('A' for Active; 'I' for Inactive)
REMARK    1  A    between atoms: C_1  and  C_9
REMARK    2  A    between atoms: C_2  and  O_12
REMARK                            x       y       z     vdW  Elec       q    Type
REMARK                         _______ _______ _______ _____ _____    ______ ____
ROOT
ATOM      1  C   UNL     1      34.362 -16.081 -23.686  0.00  0.00    +0.056 C 
ATOM      2  C   UNL     1      34.996 -16.814 -21.472  0.00  0.00    +0.139 C 
ATOM      3  C   UNL     1      34.852 -17.072 -22.836  0.00  0.00    +0.041 C 
ATOM      4  C   UNL     1      34.015 -14.831 -23.171  0.00  0.00    +0.005 C 
ATOM      5  C   UNL     1      34.649 -15.565 -20.959  0.00  0.00    +0.037 C 
ATOM      6  C   UNL     1      34.159 -14.573 -21.808  0.00  0.00    +0.003 C 
ENDROOT
BRANCH   1   9
ATOM      7  O   UNL     1      34.733 -17.345 -25.637  0.00  0.00    -0.270 OA
ATOM      8  N   UNL     1      33.446 -15.460 -25.856  0.00  0.00    -0.325 N 
ATOM      9  C   UNL     1      34.211 -16.349 -25.106  0.00  0.00    +0.243 C 
ATOM     10  H   UNL     1      33.322 -15.610 -26.821  0.00  0.00    +0.145 HD
ATOM     11  H   UNL     1      33.029 -14.682 -25.421  0.00  0.00    +0.145 HD
ENDBRANCH   1   9
BRANCH   2  12
ATOM     12  O   UNL     1      35.475 -17.781 -20.644  0.00  0.00    -0.471 OA
ATOM     13  C   UNL     1      35.789 -19.043 -21.232  0.00  0.00    +0.252 C 
ENDBRANCH   2  12
TORSDOF 2
ENDMDL
MODEL 8
REMARK VINA RESULT:      -6.2      3.561      5.533
REMARK  Name = 98487
REMARK  2 active torsions:
REMARK  status: ('A' for Active; 'I' for Inactive)
REMARK    1  A    between atoms: C_1  and  C_9
REMARK    2  A    between atoms: C_2  and  O_12
REMARK                            x       y       z     vdW  Elec       q    Type
REMARK                         _______ _______ _______ _____ _____    ______ ____
ROOT
ATOM      1  C   UNL     1      34.734 -16.528 -22.179  0.00  0.00    +0.056 C 
ATOM      2  C   UNL     1      34.521 -18.911 -21.844  0.00  0.00    +0.139 C 
ATOM      3  C   UNL     1      34.477 -17.611 -21.340  0.00  0.00    +0.041 C 
ATOM      4  C   UNL     1      35.035 -16.745 -23.524  0.00  0.00    +0.005 C 
ATOM      5  C   UNL     1      34.822 -19.127 -23.189  0.00  0.00    +0.037 C 
ATOM      6  C   UNL     1      35.079 -18.044 -24.029  0.00  0.00    +0.003 C 
ENDROOT
BRANCH   1   9
ATOM      7  O   UNL     1      34.837 -14.943 -20.441  0.00  0.00    -0.270 OA
ATOM      8  N   UNL     1      34.490 -14.134 -22.559  0.00  0.00    -0.325 N 
ATOM      9  C   UNL     1      34.689 -15.173 -21.654  0.00  0.00    +0.243 C 
ATOM     10  H   UNL     1      34.454 -13.204 -22.239  0.00  0.00    +0.145 HD
ATOM     11  H   UNL     1      34.386 -14.330 -23.518  0.00  0.00    +0.145 HD
ENDBRANCH   1   9
BRANCH   2  12
ATOM     12  O   UNL     1      34.270 -19.968 -21.024  0.00  0.00    -0.471 OA
ATOM     13  C   UNL     1      32.934 -20.116 -20.546  0.00  0.00    +0.252 C 
ENDBRANCH   2  12
TORSDOF 2
ENDMDL
MODEL 9
REMARK VINA RESULT:      -6.1      8.395      9.552
REMARK  Name = 98487
REMARK  2 active torsions:
REMARK  status: ('A' for Active; 'I' for Inactive)
REMARK    1  A    between atoms: C_1  and  C_9
REMARK    2  A    between atoms: C_2  and  O_12
REMARK                            x       y       z     vdW  Elec       q    Type
REMARK                         _______ _______ _______ _____ _____    ______ ____
ROOT
ATOM      1  C   UNL     1      36.442 -24.978 -12.605  0.00  0.00    +0.056 C 
ATOM      2  C   UNL     1      37.915 -26.086 -14.167  0.00  0.00    +0.139 C 
ATOM      3  C   UNL     1      37.644 -25.631 -12.876  0.00  0.00    +0.041 C 
ATOM      4  C   UNL     1      35.511 -24.779 -13.624  0.00  0.00    +0.005 C 
ATOM      5  C   UNL     1      36.984 -25.887 -15.186  0.00  0.00    +0.037 C 
ATOM      6  C   UNL     1      35.782 -25.233 -14.915  0.00  0.00    +0.003 C 
ENDROOT
BRANCH   1   9
ATOM      7  O   UNL     1      35.290 -25.043 -10.552  0.00  0.00    -0.270 OA
ATOM      8  N   UNL     1      36.908 -23.433 -10.780  0.00  0.00    -0.325 N 
ATOM      9  C   UNL     1      36.159 -24.504 -11.260  0.00  0.00    +0.243 C 
ATOM     10  H   UNL     1      36.744 -23.086  -9.873  0.00  0.00    +0.145 HD
ATOM     11  H   UNL     1      37.601 -23.024 -11.346  0.00  0.00    +0.145 HD
ENDBRANCH   1   9
BRANCH   2  12
ATOM     12  O   UNL     1      39.088 -26.723 -14.432  0.00  0.00    -0.471 OA
ATOM     13  C   UNL     1      40.265 -25.919 -14.493  0.00  0.00    +0.252 C 
ENDBRANCH   2  12
TORSDOF 2
ENDMDL
