MODEL 1
REMARK VINA RESULT:      -9.3      0.000      0.000
REMARK  Name = 2120
REMARK  3 active torsions:
REMARK  status: ('A' for Active; 'I' for Inactive)
REMARK    1  A    between atoms: N_3  and  C_16
REMARK    2  A    between atoms: C_16  and  C_18
REMARK    3  A    between atoms: C_18  and  O_19
REMARK                            x       y       z     vdW  Elec       q    Type
REMARK                         _______ _______ _______ _____ _____    ______ ____
ROOT
ATOM      1  O   UNL     1      33.006 -12.878 -23.213  0.00  0.00    -0.269 OA
ATOM      2  O   UNL     1      33.525 -16.066 -26.581  0.00  0.00    -0.269 OA
ATOM      3  N   UNL     1      33.184 -14.455 -24.927  0.00  0.00    -0.212 N 
ATOM      4  C   UNL     1      34.326 -16.222 -23.075  0.00  0.00    +0.009 C 
ATOM      5  C   UNL     1      33.919 -14.952 -22.641  0.00  0.00    +0.054 C 
ATOM      6  C   UNL     1      34.194 -16.629 -24.410  0.00  0.00    +0.054 C 
ATOM      7  C   UNL     1      34.890 -17.121 -22.134  0.00  0.00    +0.000 C 
ATOM      8  C   UNL     1      33.328 -13.997 -23.605  0.00  0.00    +0.255 C 
ATOM      9  C   UNL     1      33.609 -15.708 -25.409  0.00  0.00    +0.255 C 
ATOM     10  C   UNL     1      34.065 -14.573 -21.301  0.00  0.00    +0.005 C 
ATOM     11  C   UNL     1      34.613 -17.903 -24.814  0.00  0.00    +0.005 C 
ATOM     12  C   UNL     1      35.029 -16.727 -20.796  0.00  0.00    +0.000 C 
ATOM     13  C   UNL     1      35.303 -18.394 -22.556  0.00  0.00    +0.000 C 
ATOM     14  C   UNL     1      34.619 -15.461 -20.383  0.00  0.00    +0.000 C 
ATOM     15  C   UNL     1      35.165 -18.781 -23.887  0.00  0.00    +0.000 C 
ENDROOT
BRANCH   3  16
ATOM     16  C   UNL     1      32.540 -13.557 -25.879  0.00  0.00    +0.210 C 
BRANCH  16  18
ATOM     17  O   UNL     1      34.095 -11.742 -26.192  0.00  0.00    -0.248 OA
ATOM     18  C   UNL     1      33.605 -12.785 -26.607  0.00  0.00    +0.335 C 
BRANCH  18  19
ATOM     19  O   UNL     1      33.942 -13.343 -27.798  0.00  0.00    -0.479 OA
ATOM     20  H   UNL     1      34.802 -13.689 -27.927  0.00  0.00    +0.295 HD
ENDBRANCH  18  19
ENDBRANCH  16  18
ENDBRANCH   3  16
TORSDOF 3
ENDMDL
MODEL 2
REMARK VINA RESULT:      -9.2      0.153      3.034
REMARK  Name = 2120
REMARK  3 active torsions:
REMARK  status: ('A' for Active; 'I' for Inactive)
REMARK    1  A    between atoms: N_3  and  C_16
REMARK    2  A    between atoms: C_16  and  C_18
REMARK    3  A    between atoms: C_18  and  O_19
REMARK                            x       y       z     vdW  Elec       q    Type
REMARK                         _______ _______ _______ _____ _____    ______ ____
ROOT
ATOM      1  O   UNL     1      33.389 -16.046 -26.629  0.00  0.00    -0.269 OA
ATOM      2  O   UNL     1      32.676 -12.917 -23.240  0.00  0.00    -0.269 OA
ATOM      3  N   UNL     1      33.060 -14.416 -24.988  0.00  0.00    -0.212 N 
ATOM      4  C   UNL     1      34.256 -16.151 -23.138  0.00  0.00    +0.009 C 
ATOM      5  C   UNL     1      34.146 -16.554 -24.477  0.00  0.00    +0.054 C 
ATOM      6  C   UNL     1      33.771 -14.913 -22.694  0.00  0.00    +0.054 C 
ATOM      7  C   UNL     1      34.875 -17.022 -22.206  0.00  0.00    +0.000 C 
ATOM      8  C   UNL     1      33.505 -15.661 -25.467  0.00  0.00    +0.255 C 
ATOM      9  C   UNL     1      33.122 -13.987 -23.648  0.00  0.00    +0.255 C 
ATOM     10  C   UNL     1      34.639 -17.798 -24.892  0.00  0.00    +0.005 C 
ATOM     11  C   UNL     1      33.893 -14.538 -21.350  0.00  0.00    +0.005 C 
ATOM     12  C   UNL     1      35.364 -18.263 -22.638  0.00  0.00    +0.000 C 
ATOM     13  C   UNL     1      34.989 -16.630 -20.864  0.00  0.00    +0.000 C 
ATOM     14  C   UNL     1      35.246 -18.648 -23.971  0.00  0.00    +0.000 C 
ATOM     15  C   UNL     1      34.501 -15.396 -20.440  0.00  0.00    +0.000 C 
ENDROOT
BRANCH   3  16
ATOM     16  C   UNL     1      32.487 -13.492 -25.959  0.00  0.00    +0.210 C 
BRANCH  16  18
ATOM     17  O   UNL     1      34.100 -11.719 -26.216  0.00  0.00    -0.248 OA
ATOM     18  C   UNL     1      33.606 -12.756 -26.642  0.00  0.00    +0.335 C 
BRANCH  18  19
ATOM     19  O   UNL     1      33.990 -13.340 -27.806  0.00  0.00    -0.479 OA
ATOM     20  H   UNL     1      33.645 -13.033 -28.620  0.00  0.00    +0.295 HD
ENDBRANCH  18  19
ENDBRANCH  16  18
ENDBRANCH   3  16
TORSDOF 3
ENDMDL
MODEL 3
REMARK VINA RESULT:      -9.0      3.095      5.996
REMARK  Name = 2120
REMARK  3 active torsions:
REMARK  status: ('A' for Active; 'I' for Inactive)
REMARK    1  A    between atoms: N_3  and  C_16
REMARK    2  A    between atoms: C_16  and  C_18
REMARK    3  A    between atoms: C_18  and  O_19
REMARK                            x       y       z     vdW  Elec       q    Type
REMARK                         _______ _______ _______ _____ _____    ______ ____
ROOT
ATOM      1  O   UNL     1      35.588 -18.208 -24.244  0.00  0.00    -0.269 OA
ATOM      2  O   UNL     1      34.975 -16.349 -20.007  0.00  0.00    -0.269 OA
ATOM      3  N   UNL     1      35.265 -17.358 -22.092  0.00  0.00    -0.212 N 
ATOM      4  C   UNL     1      33.744 -15.292 -23.221  0.00  0.00    +0.009 C 
ATOM      5  C   UNL     1      34.281 -16.279 -24.061  0.00  0.00    +0.054 C 
ATOM      6  C   UNL     1      33.959 -15.299 -21.836  0.00  0.00    +0.054 C 
ATOM      7  C   UNL     1      32.962 -14.256 -23.791  0.00  0.00    +0.000 C 
ATOM      8  C   UNL     1      35.100 -17.371 -23.488  0.00  0.00    +0.255 C 
ATOM      9  C   UNL     1      34.771 -16.371 -21.219  0.00  0.00    +0.255 C 
ATOM     10  C   UNL     1      34.051 -16.246 -25.442  0.00  0.00    +0.005 C 
ATOM     11  C   UNL     1      33.412 -14.298 -21.023  0.00  0.00    +0.005 C 
ATOM     12  C   UNL     1      32.741 -14.237 -25.176  0.00  0.00    +0.000 C 
ATOM     13  C   UNL     1      32.421 -13.262 -22.962  0.00  0.00    +0.000 C 
ATOM     14  C   UNL     1      33.282 -15.225 -25.995  0.00  0.00    +0.000 C 
ATOM     15  C   UNL     1      32.645 -13.284 -21.587  0.00  0.00    +0.000 C 
ENDROOT
BRANCH   3  16
ATOM     16  C   UNL     1      36.010 -18.462 -21.497  0.00  0.00    +0.210 C 
BRANCH  16  18
ATOM     17  O   UNL     1      33.962 -19.728 -21.598  0.00  0.00    -0.248 OA
ATOM     18  C   UNL     1      35.035 -19.515 -21.049  0.00  0.00    +0.335 C 
BRANCH  18  19
ATOM     19  O   UNL     1      35.449 -20.182 -19.942  0.00  0.00    -0.479 OA
ATOM     20  H   UNL     1      36.302 -20.567 -19.918  0.00  0.00    +0.295 HD
ENDBRANCH  18  19
ENDBRANCH  16  18
ENDBRANCH   3  16
TORSDOF 3
ENDMDL
MODEL 4
REMARK VINA RESULT:      -9.0      3.102      5.226
REMARK  Name = 2120
REMARK  3 active torsions:
REMARK  status: ('A' for Active; 'I' for Inactive)
REMARK    1  A    between atoms: N_3  and  C_16
REMARK    2  A    between atoms: C_16  and  C_18
REMARK    3  A    between atoms: C_18  and  O_19
REMARK                            x       y       z     vdW  Elec       q    Type
REMARK                         _______ _______ _______ _____ _____    ______ ____
ROOT
ATOM      1  O   UNL     1      34.951 -16.414 -20.081  0.00  0.00    -0.269 OA
ATOM      2  O   UNL     1      35.471 -18.309 -24.315  0.00  0.00    -0.269 OA
ATOM      3  N   UNL     1      35.297 -17.375 -22.182  0.00  0.00    -0.212 N 
ATOM      4  C   UNL     1      33.760 -15.311 -23.292  0.00  0.00    +0.009 C 
ATOM      5  C   UNL     1      33.990 -15.318 -21.909  0.00  0.00    +0.054 C 
ATOM      6  C   UNL     1      34.261 -16.313 -24.135  0.00  0.00    +0.054 C 
ATOM      7  C   UNL     1      32.995 -14.258 -23.856  0.00  0.00    +0.000 C 
ATOM      8  C   UNL     1      34.786 -16.407 -21.299  0.00  0.00    +0.255 C 
ATOM      9  C   UNL     1      35.062 -17.422 -23.569  0.00  0.00    +0.255 C 
ATOM     10  C   UNL     1      33.476 -14.304 -21.092  0.00  0.00    +0.005 C 
ATOM     11  C   UNL     1      34.011 -16.281 -25.512  0.00  0.00    +0.005 C 
ATOM     12  C   UNL     1      32.487 -13.250 -23.025  0.00  0.00    +0.000 C 
ATOM     13  C   UNL     1      32.755 -14.240 -25.238  0.00  0.00    +0.000 C 
ATOM     14  C   UNL     1      32.725 -13.273 -21.652  0.00  0.00    +0.000 C 
ATOM     15  C   UNL     1      33.261 -15.245 -26.060  0.00  0.00    +0.000 C 
ENDROOT
BRANCH   3  16
ATOM     16  C   UNL     1      36.142 -18.419 -21.613  0.00  0.00    +0.210 C 
BRANCH  16  18
ATOM     17  O   UNL     1      34.150 -19.771 -21.491  0.00  0.00    -0.248 OA
ATOM     18  C   UNL     1      35.259 -19.498 -21.049  0.00  0.00    +0.335 C 
BRANCH  18  19
ATOM     19  O   UNL     1      35.802 -20.115 -19.969  0.00  0.00    -0.479 OA
ATOM     20  H   UNL     1      36.679 -19.916 -19.708  0.00  0.00    +0.295 HD
ENDBRANCH  18  19
ENDBRANCH  16  18
ENDBRANCH   3  16
TORSDOF 3
ENDMDL
MODEL 5
REMARK VINA RESULT:      -9.0     11.437     13.752
REMARK  Name = 2120
REMARK  3 active torsions:
REMARK  status: ('A' for Active; 'I' for Inactive)
REMARK    1  A    between atoms: N_3  and  C_16
REMARK    2  A    between atoms: C_16  and  C_18
REMARK    3  A    between atoms: C_18  and  O_19
REMARK                            x       y       z     vdW  Elec       q    Type
REMARK                         _______ _______ _______ _____ _____    ______ ____
ROOT
ATOM      1  O   UNL     1      37.748 -23.034 -15.062  0.00  0.00    -0.269 OA
ATOM      2  O   UNL     1      34.460 -24.571 -12.127  0.00  0.00    -0.269 OA
ATOM      3  N   UNL     1      36.156 -23.870 -13.571  0.00  0.00    -0.212 N 
ATOM      4  C   UNL     1      34.200 -23.414 -15.527  0.00  0.00    +0.009 C 
ATOM      5  C   UNL     1      35.538 -23.114 -15.820  0.00  0.00    +0.054 C 
ATOM      6  C   UNL     1      33.808 -23.920 -14.279  0.00  0.00    +0.054 C 
ATOM      7  C   UNL     1      33.213 -23.198 -16.521  0.00  0.00    +0.000 C 
ATOM      8  C   UNL     1      36.585 -23.333 -14.797  0.00  0.00    +0.255 C 
ATOM      9  C   UNL     1      34.821 -24.155 -13.226  0.00  0.00    +0.255 C 
ATOM     10  C   UNL     1      35.899 -22.608 -17.075  0.00  0.00    +0.005 C 
ATOM     11  C   UNL     1      32.464 -24.208 -14.014  0.00  0.00    +0.005 C 
ATOM     12  C   UNL     1      33.590 -22.692 -17.773  0.00  0.00    +0.000 C 
ATOM     13  C   UNL     1      31.870 -23.493 -16.240  0.00  0.00    +0.000 C 
ATOM     14  C   UNL     1      34.924 -22.398 -18.047  0.00  0.00    +0.000 C 
ATOM     15  C   UNL     1      31.500 -23.995 -14.994  0.00  0.00    +0.000 C 
ENDROOT
BRANCH   3  16
ATOM     16  C   UNL     1      37.179 -24.158 -12.573  0.00  0.00    +0.210 C 
BRANCH  16  18
ATOM     17  O   UNL     1      38.500 -25.986 -13.423  0.00  0.00    -0.248 OA
ATOM     18  C   UNL     1      37.587 -25.600 -12.704  0.00  0.00    +0.335 C 
BRANCH  18  19
ATOM     19  O   UNL     1      36.810 -26.438 -11.972  0.00  0.00    -0.479 OA
ATOM     20  H   UNL     1      36.240 -26.094 -11.314  0.00  0.00    +0.295 HD
ENDBRANCH  18  19
ENDBRANCH  16  18
ENDBRANCH   3  16
TORSDOF 3
ENDMDL
MODEL 6
REMARK VINA RESULT:      -8.8     11.348     13.518
REMARK  Name = 2120
REMARK  3 active torsions:
REMARK  status: ('A' for Active; 'I' for Inactive)
REMARK    1  A    between atoms: N_3  and  C_16
REMARK    2  A    between atoms: C_16  and  C_18
REMARK    3  A    between atoms: C_18  and  O_19
REMARK                            x       y       z     vdW  Elec       q    Type
REMARK                         _______ _______ _______ _____ _____    ______ ____
ROOT
ATOM      1  O   UNL     1      34.250 -24.588 -12.262  0.00  0.00    -0.269 OA
ATOM      2  O   UNL     1      37.220 -23.374 -15.651  0.00  0.00    -0.269 OA
ATOM      3  N   UNL     1      35.783 -23.934 -13.899  0.00  0.00    -0.212 N 
ATOM      4  C   UNL     1      33.621 -23.425 -15.609  0.00  0.00    +0.009 C 
ATOM      5  C   UNL     1      33.366 -23.875 -14.305  0.00  0.00    +0.054 C 
ATOM      6  C   UNL     1      34.925 -23.238 -16.088  0.00  0.00    +0.054 C 
ATOM      7  C   UNL     1      32.527 -23.153 -16.468  0.00  0.00    +0.000 C 
ATOM      8  C   UNL     1      34.493 -24.164 -13.390  0.00  0.00    +0.255 C 
ATOM      9  C   UNL     1      36.083 -23.515 -15.209  0.00  0.00    +0.255 C 
ATOM     10  C   UNL     1      32.052 -24.054 -13.854  0.00  0.00    +0.005 C 
ATOM     11  C   UNL     1      35.149 -22.791 -17.396  0.00  0.00    +0.005 C 
ATOM     12  C   UNL     1      31.217 -23.337 -16.002  0.00  0.00    +0.000 C 
ATOM     13  C   UNL     1      32.768 -22.705 -17.775  0.00  0.00    +0.000 C 
ATOM     14  C   UNL     1      30.982 -23.785 -14.704  0.00  0.00    +0.000 C 
ATOM     15  C   UNL     1      34.071 -22.525 -18.235  0.00  0.00    +0.000 C 
ENDROOT
BRANCH   3  16
ATOM     16  C   UNL     1      36.906 -24.147 -12.993  0.00  0.00    +0.210 C 
BRANCH  16  18
ATOM     17  O   UNL     1      37.860 -26.188 -13.849  0.00  0.00    -0.248 OA
ATOM     18  C   UNL     1      37.233 -25.614 -12.967  0.00  0.00    +0.335 C 
BRANCH  18  19
ATOM     19  O   UNL     1      36.724 -26.250 -11.881  0.00  0.00    -0.479 OA
ATOM     20  H   UNL     1      36.021 -25.863 -11.398  0.00  0.00    +0.295 HD
ENDBRANCH  18  19
ENDBRANCH  16  18
ENDBRANCH   3  16
TORSDOF 3
ENDMDL
MODEL 7
REMARK VINA RESULT:      -8.6     11.239     13.629
REMARK  Name = 2120
REMARK  3 active torsions:
REMARK  status: ('A' for Active; 'I' for Inactive)
REMARK    1  A    between atoms: N_3  and  C_16
REMARK    2  A    between atoms: C_16  and  C_18
REMARK    3  A    between atoms: C_18  and  O_19
REMARK                            x       y       z     vdW  Elec       q    Type
REMARK                         _______ _______ _______ _____ _____    ______ ____
ROOT
ATOM      1  O   UNL     1      38.181 -23.538 -13.955  0.00  0.00    -0.269 OA
ATOM      2  O   UNL     1      33.852 -24.850 -12.805  0.00  0.00    -0.269 OA
ATOM      3  N   UNL     1      36.047 -24.273 -13.353  0.00  0.00    -0.212 N 
ATOM      4  C   UNL     1      35.086 -23.208 -15.761  0.00  0.00    +0.009 C 
ATOM      5  C   UNL     1      36.456 -23.115 -15.475  0.00  0.00    +0.054 C 
ATOM      6  C   UNL     1      34.180 -23.802 -14.872  0.00  0.00    +0.054 C 
ATOM      7  C   UNL     1      34.603 -22.682 -16.986  0.00  0.00    +0.000 C 
ATOM      8  C   UNL     1      36.983 -23.657 -14.202  0.00  0.00    +0.255 C 
ATOM      9  C   UNL     1      34.661 -24.358 -13.588  0.00  0.00    +0.255 C 
ATOM     10  C   UNL     1      37.337 -22.514 -16.382  0.00  0.00    +0.005 C 
ATOM     11  C   UNL     1      32.817 -23.878 -15.184  0.00  0.00    +0.005 C 
ATOM     12  C   UNL     1      35.498 -22.084 -17.884  0.00  0.00    +0.000 C 
ATOM     13  C   UNL     1      33.235 -22.767 -17.284  0.00  0.00    +0.000 C 
ATOM     14  C   UNL     1      36.856 -22.000 -17.583  0.00  0.00    +0.000 C 
ATOM     15  C   UNL     1      32.348 -23.361 -16.388  0.00  0.00    +0.000 C 
ENDROOT
BRANCH   3  16
ATOM     16  C   UNL     1      36.553 -24.875 -12.125  0.00  0.00    +0.210 C 
BRANCH  16  18
ATOM     17  O   UNL     1      35.531 -24.076 -10.094  0.00  0.00    -0.248 OA
ATOM     18  C   UNL     1      36.345 -23.908 -10.993  0.00  0.00    +0.335 C 
BRANCH  18  19
ATOM     19  O   UNL     1      37.128 -22.803 -11.091  0.00  0.00    -0.479 OA
ATOM     20  H   UNL     1      37.927 -22.750 -10.606  0.00  0.00    +0.295 HD
ENDBRANCH  18  19
ENDBRANCH  16  18
ENDBRANCH   3  16
TORSDOF 3
ENDMDL
MODEL 8
REMARK VINA RESULT:      -8.4      9.666     11.797
REMARK  Name = 2120
REMARK  3 active torsions:
REMARK  status: ('A' for Active; 'I' for Inactive)
REMARK    1  A    between atoms: N_3  and  C_16
REMARK    2  A    between atoms: C_16  and  C_18
REMARK    3  A    between atoms: C_18  and  O_19
REMARK                            x       y       z     vdW  Elec       q    Type
REMARK                         _______ _______ _______ _____ _____    ______ ____
ROOT
ATOM      1  O   UNL     1      33.897 -24.211 -13.727  0.00  0.00    -0.269 OA
ATOM      2  O   UNL     1      31.375 -23.194 -17.521  0.00  0.00    -0.269 OA
ATOM      3  N   UNL     1      32.597 -23.781 -15.620  0.00  0.00    -0.212 N 
ATOM      4  C   UNL     1      34.882 -22.726 -16.854  0.00  0.00    +0.009 C 
ATOM      5  C   UNL     1      34.988 -23.243 -15.554  0.00  0.00    +0.054 C 
ATOM      6  C   UNL     1      33.664 -22.706 -17.548  0.00  0.00    +0.054 C 
ATOM      7  C   UNL     1      36.041 -22.206 -17.483  0.00  0.00    +0.000 C 
ATOM      8  C   UNL     1      33.791 -23.791 -14.878  0.00  0.00    +0.255 C 
ATOM      9  C   UNL     1      32.441 -23.243 -16.912  0.00  0.00    +0.255 C 
ATOM     10  C   UNL     1      36.217 -23.248 -14.884  0.00  0.00    +0.005 C 
ATOM     11  C   UNL     1      33.589 -22.180 -18.844  0.00  0.00    +0.005 C 
ATOM     12  C   UNL     1      37.265 -22.219 -16.799  0.00  0.00    +0.000 C 
ATOM     13  C   UNL     1      35.948 -21.684 -18.782  0.00  0.00    +0.000 C 
ATOM     14  C   UNL     1      37.352 -22.736 -15.508  0.00  0.00    +0.000 C 
ATOM     15  C   UNL     1      34.729 -21.672 -19.457  0.00  0.00    +0.000 C 
ENDROOT
BRANCH   3  16
ATOM     16  C   UNL     1      31.420 -24.379 -15.000  0.00  0.00    +0.210 C 
BRANCH  16  18
ATOM     17  O   UNL     1      29.999 -22.473 -14.606  0.00  0.00    -0.248 OA
ATOM     18  C   UNL     1      30.739 -23.338 -14.156  0.00  0.00    +0.335 C 
BRANCH  18  19
ATOM     19  O   UNL     1      31.062 -23.429 -12.841  0.00  0.00    -0.479 OA
ATOM     20  H   UNL     1      31.626 -24.115 -12.543  0.00  0.00    +0.295 HD
ENDBRANCH  18  19
ENDBRANCH  16  18
ENDBRANCH   3  16
TORSDOF 3
ENDMDL
MODEL 9
REMARK VINA RESULT:      -8.4      9.512     11.806
REMARK  Name = 2120
REMARK  3 active torsions:
REMARK  status: ('A' for Active; 'I' for Inactive)
REMARK    1  A    between atoms: N_3  and  C_16
REMARK    2  A    between atoms: C_16  and  C_18
REMARK    3  A    between atoms: C_18  and  O_19
REMARK                            x       y       z     vdW  Elec       q    Type
REMARK                         _______ _______ _______ _____ _____    ______ ____
ROOT
ATOM      1  O   UNL     1      31.497 -23.314 -17.410  0.00  0.00    -0.269 OA
ATOM      2  O   UNL     1      34.475 -24.267 -13.945  0.00  0.00    -0.269 OA
ATOM      3  N   UNL     1      32.927 -23.762 -15.618  0.00  0.00    -0.212 N 
ATOM      4  C   UNL     1      35.010 -22.605 -17.094  0.00  0.00    +0.009 C 
ATOM      5  C   UNL     1      33.723 -22.642 -17.649  0.00  0.00    +0.054 C 
ATOM      6  C   UNL     1      35.290 -23.143 -15.830  0.00  0.00    +0.054 C 
ATOM      7  C   UNL     1      36.060 -22.006 -17.834  0.00  0.00    +0.000 C 
ATOM      8  C   UNL     1      32.611 -23.263 -16.894  0.00  0.00    +0.255 C 
ATOM      9  C   UNL     1      34.210 -23.773 -15.039  0.00  0.00    +0.255 C 
ATOM     10  C   UNL     1      33.473 -22.098 -18.914  0.00  0.00    +0.005 C 
ATOM     11  C   UNL     1      36.586 -23.093 -15.302  0.00  0.00    +0.005 C 
ATOM     12  C   UNL     1      35.794 -21.464 -19.099  0.00  0.00    +0.000 C 
ATOM     13  C   UNL     1      37.353 -21.963 -17.290  0.00  0.00    +0.000 C 
ATOM     14  C   UNL     1      34.510 -21.511 -19.636  0.00  0.00    +0.000 C 
ATOM     15  C   UNL     1      37.613 -22.504 -16.033  0.00  0.00    +0.000 C 
ENDROOT
BRANCH   3  16
ATOM     16  C   UNL     1      31.833 -24.316 -14.828  0.00  0.00    +0.210 C 
BRANCH  16  18
ATOM     17  O   UNL     1      30.216 -22.590 -14.362  0.00  0.00    -0.248 OA
ATOM     18  C   UNL     1      31.216 -23.209 -14.019  0.00  0.00    +0.335 C 
BRANCH  18  19
ATOM     19  O   UNL     1      31.906 -22.936 -12.882  0.00  0.00    -0.479 OA
ATOM     20  H   UNL     1      31.910 -22.067 -12.533  0.00  0.00    +0.295 HD
ENDBRANCH  18  19
ENDBRANCH  16  18
ENDBRANCH   3  16
TORSDOF 3
ENDMDL
