MODEL 1
REMARK VINA RESULT:     -10.9      0.000      0.000
REMARK  Name = 11493841
REMARK  4 active torsions:
REMARK  status: ('A' for Active; 'I' for Inactive)
REMARK    1  A    between atoms: N_1  and  C_18
REMARK    2  A    between atoms: N_4  and  C_11
REMARK    3  A    between atoms: C_8  and  C_30
REMARK    4  A    between atoms: C_19  and  N_24
REMARK                            x       y       z     vdW  Elec       q    Type
REMARK                         _______ _______ _______ _____ _____    ______ ____
ROOT
ATOM      1  N   UNL     1      36.957 -23.515 -15.326  0.00  0.00    -0.272 N 
ATOM      2  N   UNL     1      34.872 -23.284 -16.378  0.00  0.00    -0.322 NA
ATOM      3  N   UNL     1      36.855 -22.298 -17.330  0.00  0.00    -0.170 NA
ATOM      4  N   UNL     1      32.777 -23.037 -17.459  0.00  0.00    -0.287 N 
ATOM      5  C   UNL     1      36.218 -23.025 -16.358  0.00  0.00    +0.146 C 
ATOM      6  C   UNL     1      34.171 -22.784 -17.417  0.00  0.00    +0.202 C 
ATOM      7  C   UNL     1      36.093 -21.829 -18.339  0.00  0.00    +0.120 C 
ATOM      8  C   UNL     1      34.733 -22.042 -18.436  0.00  0.00    +0.118 C 
ATOM      9  H   UNL     1      37.923 -23.327 -15.318  0.00  0.00    +0.159 HD
ATOM     10  H   UNL     1      32.409 -23.084 -18.371  0.00  0.00    +0.155 HD
ENDROOT
BRANCH   4  11
ATOM     11  C   UNL     1      31.819 -23.232 -16.451  0.00  0.00    +0.050 C 
ATOM     12  C   UNL     1      30.502 -22.803 -16.640  0.00  0.00    +0.010 C 
ATOM     13  C   UNL     1      32.176 -23.857 -15.253  0.00  0.00    +0.015 C 
ATOM     14  C   UNL     1      29.550 -22.998 -15.639  0.00  0.00    -0.021 C 
ATOM     15  C   UNL     1      31.224 -24.051 -14.252  0.00  0.00    +0.001 C 
ATOM     16  C   UNL     1      29.911 -23.621 -14.445  0.00  0.00    -0.004 C 
ATOM     17  C   UNL     1      28.146 -22.538 -15.844  0.00  0.00    +0.031 C 
ENDBRANCH   4  11
BRANCH   1  18
ATOM     18  C   UNL     1      36.404 -24.298 -14.235  0.00  0.00    +0.060 C 
ATOM     19  C   UNL     1      37.276 -25.530 -13.924  0.00  0.00    -0.047 C 
ATOM     20  C   UNL     1      36.246 -23.404 -13.000  0.00  0.00    +0.018 C 
ATOM     21  C   UNL     1      38.619 -25.153 -13.284  0.00  0.00    -0.020 C 
ATOM     22  C   UNL     1      37.585 -23.039 -12.359  0.00  0.00    +0.002 C 
ATOM     23  C   UNL     1      38.421 -24.277 -12.049  0.00  0.00    -0.002 C 
BRANCH  19  24
ATOM     24  N   UNL     1      37.502 -26.341 -15.121  0.00  0.00    +0.383 N 
ATOM     25  H   UNL     1      37.022 -27.235 -15.021  0.00  0.00    -0.089 HD
ATOM     26  H   UNL     1      38.502 -26.503 -15.237  0.00  0.00    -0.089 HD
ATOM     27  H   UNL     1      37.140 -25.849 -15.938  0.00  0.00    -0.089 HD
ENDBRANCH  19  24
ENDBRANCH   1  18
BRANCH   8  30
ATOM     28  O   UNL     1      32.898 -22.005 -19.913  0.00  0.00    -0.270 OA
ATOM     29  N   UNL     1      34.496 -20.386 -20.207  0.00  0.00    -0.325 N 
ATOM     30  C   UNL     1      33.978 -21.502 -19.556  0.00  0.00    +0.248 C 
ATOM     31  H   UNL     1      34.013 -19.993 -20.969  0.00  0.00    +0.145 HD
ATOM     32  H   UNL     1      35.345 -19.990 -19.906  0.00  0.00    +0.145 HD
ENDBRANCH   8  30
TORSDOF 4
ENDMDL
MODEL 2
REMARK VINA RESULT:     -10.5      2.267      4.886
REMARK  Name = 11493841
REMARK  4 active torsions:
REMARK  status: ('A' for Active; 'I' for Inactive)
REMARK    1  A    between atoms: N_1  and  C_18
REMARK    2  A    between atoms: N_4  and  C_11
REMARK    3  A    between atoms: C_8  and  C_30
REMARK    4  A    between atoms: C_19  and  N_24
REMARK                            x       y       z     vdW  Elec       q    Type
REMARK                         _______ _______ _______ _____ _____    ______ ____
ROOT
ATOM      1  N   UNL     1      34.010 -24.685 -13.869  0.00  0.00    -0.272 N 
ATOM      2  N   UNL     1      32.946 -23.511 -15.600  0.00  0.00    -0.322 NA
ATOM      3  N   UNL     1      31.698 -24.973 -14.145  0.00  0.00    -0.170 NA
ATOM      4  N   UNL     1      31.850 -22.336 -17.342  0.00  0.00    -0.287 N 
ATOM      5  C   UNL     1      32.870 -24.386 -14.548  0.00  0.00    +0.146 C 
ATOM      6  C   UNL     1      31.795 -23.237 -16.249  0.00  0.00    +0.202 C 
ATOM      7  C   UNL     1      30.586 -24.652 -14.839  0.00  0.00    +0.120 C 
ATOM      8  C   UNL     1      30.574 -23.783 -15.910  0.00  0.00    +0.118 C 
ATOM      9  H   UNL     1      33.949 -25.313 -13.113  0.00  0.00    +0.159 HD
ATOM     10  H   UNL     1      31.020 -21.822 -17.475  0.00  0.00    +0.155 HD
ENDROOT
BRANCH   4  11
ATOM     11  C   UNL     1      32.857 -22.035 -18.273  0.00  0.00    +0.050 C 
ATOM     12  C   UNL     1      32.651 -21.045 -19.238  0.00  0.00    +0.010 C 
ATOM     13  C   UNL     1      34.074 -22.723 -18.239  0.00  0.00    +0.015 C 
ATOM     14  C   UNL     1      33.652 -20.746 -20.162  0.00  0.00    -0.021 C 
ATOM     15  C   UNL     1      35.075 -22.423 -19.163  0.00  0.00    +0.001 C 
ATOM     16  C   UNL     1      34.864 -21.436 -20.125  0.00  0.00    -0.004 C 
ATOM     17  C   UNL     1      33.427 -19.690 -21.191  0.00  0.00    +0.031 C 
ENDBRANCH   4  11
BRANCH   1  18
ATOM     18  C   UNL     1      35.314 -24.134 -14.195  0.00  0.00    +0.060 C 
ATOM     19  C   UNL     1      36.235 -24.092 -12.960  0.00  0.00    -0.047 C 
ATOM     20  C   UNL     1      35.942 -24.954 -15.327  0.00  0.00    +0.018 C 
ATOM     21  C   UNL     1      36.679 -25.490 -12.509  0.00  0.00    -0.020 C 
ATOM     22  C   UNL     1      36.392 -26.342 -14.873  0.00  0.00    +0.002 C 
ATOM     23  C   UNL     1      37.313 -26.270 -13.658  0.00  0.00    -0.002 C 
BRANCH  19  24
ATOM     24  N   UNL     1      35.603 -23.384 -11.846  0.00  0.00    +0.383 N 
ATOM     25  H   UNL     1      34.765 -22.906 -12.178  0.00  0.00    -0.089 HD
ATOM     26  H   UNL     1      36.255 -22.700 -11.464  0.00  0.00    -0.089 HD
ATOM     27  H   UNL     1      35.347 -24.053 -11.119  0.00  0.00    -0.089 HD
ENDBRANCH  19  24
ENDBRANCH   1  18
BRANCH   8  30
ATOM     28  O   UNL     1      29.093 -22.352 -17.055  0.00  0.00    -0.270 OA
ATOM     29  N   UNL     1      28.425 -24.529 -16.782  0.00  0.00    -0.325 N 
ATOM     30  C   UNL     1      29.334 -23.488 -16.609  0.00  0.00    +0.248 C 
ATOM     31  H   UNL     1      27.575 -24.367 -17.250  0.00  0.00    +0.145 HD
ATOM     32  H   UNL     1      28.634 -25.427 -16.436  0.00  0.00    +0.145 HD
ENDBRANCH   8  30
TORSDOF 4
ENDMDL
MODEL 3
REMARK VINA RESULT:      -9.3      2.400      6.707
REMARK  Name = 11493841
REMARK  4 active torsions:
REMARK  status: ('A' for Active; 'I' for Inactive)
REMARK    1  A    between atoms: N_1  and  C_18
REMARK    2  A    between atoms: N_4  and  C_11
REMARK    3  A    between atoms: C_8  and  C_30
REMARK    4  A    between atoms: C_19  and  N_24
REMARK                            x       y       z     vdW  Elec       q    Type
REMARK                         _______ _______ _______ _____ _____    ______ ____
ROOT
ATOM      1  N   UNL     1      31.620 -24.479 -14.461  0.00  0.00    -0.272 N 
ATOM      2  N   UNL     1      33.632 -23.822 -15.473  0.00  0.00    -0.322 NA
ATOM      3  N   UNL     1      33.528 -24.280 -13.109  0.00  0.00    -0.170 NA
ATOM      4  N   UNL     1      35.676 -23.160 -16.475  0.00  0.00    -0.287 N 
ATOM      5  C   UNL     1      32.944 -24.189 -14.346  0.00  0.00    +0.146 C 
ATOM      6  C   UNL     1      34.945 -23.544 -15.323  0.00  0.00    +0.202 C 
ATOM      7  C   UNL     1      34.843 -23.989 -13.033  0.00  0.00    +0.120 C 
ATOM      8  C   UNL     1      35.609 -23.611 -14.116  0.00  0.00    +0.118 C 
ATOM      9  H   UNL     1      31.131 -24.743 -13.648  0.00  0.00    +0.159 HD
ATOM     10  H   UNL     1      36.627 -23.413 -16.443  0.00  0.00    +0.155 HD
ENDROOT
BRANCH   4  11
ATOM     11  C   UNL     1      35.308 -22.488 -17.651  0.00  0.00    +0.050 C 
ATOM     12  C   UNL     1      36.239 -21.696 -18.330  0.00  0.00    +0.010 C 
ATOM     13  C   UNL     1      34.009 -22.608 -18.152  0.00  0.00    +0.015 C 
ATOM     14  C   UNL     1      35.873 -21.029 -19.499  0.00  0.00    -0.021 C 
ATOM     15  C   UNL     1      33.643 -21.941 -19.321  0.00  0.00    +0.001 C 
ATOM     16  C   UNL     1      34.575 -21.151 -19.995  0.00  0.00    -0.004 C 
ATOM     17  C   UNL     1      36.869 -20.184 -20.219  0.00  0.00    +0.031 C 
ENDBRANCH   4  11
BRANCH   1  18
ATOM     18  C   UNL     1      30.884 -24.419 -15.711  0.00  0.00    +0.060 C 
ATOM     19  C   UNL     1      29.436 -24.919 -15.539  0.00  0.00    -0.047 C 
ATOM     20  C   UNL     1      30.914 -22.985 -16.249  0.00  0.00    +0.018 C 
ATOM     21  C   UNL     1      28.574 -23.954 -14.715  0.00  0.00    -0.020 C 
ATOM     22  C   UNL     1      30.047 -22.027 -15.431  0.00  0.00    +0.002 C 
ATOM     23  C   UNL     1      28.617 -22.540 -15.289  0.00  0.00    -0.002 C 
BRANCH  19  24
ATOM     24  N   UNL     1      29.400 -26.256 -14.944  0.00  0.00    +0.383 N 
ATOM     25  H   UNL     1      30.016 -26.283 -14.131  0.00  0.00    -0.089 HD
ATOM     26  H   UNL     1      29.713 -26.942 -15.631  0.00  0.00    -0.089 HD
ATOM     27  H   UNL     1      28.446 -26.474 -14.656  0.00  0.00    -0.089 HD
ENDBRANCH  19  24
ENDBRANCH   1  18
BRANCH   8  30
ATOM     28  O   UNL     1      37.595 -22.471 -14.671  0.00  0.00    -0.270 OA
ATOM     29  N   UNL     1      37.716 -23.980 -12.948  0.00  0.00    -0.325 N 
ATOM     30  C   UNL     1      37.023 -23.310 -13.952  0.00  0.00    +0.248 C 
ATOM     31  H   UNL     1      38.673 -23.803 -12.809  0.00  0.00    +0.145 HD
ATOM     32  H   UNL     1      37.247 -24.632 -12.378  0.00  0.00    +0.145 HD
ENDBRANCH   8  30
TORSDOF 4
ENDMDL
MODEL 4
REMARK VINA RESULT:      -9.2      1.834      6.252
REMARK  Name = 11493841
REMARK  4 active torsions:
REMARK  status: ('A' for Active; 'I' for Inactive)
REMARK    1  A    between atoms: N_1  and  C_18
REMARK    2  A    between atoms: N_4  and  C_11
REMARK    3  A    between atoms: C_8  and  C_30
REMARK    4  A    between atoms: C_19  and  N_24
REMARK                            x       y       z     vdW  Elec       q    Type
REMARK                         _______ _______ _______ _____ _____    ______ ____
ROOT
ATOM      1  N   UNL     1      31.649 -23.605 -16.876  0.00  0.00    -0.272 N 
ATOM      2  N   UNL     1      33.904 -23.143 -16.418  0.00  0.00    -0.322 NA
ATOM      3  N   UNL     1      32.914 -22.512 -18.523  0.00  0.00    -0.170 NA
ATOM      4  N   UNL     1      36.183 -22.666 -15.976  0.00  0.00    -0.287 N 
ATOM      5  C   UNL     1      32.838 -23.080 -17.278  0.00  0.00    +0.146 C 
ATOM      6  C   UNL     1      35.067 -22.611 -16.848  0.00  0.00    +0.202 C 
ATOM      7  C   UNL     1      34.108 -21.999 -18.888  0.00  0.00    +0.120 C 
ATOM      8  C   UNL     1      35.230 -22.021 -18.085  0.00  0.00    +0.118 C 
ATOM      9  H   UNL     1      30.888 -23.556 -17.498  0.00  0.00    +0.159 HD
ATOM     10  H   UNL     1      36.815 -21.920 -16.093  0.00  0.00    +0.155 HD
ENDROOT
BRANCH   4  11
ATOM     11  C   UNL     1      36.563 -23.579 -14.980  0.00  0.00    +0.050 C 
ATOM     12  C   UNL     1      37.838 -24.153 -14.999  0.00  0.00    +0.010 C 
ATOM     13  C   UNL     1      35.670 -23.919 -13.960  0.00  0.00    +0.015 C 
ATOM     14  C   UNL     1      38.215 -25.059 -14.008  0.00  0.00    -0.021 C 
ATOM     15  C   UNL     1      36.047 -24.825 -12.969  0.00  0.00    +0.001 C 
ATOM     16  C   UNL     1      37.319 -25.396 -12.993  0.00  0.00    -0.004 C 
ATOM     17  C   UNL     1      39.575 -25.670 -14.034  0.00  0.00    +0.031 C 
ENDBRANCH   4  11
BRANCH   1  18
ATOM     18  C   UNL     1      31.438 -24.235 -15.585  0.00  0.00    +0.060 C 
ATOM     19  C   UNL     1      31.042 -23.204 -14.511  0.00  0.00    -0.047 C 
ATOM     20  C   UNL     1      30.372 -25.328 -15.724  0.00  0.00    +0.018 C 
ATOM     21  C   UNL     1      29.632 -22.639 -14.729  0.00  0.00    -0.020 C 
ATOM     22  C   UNL     1      28.967 -24.762 -15.931  0.00  0.00    +0.002 C 
ATOM     23  C   UNL     1      28.597 -23.755 -14.846  0.00  0.00    -0.002 C 
BRANCH  19  24
ATOM     24  N   UNL     1      32.013 -22.112 -14.435  0.00  0.00    +0.383 N 
ATOM     25  H   UNL     1      31.731 -21.361 -15.067  0.00  0.00    -0.089 HD
ATOM     26  H   UNL     1      32.934 -22.456 -14.708  0.00  0.00    -0.089 HD
ATOM     27  H   UNL     1      32.052 -21.756 -13.480  0.00  0.00    -0.089 HD
ENDBRANCH  19  24
ENDBRANCH   1  18
BRANCH   8  30
ATOM     28  O   UNL     1      37.221 -20.797 -17.789  0.00  0.00    -0.270 OA
ATOM     29  N   UNL     1      36.843 -21.669 -19.877  0.00  0.00    -0.325 N 
ATOM     30  C   UNL     1      36.483 -21.449 -18.550  0.00  0.00    +0.248 C 
ATOM     31  H   UNL     1      37.683 -21.297 -20.227  0.00  0.00    +0.145 HD
ATOM     32  H   UNL     1      36.255 -22.198 -20.464  0.00  0.00    +0.145 HD
ENDBRANCH   8  30
TORSDOF 4
ENDMDL
MODEL 5
REMARK VINA RESULT:      -8.8      9.460     12.792
REMARK  Name = 11493841
REMARK  4 active torsions:
REMARK  status: ('A' for Active; 'I' for Inactive)
REMARK    1  A    between atoms: N_1  and  C_18
REMARK    2  A    between atoms: N_4  and  C_11
REMARK    3  A    between atoms: C_8  and  C_30
REMARK    4  A    between atoms: C_19  and  N_24
REMARK                            x       y       z     vdW  Elec       q    Type
REMARK                         _______ _______ _______ _____ _____    ______ ____
ROOT
ATOM      1  N   UNL     1      34.280 -16.564 -22.013  0.00  0.00    -0.272 N 
ATOM      2  N   UNL     1      33.894 -14.288 -22.435  0.00  0.00    -0.322 NA
ATOM      3  N   UNL     1      32.640 -15.463 -20.745  0.00  0.00    -0.170 NA
ATOM      4  N   UNL     1      33.487 -11.989 -22.846  0.00  0.00    -0.287 N 
ATOM      5  C   UNL     1      33.595 -15.424 -21.728  0.00  0.00    +0.146 C 
ATOM      6  C   UNL     1      33.196 -13.175 -22.126  0.00  0.00    +0.202 C 
ATOM      7  C   UNL     1      31.982 -14.314 -20.487  0.00  0.00    +0.120 C 
ATOM      8  C   UNL     1      32.220 -13.128 -21.152  0.00  0.00    +0.118 C 
ATOM      9  H   UNL     1      34.062 -17.375 -21.500  0.00  0.00    +0.159 HD
ATOM     10  H   UNL     1      33.338 -11.165 -22.329  0.00  0.00    +0.155 HD
ENDROOT
BRANCH   4  11
ATOM     11  C   UNL     1      33.944 -11.763 -24.153  0.00  0.00    +0.050 C 
ATOM     12  C   UNL     1      33.572 -12.625 -25.189  0.00  0.00    +0.010 C 
ATOM     13  C   UNL     1      34.775 -10.673 -24.429  0.00  0.00    +0.015 C 
ATOM     14  C   UNL     1      34.025 -12.400 -26.488  0.00  0.00    -0.021 C 
ATOM     15  C   UNL     1      35.229 -10.447 -25.728  0.00  0.00    +0.001 C 
ATOM     16  C   UNL     1      34.855 -11.311 -26.758  0.00  0.00    -0.004 C 
ATOM     17  C   UNL     1      33.627 -13.323 -27.589  0.00  0.00    +0.031 C 
ENDBRANCH   4  11
BRANCH   1  18
ATOM     18  C   UNL     1      35.313 -16.655 -23.030  0.00  0.00    +0.060 C 
ATOM     19  C   UNL     1      35.939 -18.062 -23.074  0.00  0.00    -0.047 C 
ATOM     20  C   UNL     1      34.720 -16.269 -24.389  0.00  0.00    +0.018 C 
ATOM     21  C   UNL     1      34.974 -19.119 -23.626  0.00  0.00    -0.020 C 
ATOM     22  C   UNL     1      33.766 -17.328 -24.942  0.00  0.00    +0.002 C 
ATOM     23  C   UNL     1      34.417 -18.708 -24.987  0.00  0.00    -0.002 C 
BRANCH  19  24
ATOM     24  N   UNL     1      36.429 -18.471 -21.757  0.00  0.00    +0.383 N 
ATOM     25  H   UNL     1      36.675 -19.461 -21.778  0.00  0.00    -0.089 HD
ATOM     26  H   UNL     1      35.700 -18.318 -21.061  0.00  0.00    -0.089 HD
ATOM     27  H   UNL     1      37.253 -17.920 -21.514  0.00  0.00    -0.089 HD
ENDBRANCH  19  24
ENDBRANCH   1  18
BRANCH   8  30
ATOM     28  O   UNL     1      30.757 -11.354 -21.661  0.00  0.00    -0.270 OA
ATOM     29  N   UNL     1      31.550 -11.456 -19.511  0.00  0.00    -0.325 N 
ATOM     30  C   UNL     1      31.467 -11.930 -20.817  0.00  0.00    +0.248 C 
ATOM     31  H   UNL     1      31.055 -10.647 -19.249  0.00  0.00    +0.145 HD
ATOM     32  H   UNL     1      32.106 -11.929 -18.851  0.00  0.00    +0.145 HD
ENDBRANCH   8  30
TORSDOF 4
ENDMDL
MODEL 6
REMARK VINA RESULT:      -8.4     11.250     15.466
REMARK  Name = 11493841
REMARK  4 active torsions:
REMARK  status: ('A' for Active; 'I' for Inactive)
REMARK    1  A    between atoms: N_1  and  C_18
REMARK    2  A    between atoms: N_4  and  C_11
REMARK    3  A    between atoms: C_8  and  C_30
REMARK    4  A    between atoms: C_19  and  N_24
REMARK                            x       y       z     vdW  Elec       q    Type
REMARK                         _______ _______ _______ _____ _____    ______ ____
ROOT
ATOM      1  N   UNL     1      31.513  -9.278 -21.754  0.00  0.00    -0.272 N 
ATOM      2  N   UNL     1      32.021 -11.388 -22.647  0.00  0.00    -0.322 NA
ATOM      3  N   UNL     1      31.831 -11.064 -20.266  0.00  0.00    -0.170 NA
ATOM      4  N   UNL     1      32.536 -13.528 -23.526  0.00  0.00    -0.287 N 
ATOM      5  C   UNL     1      31.793 -10.594 -21.553  0.00  0.00    +0.146 C 
ATOM      6  C   UNL     1      32.294 -12.688 -22.411  0.00  0.00    +0.202 C 
ATOM      7  C   UNL     1      32.109 -12.374 -20.103  0.00  0.00    +0.120 C 
ATOM      8  C   UNL     1      32.352 -13.243 -21.148  0.00  0.00    +0.118 C 
ATOM      9  H   UNL     1      31.349  -8.713 -20.964  0.00  0.00    +0.159 HD
ATOM     10  H   UNL     1      32.273 -14.466 -23.382  0.00  0.00    +0.155 HD
ENDROOT
BRANCH   4  11
ATOM     11  C   UNL     1      33.079 -13.282 -24.797  0.00  0.00    +0.050 C 
ATOM     12  C   UNL     1      33.916 -12.181 -25.004  0.00  0.00    +0.010 C 
ATOM     13  C   UNL     1      32.786 -14.136 -25.865  0.00  0.00    +0.015 C 
ATOM     14  C   UNL     1      34.456 -11.938 -26.267  0.00  0.00    -0.021 C 
ATOM     15  C   UNL     1      33.326 -13.892 -27.127  0.00  0.00    +0.001 C 
ATOM     16  C   UNL     1      34.160 -12.793 -27.329  0.00  0.00    -0.004 C 
ATOM     17  C   UNL     1      35.348 -10.762 -26.483  0.00  0.00    +0.031 C 
ENDBRANCH   4  11
BRANCH   1  18
ATOM     18  C   UNL     1      31.445  -8.656 -23.065  0.00  0.00    +0.060 C 
ATOM     19  C   UNL     1      31.557  -7.122 -22.969  0.00  0.00    -0.047 C 
ATOM     20  C   UNL     1      32.545  -9.237 -23.959  0.00  0.00    +0.018 C 
ATOM     21  C   UNL     1      32.963  -6.659 -22.564  0.00  0.00    -0.020 C 
ATOM     22  C   UNL     1      33.944  -8.767 -23.559  0.00  0.00    +0.002 C 
ATOM     23  C   UNL     1      34.030  -7.245 -23.486  0.00  0.00    -0.002 C 
BRANCH  19  24
ATOM     24  N   UNL     1      30.563  -6.570 -22.047  0.00  0.00    +0.383 N 
ATOM     25  H   UNL     1      30.498  -7.165 -21.221  0.00  0.00    -0.089 HD
ATOM     26  H   UNL     1      29.655  -6.532 -22.510  0.00  0.00    -0.089 HD
ATOM     27  H   UNL     1      30.843  -5.629 -21.769  0.00  0.00    -0.089 HD
ENDBRANCH  19  24
ENDBRANCH   1  18
BRANCH   8  30
ATOM     28  O   UNL     1      31.813 -15.536 -21.130  0.00  0.00    -0.270 OA
ATOM     29  N   UNL     1      33.905 -14.958 -20.385  0.00  0.00    -0.325 N 
ATOM     30  C   UNL     1      32.647 -14.643 -20.892  0.00  0.00    +0.248 C 
ATOM     31  H   UNL     1      34.139 -15.895 -20.199  0.00  0.00    +0.145 HD
ATOM     32  H   UNL     1      34.559 -14.243 -20.214  0.00  0.00    +0.145 HD
ENDBRANCH   8  30
TORSDOF 4
ENDMDL
MODEL 7
REMARK VINA RESULT:      -8.0     12.194     14.523
REMARK  Name = 11493841
REMARK  4 active torsions:
REMARK  status: ('A' for Active; 'I' for Inactive)
REMARK    1  A    between atoms: N_1  and  C_18
REMARK    2  A    between atoms: N_4  and  C_11
REMARK    3  A    between atoms: C_8  and  C_30
REMARK    4  A    between atoms: C_19  and  N_24
REMARK                            x       y       z     vdW  Elec       q    Type
REMARK                         _______ _______ _______ _____ _____    ______ ____
ROOT
ATOM      1  N   UNL     1      33.885 -12.950 -25.481  0.00  0.00    -0.272 N 
ATOM      2  N   UNL     1      33.363 -11.155 -24.062  0.00  0.00    -0.322 NA
ATOM      3  N   UNL     1      34.970 -10.900 -25.840  0.00  0.00    -0.170 NA
ATOM      4  N   UNL     1      32.851  -9.329 -22.641  0.00  0.00    -0.287 N 
ATOM      5  C   UNL     1      34.076 -11.652 -25.122  0.00  0.00    +0.146 C 
ATOM      6  C   UNL     1      33.576  -9.863 -23.735  0.00  0.00    +0.202 C 
ATOM      7  C   UNL     1      35.132  -9.617 -25.459  0.00  0.00    +0.120 C 
ATOM      8  C   UNL     1      34.457  -9.038 -24.404  0.00  0.00    +0.118 C 
ATOM      9  H   UNL     1      34.399 -13.300 -26.244  0.00  0.00    +0.159 HD
ATOM     10  H   UNL     1      32.669  -8.364 -22.718  0.00  0.00    +0.155 HD
ENDROOT
BRANCH   4  11
ATOM     11  C   UNL     1      32.344  -9.908 -21.467  0.00  0.00    +0.050 C 
ATOM     12  C   UNL     1      32.330 -11.298 -21.317  0.00  0.00    +0.010 C 
ATOM     13  C   UNL     1      31.851  -9.099 -20.439  0.00  0.00    +0.015 C 
ATOM     14  C   UNL     1      31.827 -11.873 -20.150  0.00  0.00    -0.021 C 
ATOM     15  C   UNL     1      31.348  -9.674 -19.273  0.00  0.00    +0.001 C 
ATOM     16  C   UNL     1      31.335 -11.061 -19.128  0.00  0.00    -0.004 C 
ATOM     17  C   UNL     1      31.812 -13.356 -19.995  0.00  0.00    +0.031 C 
ENDBRANCH   4  11
BRANCH   1  18
ATOM     18  C   UNL     1      32.970 -13.851 -24.803  0.00  0.00    +0.060 C 
ATOM     19  C   UNL     1      32.831 -15.188 -25.556  0.00  0.00    -0.047 C 
ATOM     20  C   UNL     1      33.450 -14.072 -23.365  0.00  0.00    +0.018 C 
ATOM     21  C   UNL     1      34.102 -16.043 -25.476  0.00  0.00    -0.020 C 
ATOM     22  C   UNL     1      34.711 -14.933 -23.287  0.00  0.00    +0.002 C 
ATOM     23  C   UNL     1      34.540 -16.255 -24.029  0.00  0.00    -0.002 C 
BRANCH  19  24
ATOM     24  N   UNL     1      32.457 -14.977 -26.955  0.00  0.00    +0.383 N 
ATOM     25  H   UNL     1      31.699 -15.612 -27.205  0.00  0.00    -0.089 HD
ATOM     26  H   UNL     1      33.263 -15.159 -27.554  0.00  0.00    -0.089 HD
ATOM     27  H   UNL     1      32.149 -14.013 -27.084  0.00  0.00    -0.089 HD
ENDBRANCH  19  24
ENDBRANCH   1  18
BRANCH   8  30
ATOM     28  O   UNL     1      34.992  -7.312 -22.893  0.00  0.00    -0.270 OA
ATOM     29  N   UNL     1      34.575  -6.695 -25.063  0.00  0.00    -0.325 N 
ATOM     30  C   UNL     1      34.688  -7.646 -24.052  0.00  0.00    +0.248 C 
ATOM     31  H   UNL     1      34.725  -5.744 -24.862  0.00  0.00    +0.145 HD
ATOM     32  H   UNL     1      34.347  -6.976 -25.979  0.00  0.00    +0.145 HD
ENDBRANCH   8  30
TORSDOF 4
ENDMDL
