MODEL 1
REMARK VINA RESULT:      -5.4      0.000      0.000
REMARK  Name = 10132
REMARK  4 active torsions:
REMARK  status: ('A' for Active; 'I' for Inactive)
REMARK    1  A    between atoms: C_2  and  C_4
REMARK    2  A    between atoms: C_2  and  C_8
REMARK    3  A    between atoms: C_4  and  O_5
REMARK    4  A    between atoms: C_8  and  O_9
REMARK                            x       y       z     vdW  Elec       q    Type
REMARK                         _______ _______ _______ _____ _____    ______ ____
ROOT
ATOM      1  O   UNL     1      39.024 -24.649 -13.631  0.00  0.00    -0.273 OA
ATOM      2  C   UNL     1      39.058 -25.697 -14.259  0.00  0.00    +0.345 C 
ENDROOT
BRANCH   2   4
ATOM      3  O   UNL     1      37.206 -27.016 -13.533  0.00  0.00    -0.241 OA
ATOM      4  C   UNL     1      37.790 -26.488 -14.457  0.00  0.00    +0.384 C 
BRANCH   4   5
ATOM      5  O   UNL     1      37.442 -26.504 -15.751  0.00  0.00    -0.475 OA
ATOM      6  H   UNL     1      37.683 -27.231 -16.293  0.00  0.00    +0.296 HD
ENDBRANCH   4   5
ENDBRANCH   2   4
BRANCH   2   8
ATOM      7  O   UNL     1      41.261 -26.578 -14.060  0.00  0.00    -0.241 OA
ATOM      8  C   UNL     1      40.394 -26.131 -14.783  0.00  0.00    +0.384 C 
BRANCH   8   9
ATOM      9  O   UNL     1      40.447 -25.915 -16.104  0.00  0.00    -0.475 OA
ATOM     10  H   UNL     1      41.074 -26.373 -16.628  0.00  0.00    +0.296 HD
ENDBRANCH   8   9
ENDBRANCH   2   8
TORSDOF 4
ENDMDL
MODEL 2
REMARK VINA RESULT:      -5.4     11.221     12.886
REMARK  Name = 10132
REMARK  4 active torsions:
REMARK  status: ('A' for Active; 'I' for Inactive)
REMARK    1  A    between atoms: C_2  and  C_4
REMARK    2  A    between atoms: C_2  and  C_8
REMARK    3  A    between atoms: C_4  and  O_5
REMARK    4  A    between atoms: C_8  and  O_9
REMARK                            x       y       z     vdW  Elec       q    Type
REMARK                         _______ _______ _______ _____ _____    ______ ____
ROOT
ATOM      1  O   UNL     1      27.385 -23.523 -17.959  0.00  0.00    -0.273 OA
ATOM      2  C   UNL     1      27.521 -22.551 -17.230  0.00  0.00    +0.345 C 
ENDROOT
BRANCH   2   4
ATOM      3  O   UNL     1      29.869 -22.720 -16.834  0.00  0.00    -0.241 OA
ATOM      4  C   UNL     1      28.777 -22.407 -16.408  0.00  0.00    +0.384 C 
BRANCH   4   5
ATOM      5  O   UNL     1      28.492 -21.902 -15.199  0.00  0.00    -0.475 OA
ATOM      6  H   UNL     1      27.708 -21.403 -15.073  0.00  0.00    +0.296 HD
ENDBRANCH   4   5
ENDBRANCH   2   4
BRANCH   2   8
ATOM      7  O   UNL     1      26.313 -20.644 -17.987  0.00  0.00    -0.241 OA
ATOM      8  C   UNL     1      26.393 -21.564 -17.199  0.00  0.00    +0.384 C 
BRANCH   8   9
ATOM      9  O   UNL     1      25.569 -21.860 -16.185  0.00  0.00    -0.475 OA
ATOM     10  H   UNL     1      25.910 -22.243 -15.402  0.00  0.00    +0.296 HD
ENDBRANCH   8   9
ENDBRANCH   2   8
TORSDOF 4
ENDMDL
MODEL 3
REMARK VINA RESULT:      -5.3      1.313      3.246
REMARK  Name = 10132
REMARK  4 active torsions:
REMARK  status: ('A' for Active; 'I' for Inactive)
REMARK    1  A    between atoms: C_2  and  C_4
REMARK    2  A    between atoms: C_2  and  C_8
REMARK    3  A    between atoms: C_4  and  O_5
REMARK    4  A    between atoms: C_8  and  O_9
REMARK                            x       y       z     vdW  Elec       q    Type
REMARK                         _______ _______ _______ _____ _____    ______ ____
ROOT
ATOM      1  O   UNL     1      38.426 -26.931 -14.646  0.00  0.00    -0.273 OA
ATOM      2  C   UNL     1      38.983 -25.946 -14.185  0.00  0.00    +0.345 C 
ENDROOT
BRANCH   2   4
ATOM      3  O   UNL     1      40.978 -24.640 -14.284  0.00  0.00    -0.241 OA
ATOM      4  C   UNL     1      40.237 -25.424 -14.839  0.00  0.00    +0.384 C 
BRANCH   4   5
ATOM      5  O   UNL     1      40.381 -25.947 -16.065  0.00  0.00    -0.475 OA
ATOM      6  H   UNL     1      40.749 -26.804 -16.168  0.00  0.00    +0.296 HD
ENDBRANCH   4   5
ENDBRANCH   2   4
BRANCH   2   8
ATOM      7  O   UNL     1      37.857 -25.993 -12.088  0.00  0.00    -0.241 OA
ATOM      8  C   UNL     1      38.368 -25.328 -12.965  0.00  0.00    +0.384 C 
BRANCH   8   9
ATOM      9  O   UNL     1      38.464 -23.995 -13.044  0.00  0.00    -0.475 OA
ATOM     10  H   UNL     1      39.304 -23.590 -13.135  0.00  0.00    +0.296 HD
ENDBRANCH   8   9
ENDBRANCH   2   8
TORSDOF 4
ENDMDL
MODEL 4
REMARK VINA RESULT:      -5.3      1.305      2.073
REMARK  Name = 10132
REMARK  4 active torsions:
REMARK  status: ('A' for Active; 'I' for Inactive)
REMARK    1  A    between atoms: C_2  and  C_4
REMARK    2  A    between atoms: C_2  and  C_8
REMARK    3  A    between atoms: C_4  and  O_5
REMARK    4  A    between atoms: C_8  and  O_9
REMARK                            x       y       z     vdW  Elec       q    Type
REMARK                         _______ _______ _______ _____ _____    ______ ____
ROOT
ATOM      1  O   UNL     1      38.475 -26.911 -14.699  0.00  0.00    -0.273 OA
ATOM      2  C   UNL     1      39.017 -25.953 -14.169  0.00  0.00    +0.345 C 
ENDROOT
BRANCH   2   4
ATOM      3  O   UNL     1      37.812 -26.023 -12.110  0.00  0.00    -0.241 OA
ATOM      4  C   UNL     1      38.419 -25.354 -12.921  0.00  0.00    +0.384 C 
BRANCH   4   5
ATOM      5  O   UNL     1      38.662 -24.038 -12.867  0.00  0.00    -0.475 OA
ATOM      6  H   UNL     1      38.539 -23.507 -13.630  0.00  0.00    +0.296 HD
ENDBRANCH   4   5
ENDBRANCH   2   4
BRANCH   2   8
ATOM      7  O   UNL     1      40.996 -24.634 -14.280  0.00  0.00    -0.241 OA
ATOM      8  C   UNL     1      40.256 -25.424 -14.828  0.00  0.00    +0.384 C 
BRANCH   8   9
ATOM      9  O   UNL     1      40.360 -25.939 -16.060  0.00  0.00    -0.475 OA
ATOM     10  H   UNL     1      39.589 -26.092 -16.570  0.00  0.00    +0.296 HD
ENDBRANCH   8   9
ENDBRANCH   2   8
TORSDOF 4
ENDMDL
MODEL 5
REMARK VINA RESULT:      -5.3      1.119      1.625
REMARK  Name = 10132
REMARK  4 active torsions:
REMARK  status: ('A' for Active; 'I' for Inactive)
REMARK    1  A    between atoms: C_2  and  C_4
REMARK    2  A    between atoms: C_2  and  C_8
REMARK    3  A    between atoms: C_4  and  O_5
REMARK    4  A    between atoms: C_8  and  O_9
REMARK                            x       y       z     vdW  Elec       q    Type
REMARK                         _______ _______ _______ _____ _____    ______ ____
ROOT
ATOM      1  O   UNL     1      38.807 -26.044 -12.971  0.00  0.00    -0.273 OA
ATOM      2  C   UNL     1      39.050 -25.629 -14.094  0.00  0.00    +0.345 C 
ENDROOT
BRANCH   2   4
ATOM      3  O   UNL     1      38.057 -23.521 -14.613  0.00  0.00    -0.241 OA
ATOM      4  C   UNL     1      38.061 -24.723 -14.784  0.00  0.00    +0.384 C 
BRANCH   4   5
ATOM      5  O   UNL     1      37.241 -25.433 -15.570  0.00  0.00    -0.475 OA
ATOM      6  H   UNL     1      36.340 -25.540 -15.332  0.00  0.00    +0.296 HD
ENDBRANCH   4   5
ENDBRANCH   2   4
BRANCH   2   8
ATOM      7  O   UNL     1      41.236 -26.570 -14.071  0.00  0.00    -0.241 OA
ATOM      8  C   UNL     1      40.337 -26.077 -14.719  0.00  0.00    +0.384 C 
BRANCH   8   9
ATOM      9  O   UNL     1      40.309 -25.816 -16.032  0.00  0.00    -0.475 OA
ATOM     10  H   UNL     1      40.896 -26.260 -16.610  0.00  0.00    +0.296 HD
ENDBRANCH   8   9
ENDBRANCH   2   8
TORSDOF 4
ENDMDL
MODEL 6
REMARK VINA RESULT:      -5.3      1.146      3.165
REMARK  Name = 10132
REMARK  4 active torsions:
REMARK  status: ('A' for Active; 'I' for Inactive)
REMARK    1  A    between atoms: C_2  and  C_4
REMARK    2  A    between atoms: C_2  and  C_8
REMARK    3  A    between atoms: C_4  and  O_5
REMARK    4  A    between atoms: C_8  and  O_9
REMARK                            x       y       z     vdW  Elec       q    Type
REMARK                         _______ _______ _______ _____ _____    ______ ____
ROOT
ATOM      1  O   UNL     1      38.253 -23.988 -14.224  0.00  0.00    -0.273 OA
ATOM      2  C   UNL     1      38.667 -25.038 -14.693  0.00  0.00    +0.345 C 
ENDROOT
BRANCH   2   4
ATOM      3  O   UNL     1      40.988 -24.725 -14.232  0.00  0.00    -0.241 OA
ATOM      4  C   UNL     1      40.142 -25.204 -14.959  0.00  0.00    +0.384 C 
BRANCH   4   5
ATOM      5  O   UNL     1      40.342 -25.931 -16.067  0.00  0.00    -0.475 OA
ATOM      6  H   UNL     1      39.644 -26.450 -16.419  0.00  0.00    +0.296 HD
ENDBRANCH   4   5
ENDBRANCH   2   4
BRANCH   2   8
ATOM      7  O   UNL     1      36.565 -25.840 -15.470  0.00  0.00    -0.241 OA
ATOM      8  C   UNL     1      37.649 -26.097 -14.989  0.00  0.00    +0.384 C 
BRANCH   8   9
ATOM      9  O   UNL     1      38.128 -27.292 -14.618  0.00  0.00    -0.475 OA
ATOM     10  H   UNL     1      38.870 -27.342 -14.050  0.00  0.00    +0.296 HD
ENDBRANCH   8   9
ENDBRANCH   2   8
TORSDOF 4
ENDMDL
MODEL 7
REMARK VINA RESULT:      -5.1      3.464      4.265
REMARK  Name = 10132
REMARK  4 active torsions:
REMARK  status: ('A' for Active; 'I' for Inactive)
REMARK    1  A    between atoms: C_2  and  C_4
REMARK    2  A    between atoms: C_2  and  C_8
REMARK    3  A    between atoms: C_4  and  O_5
REMARK    4  A    between atoms: C_8  and  O_9
REMARK                            x       y       z     vdW  Elec       q    Type
REMARK                         _______ _______ _______ _____ _____    ______ ____
ROOT
ATOM      1  O   UNL     1      37.412 -22.717 -11.140  0.00  0.00    -0.273 OA
ATOM      2  C   UNL     1      37.034 -23.822 -11.500  0.00  0.00    +0.345 C 
ENDROOT
BRANCH   2   4
ATOM      3  O   UNL     1      35.311 -25.071 -10.420  0.00  0.00    -0.241 OA
ATOM      4  C   UNL     1      35.606 -24.238 -11.252  0.00  0.00    +0.384 C 
BRANCH   4   5
ATOM      5  O   UNL     1      34.774 -23.568 -12.061  0.00  0.00    -0.475 OA
ATOM      6  H   UNL     1      34.895 -22.649 -12.200  0.00  0.00    +0.296 HD
ENDBRANCH   4   5
ENDBRANCH   2   4
BRANCH   2   8
ATOM      7  O   UNL     1      38.977 -24.257 -12.805  0.00  0.00    -0.241 OA
ATOM      8  C   UNL     1      38.050 -24.703 -12.162  0.00  0.00    +0.384 C 
BRANCH   8   9
ATOM      9  O   UNL     1      37.737 -25.987 -11.942  0.00  0.00    -0.475 OA
ATOM     10  H   UNL     1      37.084 -26.207 -11.308  0.00  0.00    +0.296 HD
ENDBRANCH   8   9
ENDBRANCH   2   8
TORSDOF 4
ENDMDL
MODEL 8
REMARK VINA RESULT:      -5.1      3.464      5.070
REMARK  Name = 10132
REMARK  4 active torsions:
REMARK  status: ('A' for Active; 'I' for Inactive)
REMARK    1  A    between atoms: C_2  and  C_4
REMARK    2  A    between atoms: C_2  and  C_8
REMARK    3  A    between atoms: C_4  and  O_5
REMARK    4  A    between atoms: C_8  and  O_9
REMARK                            x       y       z     vdW  Elec       q    Type
REMARK                         _______ _______ _______ _____ _____    ______ ____
ROOT
ATOM      1  O   UNL     1      37.384 -22.717 -11.129  0.00  0.00    -0.273 OA
ATOM      2  C   UNL     1      37.042 -23.830 -11.499  0.00  0.00    +0.345 C 
ENDROOT
BRANCH   2   4
ATOM      3  O   UNL     1      38.934 -24.275 -12.886  0.00  0.00    -0.241 OA
ATOM      4  C   UNL     1      38.037 -24.721 -12.200  0.00  0.00    +0.384 C 
BRANCH   4   5
ATOM      5  O   UNL     1      37.774 -26.011 -11.948  0.00  0.00    -0.475 OA
ATOM      6  H   UNL     1      38.118 -26.416 -11.175  0.00  0.00    +0.296 HD
ENDBRANCH   4   5
ENDBRANCH   2   4
BRANCH   2   8
ATOM      7  O   UNL     1      35.322 -25.067 -10.413  0.00  0.00    -0.241 OA
ATOM      8  C   UNL     1      35.620 -24.226 -11.235  0.00  0.00    +0.384 C 
BRANCH   8   9
ATOM      9  O   UNL     1      34.808 -23.537 -12.046  0.00  0.00    -0.475 OA
ATOM     10  H   UNL     1      34.875 -22.604 -12.094  0.00  0.00    +0.296 HD
ENDBRANCH   8   9
ENDBRANCH   2   8
TORSDOF 4
ENDMDL
MODEL 9
REMARK VINA RESULT:      -5.1      1.791      2.991
REMARK  Name = 10132
REMARK  4 active torsions:
REMARK  status: ('A' for Active; 'I' for Inactive)
REMARK    1  A    between atoms: C_2  and  C_4
REMARK    2  A    between atoms: C_2  and  C_8
REMARK    3  A    between atoms: C_4  and  O_5
REMARK    4  A    between atoms: C_8  and  O_9
REMARK                            x       y       z     vdW  Elec       q    Type
REMARK                         _______ _______ _______ _____ _____    ______ ____
ROOT
ATOM      1  O   UNL     1      38.922 -26.861 -14.637  0.00  0.00    -0.273 OA
ATOM      2  C   UNL     1      37.812 -26.503 -14.270  0.00  0.00    +0.345 C 
ENDROOT
BRANCH   2   4
ATOM      3  O   UNL     1      36.689 -27.313 -16.214  0.00  0.00    -0.241 OA
ATOM      4  C   UNL     1      36.639 -26.636 -15.208  0.00  0.00    +0.384 C 
BRANCH   4   5
ATOM      5  O   UNL     1      35.597 -25.921 -14.762  0.00  0.00    -0.475 OA
ATOM      6  H   UNL     1      34.789 -25.923 -15.238  0.00  0.00    +0.296 HD
ENDBRANCH   4   5
ENDBRANCH   2   4
BRANCH   2   8
ATOM      7  O   UNL     1      36.967 -26.402 -12.047  0.00  0.00    -0.241 OA
ATOM      8  C   UNL     1      37.706 -25.933 -12.888  0.00  0.00    +0.384 C 
BRANCH   8   9
ATOM      9  O   UNL     1      38.507 -24.865 -12.783  0.00  0.00    -0.475 OA
ATOM     10  H   UNL     1      39.418 -24.942 -12.987  0.00  0.00    +0.296 HD
ENDBRANCH   8   9
ENDBRANCH   2   8
TORSDOF 4
ENDMDL
