MODEL 1
REMARK VINA RESULT:      -5.7      0.000      0.000
REMARK  Name = 36690559
REMARK  6 active torsions:
REMARK  status: ('A' for Active; 'I' for Inactive)
REMARK    1  A    between atoms: C_1  and  N_2
REMARK    2  A    between atoms: C_1  and  C_8
REMARK    3  A    between atoms: C_1  and  C_9
REMARK    4  A    between atoms: C_9  and  C_10
REMARK    5  A    between atoms: C_10  and  S_11
REMARK    6  A    between atoms: S_11  and  C_15
REMARK                            x       y       z     vdW  Elec       q    Type
REMARK                         _______ _______ _______ _____ _____    ______ ____
ROOT
ATOM      1  C   UNK     1      27.846 -23.068 -15.911  0.00  0.00    +0.041 C 
ENDROOT
BRANCH   1   2
ATOM      2  N   UNK     1      28.222 -24.116 -16.912  0.00  0.00    +0.389 N 
ATOM      3  H   UNK     1      28.353 -23.682 -17.825  0.00  0.00    -0.088 HD
ATOM      4  H   UNK     1      27.478 -24.812 -16.970  0.00  0.00    -0.088 HD
ATOM      5  H   UNK     1      29.088 -24.568 -16.621  0.00  0.00    -0.088 HD
ENDBRANCH   1   2
BRANCH   1   8
ATOM      6  O   UNK     1      25.680 -22.095 -15.769  0.00  0.00    -0.248 OA
ATOM      7  O   UNK     1      27.125 -21.340 -17.365  0.00  0.00    -0.248 OA
ATOM      8  C   UNK     1      26.775 -22.078 -16.401  0.00  0.00    +0.345 C 
ENDBRANCH   1   8
BRANCH   1   9
ATOM      9  C   UNK     1      29.147 -22.432 -15.397  0.00  0.00    +0.001 C 
BRANCH   9  10
ATOM     10  C   UNK     1      30.417 -23.049 -15.988  0.00  0.00    +0.064 C 
BRANCH  10  11
ATOM     11  S   UNK     1      31.703 -23.202 -14.713  0.00  0.00    -0.042 S 
BRANCH  11  15
ATOM     12  F   UNK     1      32.111 -25.429 -13.397  0.00  0.00    -0.160 F 
ATOM     13  F   UNK     1      30.254 -24.398 -12.889  0.00  0.00    -0.160 F 
ATOM     14  F   UNK     1      30.426 -25.469 -14.782  0.00  0.00    -0.160 F 
ATOM     15  C   UNK     1      31.100 -24.685 -13.907  0.00  0.00    +0.444 C 
ENDBRANCH  11  15
ENDBRANCH  10  11
ENDBRANCH   9  10
ENDBRANCH   1   9
TORSDOF 6
ENDMDL
MODEL 2
REMARK VINA RESULT:      -5.6      8.284      8.858
REMARK  Name = 36690559
REMARK  6 active torsions:
REMARK  status: ('A' for Active; 'I' for Inactive)
REMARK    1  A    between atoms: C_1  and  N_2
REMARK    2  A    between atoms: C_1  and  C_8
REMARK    3  A    between atoms: C_1  and  C_9
REMARK    4  A    between atoms: C_9  and  C_10
REMARK    5  A    between atoms: C_10  and  S_11
REMARK    6  A    between atoms: S_11  and  C_15
REMARK                            x       y       z     vdW  Elec       q    Type
REMARK                         _______ _______ _______ _____ _____    ______ ____
ROOT
ATOM      1  C   UNK     1      36.784 -23.365 -11.657  0.00  0.00    +0.041 C 
ENDROOT
BRANCH   1   2
ATOM      2  N   UNK     1      38.209 -23.821 -11.624  0.00  0.00    +0.389 N 
ATOM      3  H   UNK     1      38.642 -23.520 -10.751  0.00  0.00    -0.088 HD
ATOM      4  H   UNK     1      38.714 -23.415 -12.412  0.00  0.00    -0.088 HD
ATOM      5  H   UNK     1      38.241 -24.839 -11.687  0.00  0.00    -0.088 HD
ENDBRANCH   1   2
BRANCH   1   8
ATOM      6  O   UNK     1      34.960 -24.889 -11.567  0.00  0.00    -0.248 OA
ATOM      7  O   UNK     1      35.994 -24.292  -9.623  0.00  0.00    -0.248 OA
ATOM      8  C   UNK     1      35.812 -24.263 -10.874  0.00  0.00    +0.345 C 
ENDBRANCH   1   8
BRANCH   1   9
ATOM      9  C   UNK     1      36.413 -23.116 -13.128  0.00  0.00    +0.001 C 
BRANCH   9  10
ATOM     10  C   UNK     1      37.381 -23.748 -14.130  0.00  0.00    +0.064 C 
BRANCH  10  11
ATOM     11  S   UNK     1      36.640 -25.224 -14.888  0.00  0.00    -0.042 S 
BRANCH  11  15
ATOM     12  F   UNK     1      38.876 -26.075 -13.824  0.00  0.00    -0.160 F 
ATOM     13  F   UNK     1      37.066 -26.770 -12.818  0.00  0.00    -0.160 F 
ATOM     14  F   UNK     1      37.642 -27.622 -14.742  0.00  0.00    -0.160 F 
ATOM     15  C   UNK     1      37.597 -26.471 -14.028  0.00  0.00    +0.444 C 
ENDBRANCH  11  15
ENDBRANCH  10  11
ENDBRANCH   9  10
ENDBRANCH   1   9
TORSDOF 6
ENDMDL
MODEL 3
REMARK VINA RESULT:      -5.6      8.543      9.161
REMARK  Name = 36690559
REMARK  6 active torsions:
REMARK  status: ('A' for Active; 'I' for Inactive)
REMARK    1  A    between atoms: C_1  and  N_2
REMARK    2  A    between atoms: C_1  and  C_8
REMARK    3  A    between atoms: C_1  and  C_9
REMARK    4  A    between atoms: C_9  and  C_10
REMARK    5  A    between atoms: C_10  and  S_11
REMARK    6  A    between atoms: S_11  and  C_15
REMARK                            x       y       z     vdW  Elec       q    Type
REMARK                         _______ _______ _______ _____ _____    ______ ____
ROOT
ATOM      1  C   UNK     1      35.644 -24.432 -12.818  0.00  0.00    +0.041 C 
ENDROOT
BRANCH   1   2
ATOM      2  N   UNK     1      34.394 -23.619 -12.946  0.00  0.00    +0.389 N 
ATOM      3  H   UNK     1      34.628 -22.627 -12.899  0.00  0.00    -0.088 HD
ATOM      4  H   UNK     1      33.756 -23.854 -12.185  0.00  0.00    -0.088 HD
ATOM      5  H   UNK     1      33.947 -23.822 -13.840  0.00  0.00    -0.088 HD
ENDBRANCH   1   2
BRANCH   1   8
ATOM      6  O   UNK     1      35.261 -25.066 -10.558  0.00  0.00    -0.248 OA
ATOM      7  O   UNK     1      37.344 -24.363 -11.167  0.00  0.00    -0.248 OA
ATOM      8  C   UNK     1      36.126 -24.632 -11.371  0.00  0.00    +0.345 C 
ENDBRANCH   1   8
BRANCH   1   9
ATOM      9  C   UNK     1      36.683 -23.839 -13.784  0.00  0.00    +0.001 C 
BRANCH   9  10
ATOM     10  C   UNK     1      36.963 -24.712 -15.009  0.00  0.00    +0.064 C 
BRANCH  10  11
ATOM     11  S   UNK     1      37.867 -26.214 -14.528  0.00  0.00    -0.042 S 
BRANCH  11  15
ATOM     12  F   UNK     1      39.707 -24.563 -15.392  0.00  0.00    -0.160 F 
ATOM     13  F   UNK     1      39.766 -24.950 -13.243  0.00  0.00    -0.160 F 
ATOM     14  F   UNK     1      40.454 -26.472 -14.647  0.00  0.00    -0.160 F 
ATOM     15  C   UNK     1      39.515 -25.515 -14.448  0.00  0.00    +0.444 C 
ENDBRANCH  11  15
ENDBRANCH  10  11
ENDBRANCH   9  10
ENDBRANCH   1   9
TORSDOF 6
ENDMDL
MODEL 4
REMARK VINA RESULT:      -5.5      8.477      9.760
REMARK  Name = 36690559
REMARK  6 active torsions:
REMARK  status: ('A' for Active; 'I' for Inactive)
REMARK    1  A    between atoms: C_1  and  N_2
REMARK    2  A    between atoms: C_1  and  C_8
REMARK    3  A    between atoms: C_1  and  C_9
REMARK    4  A    between atoms: C_9  and  C_10
REMARK    5  A    between atoms: C_10  and  S_11
REMARK    6  A    between atoms: S_11  and  C_15
REMARK                            x       y       z     vdW  Elec       q    Type
REMARK                         _______ _______ _______ _____ _____    ______ ____
ROOT
ATOM      1  C   UNK     1      38.783 -25.514 -14.483  0.00  0.00    +0.041 C 
ENDROOT
BRANCH   1   2
ATOM      2  N   UNK     1      38.266 -26.913 -14.361  0.00  0.00    +0.389 N 
ATOM      3  H   UNK     1      39.042 -27.547 -14.173  0.00  0.00    -0.088 HD
ATOM      4  H   UNK     1      37.810 -27.184 -15.233  0.00  0.00    -0.088 HD
ATOM      5  H   UNK     1      37.593 -26.961 -13.596  0.00  0.00    -0.088 HD
ENDBRANCH   1   2
BRANCH   1   8
ATOM      6  O   UNK     1      40.610 -26.121 -15.879  0.00  0.00    -0.248 OA
ATOM      7  O   UNK     1      40.960 -24.622 -14.196  0.00  0.00    -0.248 OA
ATOM      8  C   UNK     1      40.263 -25.417 -14.888  0.00  0.00    +0.345 C 
ENDBRANCH   1   8
BRANCH   1   9
ATOM      9  C   UNK     1      38.401 -24.766 -13.195  0.00  0.00    +0.001 C 
BRANCH   9  10
ATOM     10  C   UNK     1      37.271 -23.750 -13.378  0.00  0.00    +0.064 C 
BRANCH  10  11
ATOM     11  S   UNK     1      36.880 -23.542 -15.141  0.00  0.00    -0.042 S 
BRANCH  11  15
ATOM     12  F   UNK     1      35.464 -25.730 -15.397  0.00  0.00    -0.160 F 
ATOM     13  F   UNK     1      34.640 -24.270 -13.997  0.00  0.00    -0.160 F 
ATOM     14  F   UNK     1      34.509 -23.918 -16.146  0.00  0.00    -0.160 F 
ATOM     15  C   UNK     1      35.309 -24.404 -15.166  0.00  0.00    +0.444 C 
ENDBRANCH  11  15
ENDBRANCH  10  11
ENDBRANCH   9  10
ENDBRANCH   1   9
TORSDOF 6
ENDMDL
MODEL 5
REMARK VINA RESULT:      -5.5      9.151     10.163
REMARK  Name = 36690559
REMARK  6 active torsions:
REMARK  status: ('A' for Active; 'I' for Inactive)
REMARK    1  A    between atoms: C_1  and  N_2
REMARK    2  A    between atoms: C_1  and  C_8
REMARK    3  A    between atoms: C_1  and  C_9
REMARK    4  A    between atoms: C_9  and  C_10
REMARK    5  A    between atoms: C_10  and  S_11
REMARK    6  A    between atoms: S_11  and  C_15
REMARK                            x       y       z     vdW  Elec       q    Type
REMARK                         _______ _______ _______ _____ _____    ______ ____
ROOT
ATOM      1  C   UNK     1      38.862 -25.657 -14.734  0.00  0.00    +0.041 C 
ENDROOT
BRANCH   1   2
ATOM      2  N   UNK     1      38.129 -26.870 -14.253  0.00  0.00    +0.389 N 
ATOM      3  H   UNK     1      37.191 -26.882 -14.655  0.00  0.00    -0.088 HD
ATOM      4  H   UNK     1      38.061 -26.845 -13.235  0.00  0.00    -0.088 HD
ATOM      5  H   UNK     1      38.634 -27.708 -14.540  0.00  0.00    -0.088 HD
ENDBRANCH   1   2
BRANCH   1   8
ATOM      6  O   UNK     1      40.861 -26.935 -14.574  0.00  0.00    -0.248 OA
ATOM      7  O   UNK     1      41.012 -24.661 -14.665  0.00  0.00    -0.248 OA
ATOM      8  C   UNK     1      40.394 -25.763 -14.640  0.00  0.00    +0.345 C 
ENDBRANCH   1   8
BRANCH   1   9
ATOM      9  C   UNK     1      38.241 -24.435 -14.038  0.00  0.00    +0.001 C 
BRANCH   9  10
ATOM     10  C   UNK     1      38.308 -24.488 -12.510  0.00  0.00    +0.064 C 
BRANCH  10  11
ATOM     11  S   UNK     1      37.277 -23.180 -11.782  0.00  0.00    -0.042 S 
BRANCH  11  15
ATOM     12  F   UNK     1      34.708 -23.610 -12.052  0.00  0.00    -0.160 F 
ATOM     13  F   UNK     1      35.927 -25.419 -11.923  0.00  0.00    -0.160 F 
ATOM     14  F   UNK     1      35.552 -24.224 -10.136  0.00  0.00    -0.160 F 
ATOM     15  C   UNK     1      35.804 -24.150 -11.466  0.00  0.00    +0.444 C 
ENDBRANCH  11  15
ENDBRANCH  10  11
ENDBRANCH   9  10
ENDBRANCH   1   9
TORSDOF 6
ENDMDL
MODEL 6
REMARK VINA RESULT:      -5.5      9.487     10.099
REMARK  Name = 36690559
REMARK  6 active torsions:
REMARK  status: ('A' for Active; 'I' for Inactive)
REMARK    1  A    between atoms: C_1  and  N_2
REMARK    2  A    between atoms: C_1  and  C_8
REMARK    3  A    between atoms: C_1  and  C_9
REMARK    4  A    between atoms: C_9  and  C_10
REMARK    5  A    between atoms: C_10  and  S_11
REMARK    6  A    between atoms: S_11  and  C_15
REMARK                            x       y       z     vdW  Elec       q    Type
REMARK                         _______ _______ _______ _____ _____    ______ ____
ROOT
ATOM      1  C   UNK     1      38.738 -24.856 -14.633  0.00  0.00    +0.041 C 
ENDROOT
BRANCH   1   2
ATOM      2  N   UNK     1      38.492 -23.880 -15.740  0.00  0.00    +0.389 N 
ATOM      3  H   UNK     1      37.579 -24.061 -16.156  0.00  0.00    -0.088 HD
ATOM      4  H   UNK     1      39.216 -23.983 -16.452  0.00  0.00    -0.088 HD
ATOM      5  H   UNK     1      38.515 -22.931 -15.367  0.00  0.00    -0.088 HD
ENDBRANCH   1   2
BRANCH   1   8
ATOM      6  O   UNK     1      41.112 -24.713 -14.666  0.00  0.00    -0.248 OA
ATOM      7  O   UNK     1      40.133 -26.773 -14.649  0.00  0.00    -0.248 OA
ATOM      8  C   UNK     1      40.131 -25.509 -14.661  0.00  0.00    +0.345 C 
ENDBRANCH   1   8
BRANCH   1   9
ATOM      9  C   UNK     1      37.552 -25.833 -14.605  0.00  0.00    +0.001 C 
BRANCH   9  10
ATOM     10  C   UNK     1      36.839 -25.909 -13.253  0.00  0.00    +0.064 C 
BRANCH  10  11
ATOM     11  S   UNK     1      35.910 -24.379 -12.937  0.00  0.00    -0.042 S 
BRANCH  11  15
ATOM     12  F   UNK     1      38.033 -24.424 -11.404  0.00  0.00    -0.160 F 
ATOM     13  F   UNK     1      37.087 -22.464 -11.595  0.00  0.00    -0.160 F 
ATOM     14  F   UNK     1      36.156 -24.012 -10.372  0.00  0.00    -0.160 F 
ATOM     15  C   UNK     1      36.839 -23.793 -11.521  0.00  0.00    +0.444 C 
ENDBRANCH  11  15
ENDBRANCH  10  11
ENDBRANCH   9  10
ENDBRANCH   1   9
TORSDOF 6
ENDMDL
MODEL 7
REMARK VINA RESULT:      -5.5      9.030      9.688
REMARK  Name = 36690559
REMARK  6 active torsions:
REMARK  status: ('A' for Active; 'I' for Inactive)
REMARK    1  A    between atoms: C_1  and  N_2
REMARK    2  A    between atoms: C_1  and  C_8
REMARK    3  A    between atoms: C_1  and  C_9
REMARK    4  A    between atoms: C_9  and  C_10
REMARK    5  A    between atoms: C_10  and  S_11
REMARK    6  A    between atoms: S_11  and  C_15
REMARK                            x       y       z     vdW  Elec       q    Type
REMARK                         _______ _______ _______ _____ _____    ______ ____
ROOT
ATOM      1  C   UNK     1      36.410 -23.528 -12.758  0.00  0.00    +0.041 C 
ENDROOT
BRANCH   1   2
ATOM      2  N   UNK     1      37.017 -22.920 -13.983  0.00  0.00    +0.389 N 
ATOM      3  H   UNK     1      37.402 -22.004 -13.753  0.00  0.00    -0.088 HD
ATOM      4  H   UNK     1      36.301 -22.817 -14.703  0.00  0.00    -0.088 HD
ATOM      5  H   UNK     1      37.762 -23.526 -14.329  0.00  0.00    -0.088 HD
ENDBRANCH   1   2
BRANCH   1   8
ATOM      6  O   UNK     1      38.334 -22.723 -11.616  0.00  0.00    -0.248 OA
ATOM      7  O   UNK     1      36.695 -23.761 -10.416  0.00  0.00    -0.248 OA
ATOM      8  C   UNK     1      37.231 -23.324 -11.474  0.00  0.00    +0.345 C 
ENDBRANCH   1   8
BRANCH   1   9
ATOM      9  C   UNK     1      36.058 -24.987 -13.092  0.00  0.00    +0.001 C 
BRANCH   9  10
ATOM     10  C   UNK     1      37.229 -25.960 -12.939  0.00  0.00    +0.064 C 
BRANCH  10  11
ATOM     11  S   UNK     1      37.888 -26.424 -14.567  0.00  0.00    -0.042 S 
BRANCH  11  15
ATOM     12  F   UNK     1      40.503 -26.414 -14.714  0.00  0.00    -0.160 F 
ATOM     13  F   UNK     1      39.547 -24.554 -15.345  0.00  0.00    -0.160 F 
ATOM     14  F   UNK     1      39.656 -25.063 -13.226  0.00  0.00    -0.160 F 
ATOM     15  C   UNK     1      39.465 -25.579 -14.464  0.00  0.00    +0.444 C 
ENDBRANCH  11  15
ENDBRANCH  10  11
ENDBRANCH   9  10
ENDBRANCH   1   9
TORSDOF 6
ENDMDL
MODEL 8
REMARK VINA RESULT:      -5.5     11.842     12.469
REMARK  Name = 36690559
REMARK  6 active torsions:
REMARK  status: ('A' for Active; 'I' for Inactive)
REMARK    1  A    between atoms: C_1  and  N_2
REMARK    2  A    between atoms: C_1  and  C_8
REMARK    3  A    between atoms: C_1  and  C_9
REMARK    4  A    between atoms: C_9  and  C_10
REMARK    5  A    between atoms: C_10  and  S_11
REMARK    6  A    between atoms: S_11  and  C_15
REMARK                            x       y       z     vdW  Elec       q    Type
REMARK                         _______ _______ _______ _____ _____    ______ ____
ROOT
ATOM      1  C   UNK     1      34.048 -15.749 -24.182  0.00  0.00    +0.041 C 
ENDROOT
BRANCH   1   2
ATOM      2  N   UNK     1      35.329 -16.066 -23.475  0.00  0.00    +0.389 N 
ATOM      3  H   UNK     1      35.895 -16.683 -24.057  0.00  0.00    -0.088 HD
ATOM      4  H   UNK     1      35.122 -16.529 -22.590  0.00  0.00    -0.088 HD
ATOM      5  H   UNK     1      35.840 -15.202 -23.296  0.00  0.00    -0.088 HD
ENDBRANCH   1   2
BRANCH   1   8
ATOM      6  O   UNK     1      33.542 -15.577 -26.500  0.00  0.00    -0.248 OA
ATOM      7  O   UNK     1      34.265 -17.578 -25.675  0.00  0.00    -0.248 OA
ATOM      8  C   UNK     1      33.931 -16.361 -25.588  0.00  0.00    +0.345 C 
ENDBRANCH   1   8
BRANCH   1   9
ATOM      9  C   UNK     1      33.842 -14.228 -24.106  0.00  0.00    +0.001 C 
BRANCH   9  10
ATOM     10  C   UNK     1      33.983 -13.651 -22.695  0.00  0.00    +0.064 C 
BRANCH  10  11
ATOM     11  S   UNK     1      32.452 -13.900 -21.749  0.00  0.00    -0.042 S 
BRANCH  11  15
ATOM     12  F   UNK     1      32.971 -16.363 -21.029  0.00  0.00    -0.160 F 
ATOM     13  F   UNK     1      34.364 -14.872 -20.248  0.00  0.00    -0.160 F 
ATOM     14  F   UNK     1      32.356 -15.037 -19.410  0.00  0.00    -0.160 F 
ATOM     15  C   UNK     1      33.066 -15.094 -20.563  0.00  0.00    +0.444 C 
ENDBRANCH  11  15
ENDBRANCH  10  11
ENDBRANCH   9  10
ENDBRANCH   1   9
TORSDOF 6
ENDMDL
MODEL 9
REMARK VINA RESULT:      -5.4      8.766      9.550
REMARK  Name = 36690559
REMARK  6 active torsions:
REMARK  status: ('A' for Active; 'I' for Inactive)
REMARK    1  A    between atoms: C_1  and  N_2
REMARK    2  A    between atoms: C_1  and  C_8
REMARK    3  A    between atoms: C_1  and  C_9
REMARK    4  A    between atoms: C_9  and  C_10
REMARK    5  A    between atoms: C_10  and  S_11
REMARK    6  A    between atoms: S_11  and  C_15
REMARK                            x       y       z     vdW  Elec       q    Type
REMARK                         _______ _______ _______ _____ _____    ______ ____
ROOT
ATOM      1  C   UNK     1      33.865 -21.533 -19.913  0.00  0.00    +0.041 C 
ENDROOT
BRANCH   1   2
ATOM      2  N   UNK     1      32.625 -20.840 -19.440  0.00  0.00    +0.389 N 
ATOM      3  H   UNK     1      31.829 -21.472 -19.528  0.00  0.00    -0.088 HD
ATOM      4  H   UNK     1      32.462 -20.008 -20.008  0.00  0.00    -0.088 HD
ATOM      5  H   UNK     1      32.739 -20.569 -18.464  0.00  0.00    -0.088 HD
ENDBRANCH   1   2
BRANCH   1   8
ATOM      6  O   UNK     1      35.338 -22.295 -18.208  0.00  0.00    -0.248 OA
ATOM      7  O   UNK     1      33.770 -23.732 -19.034  0.00  0.00    -0.248 OA
ATOM      8  C   UNK     1      34.381 -22.628 -18.965  0.00  0.00    +0.345 C 
ENDBRANCH   1   8
BRANCH   1   9
ATOM      9  C   UNK     1      34.886 -20.447 -20.286  0.00  0.00    +0.001 C 
BRANCH   9  10
ATOM     10  C   UNK     1      34.293 -19.279 -21.077  0.00  0.00    +0.064 C 
BRANCH  10  11
ATOM     11  S   UNK     1      35.587 -18.079 -21.509  0.00  0.00    -0.042 S 
BRANCH  11  15
ATOM     12  F   UNK     1      35.003 -15.956 -20.092  0.00  0.00    -0.160 F 
ATOM     13  F   UNK     1      34.827 -15.686 -22.252  0.00  0.00    -0.160 F 
ATOM     14  F   UNK     1      33.324 -16.839 -21.169  0.00  0.00    -0.160 F 
ATOM     15  C   UNK     1      34.651 -16.574 -21.245  0.00  0.00    +0.444 C 
ENDBRANCH  11  15
ENDBRANCH  10  11
ENDBRANCH   9  10
ENDBRANCH   1   9
TORSDOF 6
ENDMDL
