MODEL 1
REMARK VINA RESULT:     -11.9      0.000      0.000
REMARK  Name = 46937134
REMARK  9 active torsions:
REMARK  status: ('A' for Active; 'I' for Inactive)
REMARK    1  A    between atoms: N_2  and  C_15
REMARK    2  A    between atoms: N_6  and  C_29
REMARK    3  A    between atoms: C_16  and  O_19
REMARK    4  A    between atoms: C_18  and  C_21
REMARK    5  A    between atoms: C_21  and  O_22
REMARK    6  A    between atoms: O_22  and  P_23
REMARK    7  A    between atoms: P_23  and  O_25
REMARK    8  A    between atoms: P_23  and  O_27
REMARK    9  A    between atoms: C_29  and  C_30
REMARK                            x       y       z     vdW  Elec       q    Type
REMARK                         _______ _______ _______ _____ _____    ______ ____
ROOT
ATOM      1  O   UNL     1      30.667 -23.648 -16.399  0.00  0.00    -0.208 OA
ATOM      2  N   UNL     1      34.195 -23.809 -13.579  0.00  0.00    -0.209 NA
ATOM      3  N   UNL     1      34.665 -23.176 -15.880  0.00  0.00    -0.279 N 
ATOM      4  N   UNL     1      31.979 -24.089 -13.796  0.00  0.00    -0.241 NA
ATOM      5  N   UNL     1      32.733 -23.119 -17.305  0.00  0.00    -0.301 NA
ATOM      6  N   UNL     1      34.872 -22.605 -18.086  0.00  0.00    -0.292 N 
ATOM      7  C   UNL     1      33.876 -23.542 -14.866  0.00  0.00    +0.191 C 
ATOM      8  C   UNL     1      33.007 -24.138 -12.966  0.00  0.00    +0.205 C 
ATOM      9  C   UNL     1      32.528 -23.714 -14.990  0.00  0.00    +0.183 C 
ATOM     10  C   UNL     1      34.030 -22.973 -17.103  0.00  0.00    +0.248 C 
ATOM     11  C   UNL     1      31.875 -23.501 -16.266  0.00  0.00    +0.224 C 
ATOM     12  H   UNL     1      35.637 -23.057 -15.769  0.00  0.00    +0.152 HD
ATOM     13  H   UNL     1      35.830 -22.514 -17.875  0.00  0.00    +0.151 HD
ENDROOT
BRANCH   2  15
ATOM     14  O   UNL     1      36.618 -23.724 -13.899  0.00  0.00    -0.338 OA
ATOM     15  C   UNL     1      35.555 -23.765 -12.929  0.00  0.00    +0.182 C 
ATOM     16  C   UNL     1      37.342 -25.031 -12.049  0.00  0.00    +0.144 C 
ATOM     17  C   UNL     1      35.832 -24.973 -12.039  0.00  0.00    +0.079 C 
ATOM     18  C   UNL     1      37.693 -24.580 -13.461  0.00  0.00    +0.174 C 
BRANCH  16  19
ATOM     19  O   UNL     1      37.837 -24.082 -11.107  0.00  0.00    -0.382 OA
ATOM     20  H   UNL     1      37.091 -23.619 -10.693  0.00  0.00    +0.210 HD
ENDBRANCH  16  19
BRANCH  18  21
ATOM     21  C   UNL     1      37.797 -25.741 -14.441  0.00  0.00    +0.186 C 
BRANCH  21  22
ATOM     22  O   UNL     1      38.949 -26.502 -14.120  0.00  0.00    -0.271 OA
BRANCH  22  23
ATOM     23  P   UNL     1      40.402 -25.911 -14.521  0.00  0.00    +0.473 P 
ATOM     24  O   UNL     1      40.746 -24.594 -13.889  0.00  0.00    -0.227 OA
BRANCH  23  25
ATOM     25  O   UNL     1      41.402 -27.127 -14.152  0.00  0.00    -0.303 OA
ATOM     26  H   UNL     1      42.291 -26.775 -13.986  0.00  0.00    +0.222 HD
ENDBRANCH  23  25
BRANCH  23  27
ATOM     27  O   UNL     1      40.386 -25.919 -16.138  0.00  0.00    -0.303 OA
ATOM     28  H   UNL     1      41.217 -25.547 -16.472  0.00  0.00    +0.222 HD
ENDBRANCH  23  27
ENDBRANCH  22  23
ENDBRANCH  21  22
ENDBRANCH  18  21
ENDBRANCH   2  15
BRANCH   6  29
ATOM     29  C   UNL     1      34.436 -22.341 -19.438  0.00  0.00    +0.117 C 
BRANCH  29  30
ATOM     30  C   UNL     1      35.125 -21.131 -19.991  0.00  0.00    -0.003 C 
ATOM     31  C   UNL     1      34.412 -20.004 -20.430  0.00  0.00    -0.002 C 
ATOM     32  C   UNL     1      35.122 -18.892 -20.943  0.00  0.00    -0.000 C 
ATOM     33  C   UNL     1      36.518 -21.162 -20.056  0.00  0.00    -0.003 C 
ATOM     34  C   UNL     1      33.010 -19.955 -20.372  0.00  0.00    -0.000 C 
ATOM     35  C   UNL     1      36.524 -18.941 -21.003  0.00  0.00    -0.000 C 
ATOM     36  C   UNL     1      37.216 -20.069 -20.561  0.00  0.00    -0.000 C 
ATOM     37  C   UNL     1      34.409 -17.765 -21.383  0.00  0.00    -0.000 C 
ATOM     38  C   UNL     1      32.317 -18.827 -20.813  0.00  0.00    -0.000 C 
ATOM     39  C   UNL     1      33.016 -17.734 -21.317  0.00  0.00    -0.000 C 
ENDBRANCH  29  30
ENDBRANCH   6  29
TORSDOF 9
ENDMDL
MODEL 2
REMARK VINA RESULT:     -11.9      2.896      6.200
REMARK  Name = 46937134
REMARK  9 active torsions:
REMARK  status: ('A' for Active; 'I' for Inactive)
REMARK    1  A    between atoms: N_2  and  C_15
REMARK    2  A    between atoms: N_6  and  C_29
REMARK    3  A    between atoms: C_16  and  O_19
REMARK    4  A    between atoms: C_18  and  C_21
REMARK    5  A    between atoms: C_21  and  O_22
REMARK    6  A    between atoms: O_22  and  P_23
REMARK    7  A    between atoms: P_23  and  O_25
REMARK    8  A    between atoms: P_23  and  O_27
REMARK    9  A    between atoms: C_29  and  C_30
REMARK                            x       y       z     vdW  Elec       q    Type
REMARK                         _______ _______ _______ _____ _____    ______ ____
ROOT
ATOM      1  O   UNL     1      38.402 -23.174 -15.289  0.00  0.00    -0.208 OA
ATOM      2  N   UNL     1      34.337 -24.279 -13.652  0.00  0.00    -0.209 NA
ATOM      3  N   UNL     1      34.393 -23.355 -15.901  0.00  0.00    -0.279 N 
ATOM      4  N   UNL     1      36.543 -24.207 -13.247  0.00  0.00    -0.241 NA
ATOM      5  N   UNL     1      36.592 -22.796 -16.686  0.00  0.00    -0.301 NA
ATOM      6  N   UNL     1      34.683 -22.470 -17.991  0.00  0.00    -0.292 N 
ATOM      7  C   UNL     1      34.935 -23.766 -14.751  0.00  0.00    +0.191 C 
ATOM      8  C   UNL     1      35.357 -24.532 -12.762  0.00  0.00    +0.205 C 
ATOM      9  C   UNL     1      36.275 -23.726 -14.498  0.00  0.00    +0.183 C 
ATOM     10  C   UNL     1      35.284 -22.869 -16.854  0.00  0.00    +0.248 C 
ATOM     11  C   UNL     1      37.196 -23.219 -15.495  0.00  0.00    +0.224 C 
ATOM     12  H   UNL     1      33.422 -23.392 -16.064  0.00  0.00    +0.152 HD
ATOM     13  H   UNL     1      33.704 -22.547 -18.057  0.00  0.00    +0.151 HD
ENDROOT
BRANCH   2  15
ATOM     14  O   UNL     1      32.231 -25.111 -14.576  0.00  0.00    -0.338 OA
ATOM     15  C   UNL     1      32.868 -24.529 -13.422  0.00  0.00    +0.182 C 
ATOM     16  C   UNL     1      30.690 -23.626 -13.538  0.00  0.00    +0.144 C 
ATOM     17  C   UNL     1      32.088 -23.259 -13.096  0.00  0.00    +0.079 C 
ATOM     18  C   UNL     1      30.936 -24.504 -14.759  0.00  0.00    +0.174 C 
BRANCH  16  19
ATOM     19  O   UNL     1      30.079 -24.400 -12.508  0.00  0.00    -0.382 OA
ATOM     20  H   UNL     1      30.717 -24.544 -11.790  0.00  0.00    +0.210 HD
ENDBRANCH  16  19
BRANCH  18  21
ATOM     21  C   UNL     1      30.970 -23.709 -16.057  0.00  0.00    +0.186 C 
BRANCH  21  22
ATOM     22  O   UNL     1      29.936 -22.740 -16.022  0.00  0.00    -0.271 OA
BRANCH  22  23
ATOM     23  P   UNL     1      28.458 -23.168 -16.523  0.00  0.00    +0.473 P 
ATOM     24  O   UNL     1      28.390 -24.479 -17.250  0.00  0.00    -0.227 OA
BRANCH  23  25
ATOM     25  O   UNL     1      27.581 -23.094 -15.166  0.00  0.00    -0.303 OA
ATOM     26  H   UNL     1      27.711 -22.230 -14.744  0.00  0.00    +0.222 HD
ENDBRANCH  23  25
BRANCH  23  27
ATOM     27  O   UNL     1      27.951 -21.883 -17.364  0.00  0.00    -0.303 OA
ATOM     28  H   UNL     1      28.686 -21.531 -17.890  0.00  0.00    +0.222 HD
ENDBRANCH  23  27
ENDBRANCH  22  23
ENDBRANCH  21  22
ENDBRANCH  18  21
ENDBRANCH   2  15
BRANCH   6  29
ATOM     29  C   UNL     1      35.410 -21.931 -19.118  0.00  0.00    +0.117 C 
BRANCH  29  30
ATOM     30  C   UNL     1      34.580 -20.925 -19.853  0.00  0.00    -0.003 C 
ATOM     31  C   UNL     1      35.155 -19.946 -20.679  0.00  0.00    -0.002 C 
ATOM     32  C   UNL     1      34.315 -19.023 -21.347  0.00  0.00    -0.000 C 
ATOM     33  C   UNL     1      33.197 -20.995 -19.690  0.00  0.00    -0.003 C 
ATOM     34  C   UNL     1      36.546 -19.861 -20.856  0.00  0.00    -0.000 C 
ATOM     35  C   UNL     1      32.925 -19.107 -21.169  0.00  0.00    -0.000 C 
ATOM     36  C   UNL     1      32.371 -20.088 -20.346  0.00  0.00    -0.000 C 
ATOM     37  C   UNL     1      34.890 -18.042 -22.172  0.00  0.00    -0.000 C 
ATOM     38  C   UNL     1      37.100 -18.880 -21.679  0.00  0.00    -0.000 C 
ATOM     39  C   UNL     1      36.274 -17.974 -22.336  0.00  0.00    -0.000 C 
ENDBRANCH  29  30
ENDBRANCH   6  29
TORSDOF 9
ENDMDL
MODEL 3
REMARK VINA RESULT:     -11.4      1.549      2.623
REMARK  Name = 46937134
REMARK  9 active torsions:
REMARK  status: ('A' for Active; 'I' for Inactive)
REMARK    1  A    between atoms: N_2  and  C_15
REMARK    2  A    between atoms: N_6  and  C_29
REMARK    3  A    between atoms: C_16  and  O_19
REMARK    4  A    between atoms: C_18  and  C_21
REMARK    5  A    between atoms: C_21  and  O_22
REMARK    6  A    between atoms: O_22  and  P_23
REMARK    7  A    between atoms: P_23  and  O_25
REMARK    8  A    between atoms: P_23  and  O_27
REMARK    9  A    between atoms: C_29  and  C_30
REMARK                            x       y       z     vdW  Elec       q    Type
REMARK                         _______ _______ _______ _____ _____    ______ ____
ROOT
ATOM      1  O   UNL     1      30.893 -24.304 -15.574  0.00  0.00    -0.208 OA
ATOM      2  N   UNL     1      34.799 -23.567 -13.424  0.00  0.00    -0.209 NA
ATOM      3  N   UNL     1      34.765 -23.109 -15.812  0.00  0.00    -0.279 N 
ATOM      4  N   UNL     1      32.668 -24.239 -13.221  0.00  0.00    -0.241 NA
ATOM      5  N   UNL     1      32.652 -23.531 -16.870  0.00  0.00    -0.301 NA
ATOM      6  N   UNL     1      34.504 -22.748 -18.057  0.00  0.00    -0.292 N 
ATOM      7  C   UNL     1      34.232 -23.495 -14.650  0.00  0.00    +0.191 C 
ATOM      8  C   UNL     1      33.807 -24.025 -12.586  0.00  0.00    +0.205 C 
ATOM      9  C   UNL     1      32.938 -23.904 -14.518  0.00  0.00    +0.183 C 
ATOM     10  C   UNL     1      33.914 -23.147 -16.914  0.00  0.00    +0.248 C 
ATOM     11  C   UNL     1      32.059 -23.941 -15.670  0.00  0.00    +0.224 C 
ATOM     12  H   UNL     1      35.703 -22.817 -15.886  0.00  0.00    +0.152 HD
ATOM     13  H   UNL     1      35.449 -22.474 -18.027  0.00  0.00    +0.151 HD
ENDROOT
BRANCH   2  15
ATOM     14  O   UNL     1      37.094 -23.169 -14.170  0.00  0.00    -0.338 OA
ATOM     15  C   UNL     1      36.214 -23.225 -13.031  0.00  0.00    +0.182 C 
ATOM     16  C   UNL     1      38.306 -24.066 -12.331  0.00  0.00    +0.144 C 
ATOM     17  C   UNL     1      36.828 -24.234 -12.065  0.00  0.00    +0.079 C 
ATOM     18  C   UNL     1      38.354 -23.780 -13.827  0.00  0.00    +0.174 C 
BRANCH  16  19
ATOM     19  O   UNL     1      38.768 -22.926 -11.611  0.00  0.00    -0.382 OA
ATOM     20  H   UNL     1      39.575 -22.585 -12.030  0.00  0.00    +0.210 HD
ENDBRANCH  16  19
BRANCH  18  21
ATOM     21  C   UNL     1      38.505 -25.044 -14.663  0.00  0.00    +0.186 C 
BRANCH  21  22
ATOM     22  O   UNL     1      37.315 -25.240 -15.408  0.00  0.00    -0.271 OA
BRANCH  22  23
ATOM     23  P   UNL     1      36.572 -26.675 -15.313  0.00  0.00    +0.473 P 
ATOM     24  O   UNL     1      36.815 -27.592 -16.475  0.00  0.00    -0.227 OA
BRANCH  23  25
ATOM     25  O   UNL     1      37.064 -27.243 -13.881  0.00  0.00    -0.303 OA
ATOM     26  H   UNL     1      37.515 -28.093 -14.008  0.00  0.00    +0.222 HD
ENDBRANCH  23  25
BRANCH  23  27
ATOM     27  O   UNL     1      35.024 -26.288 -15.048  0.00  0.00    -0.303 OA
ATOM     28  H   UNL     1      34.657 -26.872 -14.366  0.00  0.00    +0.222 HD
ENDBRANCH  23  27
ENDBRANCH  22  23
ENDBRANCH  21  22
ENDBRANCH  18  21
ENDBRANCH   2  15
BRANCH   6  29
ATOM     29  C   UNL     1      33.813 -22.705 -19.325  0.00  0.00    +0.117 C 
BRANCH  29  30
ATOM     30  C   UNL     1      33.832 -21.320 -19.893  0.00  0.00    -0.003 C 
ATOM     31  C   UNL     1      35.031 -20.664 -20.216  0.00  0.00    -0.002 C 
ATOM     32  C   UNL     1      34.982 -19.353 -20.750  0.00  0.00    -0.000 C 
ATOM     33  C   UNL     1      32.602 -20.694 -20.096  0.00  0.00    -0.003 C 
ATOM     34  C   UNL     1      36.278 -21.278 -20.020  0.00  0.00    -0.000 C 
ATOM     35  C   UNL     1      33.734 -18.739 -20.945  0.00  0.00    -0.000 C 
ATOM     36  C   UNL     1      32.553 -19.406 -20.620  0.00  0.00    -0.000 C 
ATOM     37  C   UNL     1      36.181 -18.696 -21.071  0.00  0.00    -0.000 C 
ATOM     38  C   UNL     1      37.460 -20.611 -20.345  0.00  0.00    -0.000 C 
ATOM     39  C   UNL     1      37.410 -19.323 -20.871  0.00  0.00    -0.000 C 
ENDBRANCH  29  30
ENDBRANCH   6  29
TORSDOF 9
ENDMDL
MODEL 4
REMARK VINA RESULT:     -11.3      2.933      5.025
REMARK  Name = 46937134
REMARK  9 active torsions:
REMARK  status: ('A' for Active; 'I' for Inactive)
REMARK    1  A    between atoms: N_2  and  C_15
REMARK    2  A    between atoms: N_6  and  C_29
REMARK    3  A    between atoms: C_16  and  O_19
REMARK    4  A    between atoms: C_18  and  C_21
REMARK    5  A    between atoms: C_21  and  O_22
REMARK    6  A    between atoms: O_22  and  P_23
REMARK    7  A    between atoms: P_23  and  O_25
REMARK    8  A    between atoms: P_23  and  O_27
REMARK    9  A    between atoms: C_29  and  C_30
REMARK                            x       y       z     vdW  Elec       q    Type
REMARK                         _______ _______ _______ _____ _____    ______ ____
ROOT
ATOM      1  O   UNL     1      31.898 -20.279 -21.009  0.00  0.00    -0.208 OA
ATOM      2  N   UNL     1      34.805 -22.288 -18.192  0.00  0.00    -0.209 NA
ATOM      3  N   UNL     1      35.749 -20.741 -19.813  0.00  0.00    -0.279 N 
ATOM      4  N   UNL     1      32.655 -22.080 -18.802  0.00  0.00    -0.241 NA
ATOM      5  N   UNL     1      34.133 -19.723 -21.268  0.00  0.00    -0.301 NA
ATOM      6  N   UNL     1      36.414 -19.251 -21.418  0.00  0.00    -0.292 N 
ATOM      7  C   UNL     1      34.757 -21.406 -19.216  0.00  0.00    +0.191 C 
ATOM      8  C   UNL     1      33.500 -22.671 -17.975  0.00  0.00    +0.205 C 
ATOM      9  C   UNL     1      33.448 -21.285 -19.581  0.00  0.00    +0.183 C 
ATOM     10  C   UNL     1      35.375 -19.895 -20.855  0.00  0.00    +0.248 C 
ATOM     11  C   UNL     1      33.067 -20.403 -20.666  0.00  0.00    +0.224 C 
ATOM     12  H   UNL     1      36.689 -20.842 -19.534  0.00  0.00    +0.152 HD
ATOM     13  H   UNL     1      37.318 -19.421 -21.067  0.00  0.00    +0.151 HD
ENDROOT
BRANCH   2  15
ATOM     14  O   UNL     1      35.680 -23.774 -16.458  0.00  0.00    -0.338 OA
ATOM     15  C   UNL     1      36.016 -22.767 -17.431  0.00  0.00    +0.182 C 
ATOM     16  C   UNL     1      37.416 -22.415 -15.564  0.00  0.00    +0.144 C 
ATOM     17  C   UNL     1      36.723 -21.651 -16.668  0.00  0.00    +0.079 C 
ATOM     18  C   UNL     1      36.428 -23.532 -15.249  0.00  0.00    +0.174 C 
BRANCH  16  19
ATOM     19  O   UNL     1      38.619 -22.974 -16.086  0.00  0.00    -0.382 OA
ATOM     20  H   UNL     1      38.662 -22.812 -17.042  0.00  0.00    +0.210 HD
ENDBRANCH  16  19
BRANCH  18  21
ATOM     21  C   UNL     1      35.440 -23.152 -14.154  0.00  0.00    +0.186 C 
BRANCH  21  22
ATOM     22  O   UNL     1      36.081 -23.290 -12.897  0.00  0.00    -0.271 OA
BRANCH  22  23
ATOM     23  P   UNL     1      35.637 -24.512 -11.933  0.00  0.00    +0.473 P 
ATOM     24  O   UNL     1      35.868 -24.280 -10.469  0.00  0.00    -0.227 OA
BRANCH  23  25
ATOM     25  O   UNL     1      34.095 -24.760 -12.350  0.00  0.00    -0.303 OA
ATOM     26  H   UNL     1      33.998 -25.656 -12.711  0.00  0.00    +0.222 HD
ENDBRANCH  23  25
BRANCH  23  27
ATOM     27  O   UNL     1      36.403 -25.792 -12.560  0.00  0.00    -0.303 OA
ATOM     28  H   UNL     1      37.208 -25.496 -13.013  0.00  0.00    +0.222 HD
ENDBRANCH  23  27
ENDBRANCH  22  23
ENDBRANCH  21  22
ENDBRANCH  18  21
ENDBRANCH   2  15
BRANCH   6  29
ATOM     29  C   UNL     1      36.263 -18.323 -22.515  0.00  0.00    +0.117 C 
BRANCH  29  30
ATOM     30  C   UNL     1      35.403 -17.164 -22.116  0.00  0.00    -0.003 C 
ATOM     31  C   UNL     1      34.696 -16.401 -23.060  0.00  0.00    -0.002 C 
ATOM     32  C   UNL     1      33.900 -15.317 -22.618  0.00  0.00    -0.000 C 
ATOM     33  C   UNL     1      35.324 -16.864 -20.756  0.00  0.00    -0.003 C 
ATOM     34  C   UNL     1      34.764 -16.688 -24.433  0.00  0.00    -0.000 C 
ATOM     35  C   UNL     1      33.834 -15.029 -21.245  0.00  0.00    -0.000 C 
ATOM     36  C   UNL     1      34.541 -15.799 -20.321  0.00  0.00    -0.000 C 
ATOM     37  C   UNL     1      33.194 -14.553 -23.562  0.00  0.00    -0.000 C 
ATOM     38  C   UNL     1      34.056 -15.919 -25.357  0.00  0.00    -0.000 C 
ATOM     39  C   UNL     1      33.273 -14.854 -24.922  0.00  0.00    -0.000 C 
ENDBRANCH  29  30
ENDBRANCH   6  29
TORSDOF 9
ENDMDL
MODEL 5
REMARK VINA RESULT:     -10.6     11.446     14.998
REMARK  Name = 46937134
REMARK  9 active torsions:
REMARK  status: ('A' for Active; 'I' for Inactive)
REMARK    1  A    between atoms: N_2  and  C_15
REMARK    2  A    between atoms: N_6  and  C_29
REMARK    3  A    between atoms: C_16  and  O_19
REMARK    4  A    between atoms: C_18  and  C_21
REMARK    5  A    between atoms: C_21  and  O_22
REMARK    6  A    between atoms: O_22  and  P_23
REMARK    7  A    between atoms: P_23  and  O_25
REMARK    8  A    between atoms: P_23  and  O_27
REMARK    9  A    between atoms: C_29  and  C_30
REMARK                            x       y       z     vdW  Elec       q    Type
REMARK                         _______ _______ _______ _____ _____    ______ ____
ROOT
ATOM      1  O   UNL     1      31.612  -8.679 -18.990  0.00  0.00    -0.208 OA
ATOM      2  N   UNL     1      32.061 -12.254 -21.717  0.00  0.00    -0.209 NA
ATOM      3  N   UNL     1      32.180 -10.062 -22.764  0.00  0.00    -0.279 N 
ATOM      4  N   UNL     1      31.744 -11.558 -19.608  0.00  0.00    -0.241 NA
ATOM      5  N   UNL     1      31.930  -8.224 -21.240  0.00  0.00    -0.301 NA
ATOM      6  N   UNL     1      32.259  -7.907 -23.529  0.00  0.00    -0.292 N 
ATOM      7  C   UNL     1      32.043 -10.902 -21.734  0.00  0.00    +0.191 C 
ATOM      8  C   UNL     1      31.874 -12.608 -20.400  0.00  0.00    +0.205 C 
ATOM      9  C   UNL     1      31.851 -10.487 -20.449  0.00  0.00    +0.183 C 
ATOM     10  C   UNL     1      32.114  -8.705 -22.455  0.00  0.00    +0.248 C 
ATOM     11  C   UNL     1      31.783  -9.073 -20.136  0.00  0.00    +0.224 C 
ATOM     12  H   UNL     1      32.319 -10.383 -23.685  0.00  0.00    +0.152 HD
ATOM     13  H   UNL     1      32.392  -8.325 -24.411  0.00  0.00    +0.151 HD
ENDROOT
BRANCH   2  15
ATOM     14  O   UNL     1      32.347 -14.569 -22.452  0.00  0.00    -0.338 OA
ATOM     15  C   UNL     1      32.243 -13.198 -22.880  0.00  0.00    +0.182 C 
ATOM     16  C   UNL     1      33.790 -14.253 -24.316  0.00  0.00    +0.144 C 
ATOM     17  C   UNL     1      33.498 -12.906 -23.696  0.00  0.00    +0.079 C 
ATOM     18  C   UNL     1      33.368 -15.230 -23.226  0.00  0.00    +0.174 C 
BRANCH  16  19
ATOM     19  O   UNL     1      32.950 -14.417 -25.457  0.00  0.00    -0.382 OA
ATOM     20  H   UNL     1      32.944 -13.596 -25.974  0.00  0.00    +0.210 HD
ENDBRANCH  16  19
BRANCH  18  21
ATOM     21  C   UNL     1      34.510 -15.590 -22.285  0.00  0.00    +0.186 C 
BRANCH  21  22
ATOM     22  O   UNL     1      34.200 -16.816 -21.644  0.00  0.00    -0.271 OA
BRANCH  22  23
ATOM     23  P   UNL     1      35.194 -18.075 -21.861  0.00  0.00    +0.473 P 
ATOM     24  O   UNL     1      36.005 -18.457 -20.658  0.00  0.00    -0.227 OA
BRANCH  23  25
ATOM     25  O   UNL     1      34.202 -19.228 -22.410  0.00  0.00    -0.303 OA
ATOM     26  H   UNL     1      33.925 -19.794 -21.672  0.00  0.00    +0.222 HD
ENDBRANCH  23  25
BRANCH  23  27
ATOM     27  O   UNL     1      36.049 -17.666 -23.172  0.00  0.00    -0.303 OA
ATOM     28  H   UNL     1      35.754 -16.800 -23.493  0.00  0.00    +0.222 HD
ENDBRANCH  23  27
ENDBRANCH  22  23
ENDBRANCH  21  22
ENDBRANCH  18  21
ENDBRANCH   2  15
BRANCH   6  29
ATOM     29  C   UNL     1      32.225  -6.465 -23.448  0.00  0.00    +0.117 C 
BRANCH  29  30
ATOM     30  C   UNL     1      32.882  -5.850 -24.645  0.00  0.00    -0.003 C 
ATOM     31  C   UNL     1      32.351  -4.720 -25.287  0.00  0.00    -0.002 C 
ATOM     32  C   UNL     1      33.019  -4.186 -26.416  0.00  0.00    -0.000 C 
ATOM     33  C   UNL     1      34.056  -6.445 -25.107  0.00  0.00    -0.003 C 
ATOM     34  C   UNL     1      31.170  -4.108 -24.837  0.00  0.00    -0.000 C 
ATOM     35  C   UNL     1      34.199  -4.799 -26.867  0.00  0.00    -0.000 C 
ATOM     36  C   UNL     1      34.714  -5.921 -26.215  0.00  0.00    -0.000 C 
ATOM     37  C   UNL     1      32.488  -3.057 -27.059  0.00  0.00    -0.000 C 
ATOM     38  C   UNL     1      30.656  -2.986 -25.488  0.00  0.00    -0.000 C 
ATOM     39  C   UNL     1      31.314  -2.462 -26.596  0.00  0.00    -0.000 C 
ENDBRANCH  29  30
ENDBRANCH   6  29
TORSDOF 9
ENDMDL
MODEL 6
REMARK VINA RESULT:     -10.5      9.506     13.069
REMARK  Name = 46937134
REMARK  9 active torsions:
REMARK  status: ('A' for Active; 'I' for Inactive)
REMARK    1  A    between atoms: N_2  and  C_15
REMARK    2  A    between atoms: N_6  and  C_29
REMARK    3  A    between atoms: C_16  and  O_19
REMARK    4  A    between atoms: C_18  and  C_21
REMARK    5  A    between atoms: C_21  and  O_22
REMARK    6  A    between atoms: O_22  and  P_23
REMARK    7  A    between atoms: P_23  and  O_25
REMARK    8  A    between atoms: P_23  and  O_27
REMARK    9  A    between atoms: C_29  and  C_30
REMARK                            x       y       z     vdW  Elec       q    Type
REMARK                         _______ _______ _______ _____ _____    ______ ____
ROOT
ATOM      1  O   UNL     1      32.796 -12.695 -27.659  0.00  0.00    -0.208 OA
ATOM      2  N   UNL     1      34.212 -15.069 -24.083  0.00  0.00    -0.209 NA
ATOM      3  N   UNL     1      34.154 -12.651 -23.834  0.00  0.00    -0.279 N 
ATOM      4  N   UNL     1      33.466 -15.166 -26.198  0.00  0.00    -0.241 NA
ATOM      5  N   UNL     1      33.392 -11.473 -25.782  0.00  0.00    -0.301 NA
ATOM      6  N   UNL     1      34.020 -10.366 -23.824  0.00  0.00    -0.292 N 
ATOM      7  C   UNL     1      33.989 -13.800 -24.494  0.00  0.00    +0.191 C 
ATOM      8  C   UNL     1      33.879 -15.866 -25.155  0.00  0.00    +0.205 C 
ATOM      9  C   UNL     1      33.535 -13.867 -25.779  0.00  0.00    +0.183 C 
ATOM     10  C   UNL     1      33.834 -11.492 -24.538  0.00  0.00    +0.248 C 
ATOM     11  C   UNL     1      33.205 -12.657 -26.505  0.00  0.00    +0.224 C 
ATOM     12  H   UNL     1      34.483 -12.624 -22.905  0.00  0.00    +0.152 HD
ATOM     13  H   UNL     1      34.354 -10.445 -22.901  0.00  0.00    +0.151 HD
ENDROOT
BRANCH   2  15
ATOM     14  O   UNL     1      35.538 -16.717 -22.857  0.00  0.00    -0.338 OA
ATOM     15  C   UNL     1      34.718 -15.539 -22.743  0.00  0.00    +0.182 C 
ATOM     16  C   UNL     1      34.277 -16.873 -20.846  0.00  0.00    +0.144 C 
ATOM     17  C   UNL     1      33.597 -15.889 -21.769  0.00  0.00    +0.079 C 
ATOM     18  C   UNL     1      35.221 -17.621 -21.779  0.00  0.00    +0.174 C 
BRANCH  16  19
ATOM     19  O   UNL     1      35.036 -16.141 -19.885  0.00  0.00    -0.382 OA
ATOM     20  H   UNL     1      35.237 -15.259 -20.237  0.00  0.00    +0.210 HD
ENDBRANCH  16  19
BRANCH  18  21
ATOM     21  C   UNL     1      34.586 -18.867 -22.383  0.00  0.00    +0.186 C 
BRANCH  21  22
ATOM     22  O   UNL     1      35.352 -19.997 -22.002  0.00  0.00    -0.271 OA
BRANCH  22  23
ATOM     23  P   UNL     1      35.242 -20.526 -20.476  0.00  0.00    +0.473 P 
ATOM     24  O   UNL     1      33.894 -20.350 -19.840  0.00  0.00    -0.227 OA
BRANCH  23  25
ATOM     25  O   UNL     1      35.751 -22.056 -20.586  0.00  0.00    -0.303 OA
ATOM     26  H   UNL     1      36.706 -22.092 -20.415  0.00  0.00    +0.222 HD
ENDBRANCH  23  25
BRANCH  23  27
ATOM     27  O   UNL     1      36.464 -19.780 -19.723  0.00  0.00    -0.303 OA
ATOM     28  H   UNL     1      37.299 -20.003 -20.163  0.00  0.00    +0.222 HD
ENDBRANCH  23  27
ENDBRANCH  22  23
ENDBRANCH  21  22
ENDBRANCH  18  21
ENDBRANCH   2  15
BRANCH   6  29
ATOM     29  C   UNL     1      33.753  -9.048 -24.351  0.00  0.00    +0.117 C 
BRANCH  29  30
ATOM     30  C   UNL     1      33.069  -8.195 -23.328  0.00  0.00    -0.003 C 
ATOM     31  C   UNL     1      32.608  -6.902 -23.623  0.00  0.00    -0.002 C 
ATOM     32  C   UNL     1      31.970  -6.146 -22.611  0.00  0.00    -0.000 C 
ATOM     33  C   UNL     1      32.901  -8.736 -22.053  0.00  0.00    -0.003 C 
ATOM     34  C   UNL     1      32.768  -6.341 -24.901  0.00  0.00    -0.000 C 
ATOM     35  C   UNL     1      31.811  -6.706 -21.333  0.00  0.00    -0.000 C 
ATOM     36  C   UNL     1      32.274  -7.993 -21.058  0.00  0.00    -0.000 C 
ATOM     37  C   UNL     1      31.510  -4.852 -22.906  0.00  0.00    -0.000 C 
ATOM     38  C   UNL     1      32.305  -5.055 -25.177  0.00  0.00    -0.000 C 
ATOM     39  C   UNL     1      31.676  -4.312 -24.182  0.00  0.00    -0.000 C 
ENDBRANCH  29  30
ENDBRANCH   6  29
TORSDOF 9
ENDMDL
MODEL 7
REMARK VINA RESULT:     -10.2     10.796     14.742
REMARK  Name = 46937134
REMARK  9 active torsions:
REMARK  status: ('A' for Active; 'I' for Inactive)
REMARK    1  A    between atoms: N_2  and  C_15
REMARK    2  A    between atoms: N_6  and  C_29
REMARK    3  A    between atoms: C_16  and  O_19
REMARK    4  A    between atoms: C_18  and  C_21
REMARK    5  A    between atoms: C_21  and  O_22
REMARK    6  A    between atoms: O_22  and  P_23
REMARK    7  A    between atoms: P_23  and  O_25
REMARK    8  A    between atoms: P_23  and  O_27
REMARK    9  A    between atoms: C_29  and  C_30
REMARK                            x       y       z     vdW  Elec       q    Type
REMARK                         _______ _______ _______ _____ _____    ______ ____
ROOT
ATOM      1  O   UNL     1      33.290 -12.288 -27.745  0.00  0.00    -0.208 OA
ATOM      2  N   UNL     1      33.576 -14.868 -24.045  0.00  0.00    -0.209 NA
ATOM      3  N   UNL     1      34.070 -12.503 -23.767  0.00  0.00    -0.279 N 
ATOM      4  N   UNL     1      33.132 -14.820 -26.244  0.00  0.00    -0.241 NA
ATOM      5  N   UNL     1      33.895 -11.212 -25.784  0.00  0.00    -0.301 NA
ATOM      6  N   UNL     1      34.492 -10.254 -23.740  0.00  0.00    -0.292 N 
ATOM      7  C   UNL     1      33.726 -13.590 -24.462  0.00  0.00    +0.191 C 
ATOM      8  C   UNL     1      33.214 -15.580 -25.166  0.00  0.00    +0.205 C 
ATOM      9  C   UNL     1      33.454 -13.569 -25.799  0.00  0.00    +0.183 C 
ATOM     10  C   UNL     1      34.142 -11.315 -24.491  0.00  0.00    +0.248 C 
ATOM     11  C   UNL     1      33.531 -12.329 -26.545  0.00  0.00    +0.224 C 
ATOM     12  H   UNL     1      34.262 -12.539 -22.801  0.00  0.00    +0.152 HD
ATOM     13  H   UNL     1      34.664 -10.393 -22.781  0.00  0.00    +0.151 HD
ENDROOT
BRANCH   2  15
ATOM     14  O   UNL     1      32.589 -15.234 -21.838  0.00  0.00    -0.338 OA
ATOM     15  C   UNL     1      33.761 -15.421 -22.655  0.00  0.00    +0.182 C 
ATOM     16  C   UNL     1      34.512 -14.981 -20.461  0.00  0.00    +0.144 C 
ATOM     17  C   UNL     1      34.918 -14.771 -21.901  0.00  0.00    +0.079 C 
ATOM     18  C   UNL     1      32.995 -14.848 -20.509  0.00  0.00    +0.174 C 
BRANCH  16  19
ATOM     19  O   UNL     1      34.863 -16.310 -20.081  0.00  0.00    -0.382 OA
ATOM     20  H   UNL     1      35.159 -16.314 -19.157  0.00  0.00    +0.210 HD
ENDBRANCH  16  19
BRANCH  18  21
ATOM     21  C   UNL     1      32.523 -13.419 -20.271  0.00  0.00    +0.186 C 
BRANCH  21  22
ATOM     22  O   UNL     1      31.902 -12.944 -21.454  0.00  0.00    -0.271 OA
BRANCH  22  23
ATOM     23  P   UNL     1      31.349 -11.423 -21.478  0.00  0.00    +0.473 P 
ATOM     24  O   UNL     1      31.609 -10.674 -22.752  0.00  0.00    -0.227 OA
BRANCH  23  25
ATOM     25  O   UNL     1      29.788 -11.600 -21.097  0.00  0.00    -0.303 OA
ATOM     26  H   UNL     1      29.633 -12.504 -20.779  0.00  0.00    +0.222 HD
ENDBRANCH  23  25
BRANCH  23  27
ATOM     27  O   UNL     1      31.985 -10.763 -20.146  0.00  0.00    -0.303 OA
ATOM     28  H   UNL     1      32.302 -11.465 -19.557  0.00  0.00    +0.222 HD
ENDBRANCH  23  27
ENDBRANCH  22  23
ENDBRANCH  21  22
ENDBRANCH  18  21
ENDBRANCH   2  15
BRANCH   6  29
ATOM     29  C   UNL     1      34.628  -8.920 -24.278  0.00  0.00    +0.117 C 
BRANCH  29  30
ATOM     30  C   UNL     1      33.744  -7.959 -23.546  0.00  0.00    -0.003 C 
ATOM     31  C   UNL     1      33.264  -6.783 -24.145  0.00  0.00    -0.002 C 
ATOM     32  C   UNL     1      32.431  -5.915 -23.399  0.00  0.00    -0.000 C 
ATOM     33  C   UNL     1      33.406  -8.275 -22.230  0.00  0.00    -0.003 C 
ATOM     34  C   UNL     1      33.593  -6.448 -25.468  0.00  0.00    -0.000 C 
ATOM     35  C   UNL     1      32.103  -6.249 -22.075  0.00  0.00    -0.000 C 
ATOM     36  C   UNL     1      32.588  -7.423 -21.496  0.00  0.00    -0.000 C 
ATOM     37  C   UNL     1      31.953  -4.738 -23.998  0.00  0.00    -0.000 C 
ATOM     38  C   UNL     1      33.109  -5.275 -26.048  0.00  0.00    -0.000 C 
ATOM     39  C   UNL     1      32.289  -4.423 -25.314  0.00  0.00    -0.000 C 
ENDBRANCH  29  30
ENDBRANCH   6  29
TORSDOF 9
ENDMDL
MODEL 8
REMARK VINA RESULT:     -10.2     12.584     16.693
REMARK  Name = 46937134
REMARK  9 active torsions:
REMARK  status: ('A' for Active; 'I' for Inactive)
REMARK    1  A    between atoms: N_2  and  C_15
REMARK    2  A    between atoms: N_6  and  C_29
REMARK    3  A    between atoms: C_16  and  O_19
REMARK    4  A    between atoms: C_18  and  C_21
REMARK    5  A    between atoms: C_21  and  O_22
REMARK    6  A    between atoms: O_22  and  P_23
REMARK    7  A    between atoms: P_23  and  O_25
REMARK    8  A    between atoms: P_23  and  O_27
REMARK    9  A    between atoms: C_29  and  C_30
REMARK                            x       y       z     vdW  Elec       q    Type
REMARK                         _______ _______ _______ _____ _____    ______ ____
ROOT
ATOM      1  O   UNL     1      35.690 -10.464 -26.473  0.00  0.00    -0.208 OA
ATOM      2  N   UNL     1      33.395  -8.450 -23.142  0.00  0.00    -0.209 NA
ATOM      3  N   UNL     1      33.247 -10.875 -23.258  0.00  0.00    -0.279 N 
ATOM      4  N   UNL     1      34.745  -8.151 -24.909  0.00  0.00    -0.241 NA
ATOM      5  N   UNL     1      34.495 -11.857 -25.058  0.00  0.00    -0.301 NA
ATOM      6  N   UNL     1      33.251 -13.143 -23.559  0.00  0.00    -0.292 N 
ATOM      7  C   UNL     1      33.663  -9.670 -23.659  0.00  0.00    +0.191 C 
ATOM      8  C   UNL     1      34.076  -7.556 -23.937  0.00  0.00    +0.205 C 
ATOM      9  C   UNL     1      34.484  -9.481 -24.732  0.00  0.00    +0.183 C 
ATOM     10  C   UNL     1      33.701 -11.957 -24.008  0.00  0.00    +0.248 C 
ATOM     11  C   UNL     1      34.953 -10.612 -25.507  0.00  0.00    +0.224 C 
ATOM     12  H   UNL     1      32.654 -10.990 -22.480  0.00  0.00    +0.152 HD
ATOM     13  H   UNL     1      32.660 -13.154 -22.771  0.00  0.00    +0.151 HD
ENDROOT
BRANCH   2  15
ATOM     14  O   UNL     1      31.399  -7.305 -22.313  0.00  0.00    -0.338 OA
ATOM     15  C   UNL     1      32.536  -8.112 -21.949  0.00  0.00    +0.182 C 
ATOM     16  C   UNL     1      32.165  -6.603 -20.173  0.00  0.00    +0.144 C 
ATOM     17  C   UNL     1      33.286  -7.336 -20.872  0.00  0.00    +0.079 C 
ATOM     18  C   UNL     1      31.201  -6.287 -21.311  0.00  0.00    +0.174 C 
BRANCH  16  19
ATOM     19  O   UNL     1      31.543  -7.498 -19.254  0.00  0.00    -0.382 OA
ATOM     20  H   UNL     1      30.599  -7.283 -19.182  0.00  0.00    +0.210 HD
ENDBRANCH  16  19
BRANCH  18  21
ATOM     21  C   UNL     1      31.474  -4.935 -21.955  0.00  0.00    +0.186 C 
BRANCH  21  22
ATOM     22  O   UNL     1      30.766  -4.866 -23.182  0.00  0.00    -0.271 OA
BRANCH  22  23
ATOM     23  P   UNL     1      31.361  -3.935 -24.365  0.00  0.00    +0.473 P 
ATOM     24  O   UNL     1      32.335  -4.618 -25.279  0.00  0.00    -0.227 OA
BRANCH  23  25
ATOM     25  O   UNL     1      30.028  -3.371 -25.086  0.00  0.00    -0.303 OA
ATOM     26  H   UNL     1      29.601  -4.088 -25.581  0.00  0.00    +0.222 HD
ENDBRANCH  23  25
BRANCH  23  27
ATOM     27  O   UNL     1      31.936  -2.642 -23.582  0.00  0.00    -0.303 OA
ATOM     28  H   UNL     1      31.239  -2.266 -23.023  0.00  0.00    +0.222 HD
ENDBRANCH  23  27
ENDBRANCH  22  23
ENDBRANCH  21  22
ENDBRANCH  18  21
ENDBRANCH   2  15
BRANCH   6  29
ATOM     29  C   UNL     1      33.593 -14.401 -24.181  0.00  0.00    +0.117 C 
BRANCH  29  30
ATOM     30  C   UNL     1      34.081 -15.383 -23.161  0.00  0.00    -0.003 C 
ATOM     31  C   UNL     1      34.369 -16.717 -23.489  0.00  0.00    -0.002 C 
ATOM     32  C   UNL     1      34.826 -17.596 -22.478  0.00  0.00    -0.000 C 
ATOM     33  C   UNL     1      34.243 -14.921 -21.855  0.00  0.00    -0.003 C 
ATOM     34  C   UNL     1      34.212 -17.200 -24.798  0.00  0.00    -0.000 C 
ATOM     35  C   UNL     1      34.982 -17.114 -21.169  0.00  0.00    -0.000 C 
ATOM     36  C   UNL     1      34.693 -15.784 -20.860  0.00  0.00    -0.000 C 
ATOM     37  C   UNL     1      35.113 -18.932 -22.806  0.00  0.00    -0.000 C 
ATOM     38  C   UNL     1      34.502 -18.529 -25.107  0.00  0.00    -0.000 C 
ATOM     39  C   UNL     1      34.952 -19.393 -24.113  0.00  0.00    -0.000 C 
ENDBRANCH  29  30
ENDBRANCH   6  29
TORSDOF 9
ENDMDL
MODEL 9
REMARK VINA RESULT:     -10.2      2.049      3.372
REMARK  Name = 46937134
REMARK  9 active torsions:
REMARK  status: ('A' for Active; 'I' for Inactive)
REMARK    1  A    between atoms: N_2  and  C_15
REMARK    2  A    between atoms: N_6  and  C_29
REMARK    3  A    between atoms: C_16  and  O_19
REMARK    4  A    between atoms: C_18  and  C_21
REMARK    5  A    between atoms: C_21  and  O_22
REMARK    6  A    between atoms: O_22  and  P_23
REMARK    7  A    between atoms: P_23  and  O_25
REMARK    8  A    between atoms: P_23  and  O_27
REMARK    9  A    between atoms: C_29  and  C_30
REMARK                            x       y       z     vdW  Elec       q    Type
REMARK                         _______ _______ _______ _____ _____    ______ ____
ROOT
ATOM      1  O   UNL     1      32.603 -22.210 -20.431  0.00  0.00    -0.208 OA
ATOM      2  N   UNL     1      35.179 -22.676 -16.747  0.00  0.00    -0.209 NA
ATOM      3  N   UNL     1      36.067 -21.281 -18.530  0.00  0.00    -0.279 N 
ATOM      4  N   UNL     1      33.244 -23.230 -17.740  0.00  0.00    -0.241 NA
ATOM      5  N   UNL     1      34.633 -21.093 -20.446  0.00  0.00    -0.301 NA
ATOM      6  N   UNL     1      36.702 -20.018 -20.329  0.00  0.00    -0.292 N 
ATOM      7  C   UNL     1      35.156 -22.072 -17.957  0.00  0.00    +0.191 C 
ATOM      8  C   UNL     1      33.993 -23.370 -16.660  0.00  0.00    +0.205 C 
ATOM      9  C   UNL     1      33.978 -22.413 -18.554  0.00  0.00    +0.183 C 
ATOM     10  C   UNL     1      35.749 -20.809 -19.801  0.00  0.00    +0.248 C 
ATOM     11  C   UNL     1      33.655 -21.917 -19.877  0.00  0.00    +0.224 C 
ATOM     12  H   UNL     1      36.912 -21.047 -18.081  0.00  0.00    +0.152 HD
ATOM     13  H   UNL     1      37.514 -19.843 -19.801  0.00  0.00    +0.151 HD
ENDROOT
BRANCH   2  15
ATOM     14  O   UNL     1      37.408 -23.411 -16.059  0.00  0.00    -0.338 OA
ATOM     15  C   UNL     1      36.261 -22.619 -15.698  0.00  0.00    +0.182 C 
ATOM     16  C   UNL     1      37.103 -23.564 -13.706  0.00  0.00    +0.144 C 
ATOM     17  C   UNL     1      35.800 -23.127 -14.335  0.00  0.00    +0.079 C 
ATOM     18  C   UNL     1      37.892 -24.105 -14.892  0.00  0.00    +0.174 C 
BRANCH  16  19
ATOM     19  O   UNL     1      37.759 -22.413 -13.180  0.00  0.00    -0.382 OA
ATOM     20  H   UNL     1      37.419 -21.617 -13.620  0.00  0.00    +0.210 HD
ENDBRANCH  16  19
BRANCH  18  21
ATOM     21  C   UNL     1      37.677 -25.596 -15.110  0.00  0.00    +0.186 C 
BRANCH  21  22
ATOM     22  O   UNL     1      38.719 -26.304 -14.459  0.00  0.00    -0.271 OA
BRANCH  22  23
ATOM     23  P   UNL     1      40.248 -25.838 -14.717  0.00  0.00    +0.473 P 
ATOM     24  O   UNL     1      40.670 -24.608 -13.968  0.00  0.00    -0.227 OA
BRANCH  23  25
ATOM     25  O   UNL     1      41.096 -27.171 -14.374  0.00  0.00    -0.303 OA
ATOM     26  H   UNL     1      40.866 -27.871 -15.005  0.00  0.00    +0.222 HD
ENDBRANCH  23  25
BRANCH  23  27
ATOM     27  O   UNL     1      40.351 -25.736 -16.328  0.00  0.00    -0.303 OA
ATOM     28  H   UNL     1      39.993 -24.883 -16.621  0.00  0.00    +0.222 HD
ENDBRANCH  23  27
ENDBRANCH  22  23
ENDBRANCH  21  22
ENDBRANCH  18  21
ENDBRANCH   2  15
BRANCH   6  29
ATOM     29  C   UNL     1      36.588 -19.415 -21.638  0.00  0.00    +0.117 C 
BRANCH  29  30
ATOM     30  C   UNL     1      35.778 -18.157 -21.573  0.00  0.00    -0.003 C 
ATOM     31  C   UNL     1      35.187 -17.592 -22.715  0.00  0.00    -0.002 C 
ATOM     32  C   UNL     1      34.434 -16.400 -22.588  0.00  0.00    -0.000 C 
ATOM     33  C   UNL     1      35.628 -17.556 -20.323  0.00  0.00    -0.003 C 
ATOM     34  C   UNL     1      35.328 -18.182 -23.981  0.00  0.00    -0.000 C 
ATOM     35  C   UNL     1      34.295 -15.808 -21.322  0.00  0.00    -0.000 C 
ATOM     36  C   UNL     1      34.888 -16.384 -20.198  0.00  0.00    -0.000 C 
ATOM     37  C   UNL     1      33.844 -15.834 -23.730  0.00  0.00    -0.000 C 
ATOM     38  C   UNL     1      34.735 -17.608 -25.105  0.00  0.00    -0.000 C 
ATOM     39  C   UNL     1      33.994 -16.436 -24.979  0.00  0.00    -0.000 C 
ENDBRANCH  29  30
ENDBRANCH   6  29
TORSDOF 9
ENDMDL
