MODEL 1
REMARK VINA RESULT:      -8.0      0.000      0.000
REMARK  Name = 6852193
REMARK  5 active torsions:
REMARK  status: ('A' for Active; 'I' for Inactive)
REMARK    1  A    between atoms: C_6  and  C_13
REMARK    2  A    between atoms: C_8  and  C_16
REMARK    3  A    between atoms: N_15  and  C_18
REMARK    4  A    between atoms: C_18  and  C_19
REMARK    5  A    between atoms: C_19  and  S_20
REMARK                            x       y       z     vdW  Elec       q    Type
REMARK                         _______ _______ _______ _____ _____    ______ ____
ROOT
ATOM      1  S   UNL     1      32.459 -24.027 -14.131  0.00  0.00    -0.064 S 
ATOM      2  N   UNL     1      31.301 -23.036 -16.505  0.00  0.00    -0.243 N 
ATOM      3  N   UNL     1      31.796 -22.634 -17.711  0.00  0.00    -0.165 NA
ATOM      4  C   UNL     1      33.428 -23.299 -16.336  0.00  0.00    +0.047 A 
ATOM      5  C   UNL     1      32.281 -23.439 -15.669  0.00  0.00    +0.109 A 
ATOM      6  C   UNL     1      33.129 -22.804 -17.589  0.00  0.00    +0.174 A 
ATOM      7  C   UNL     1      34.575 -23.663 -15.645  0.00  0.00    +0.015 C 
ATOM      8  C   UNL     1      34.194 -24.098 -14.377  0.00  0.00    +0.084 C 
ATOM      9  C   UNL     1      29.882 -22.994 -16.259  0.00  0.00    +0.154 C 
ENDROOT
BRANCH   6  13
ATOM     10  F   UNL     1      35.308 -22.232 -18.310  0.00  0.00    -0.164 F 
ATOM     11  F   UNL     1      34.109 -23.460 -19.644  0.00  0.00    -0.164 F 
ATOM     12  F   UNL     1      33.620 -21.353 -19.373  0.00  0.00    -0.164 F 
ATOM     13  C   UNL     1      34.024 -22.472 -18.707  0.00  0.00    +0.437 C 
ENDBRANCH   6  13
BRANCH   8  16
ATOM     14  O   UNL     1      34.826 -24.281 -12.102  0.00  0.00    -0.270 OA
ATOM     15  N   UNL     1      36.107 -25.396 -13.648  0.00  0.00    -0.300 N 
ATOM     16  C   UNL     1      35.011 -24.573 -13.307  0.00  0.00    +0.252 C 
ATOM     17  H   UNL     1      36.244 -25.619 -14.596  0.00  0.00    +0.150 HD
BRANCH  15  18
ATOM     18  C   UNL     1      37.040 -25.928 -12.680  0.00  0.00    +0.101 C 
BRANCH  18  19
ATOM     19  C   UNL     1      38.378 -25.202 -12.679  0.00  0.00    +0.075 C 
BRANCH  19  20
ATOM     20  S   UNL     1      39.347 -25.545 -14.180  0.00  0.00    -0.166 S 
ATOM     21  H   UNL     1      38.754 -24.948 -15.249  0.00  0.00    +0.102 HD
ENDBRANCH  19  20
ENDBRANCH  18  19
ENDBRANCH  15  18
ENDBRANCH   8  16
TORSDOF 5
ENDMDL
MODEL 2
REMARK VINA RESULT:      -8.0      2.485      3.161
REMARK  Name = 6852193
REMARK  5 active torsions:
REMARK  status: ('A' for Active; 'I' for Inactive)
REMARK    1  A    between atoms: C_6  and  C_13
REMARK    2  A    between atoms: C_8  and  C_16
REMARK    3  A    between atoms: N_15  and  C_18
REMARK    4  A    between atoms: C_18  and  C_19
REMARK    5  A    between atoms: C_19  and  S_20
REMARK                            x       y       z     vdW  Elec       q    Type
REMARK                         _______ _______ _______ _____ _____    ______ ____
ROOT
ATOM      1  S   UNL     1      35.034 -23.530 -15.773  0.00  0.00    -0.064 S 
ATOM      2  N   UNL     1      33.089 -22.781 -17.674  0.00  0.00    -0.243 N 
ATOM      3  N   UNL     1      31.729 -22.671 -17.654  0.00  0.00    -0.165 NA
ATOM      4  C   UNL     1      32.526 -23.343 -15.677  0.00  0.00    +0.047 A 
ATOM      5  C   UNL     1      33.578 -23.187 -16.484  0.00  0.00    +0.109 A 
ATOM      6  C   UNL     1      31.393 -23.026 -16.397  0.00  0.00    +0.174 A 
ATOM      7  C   UNL     1      32.815 -23.763 -14.386  0.00  0.00    +0.015 C 
ATOM      8  C   UNL     1      34.196 -23.914 -14.281  0.00  0.00    +0.084 C 
ATOM      9  C   UNL     1      33.819 -22.477 -18.880  0.00  0.00    +0.154 C 
ENDROOT
BRANCH   6  13
ATOM     10  F   UNL     1      29.775 -22.403 -14.787  0.00  0.00    -0.164 F 
ATOM     11  F   UNL     1      29.154 -22.413 -16.870  0.00  0.00    -0.164 F 
ATOM     12  F   UNL     1      29.498 -24.298 -15.830  0.00  0.00    -0.164 F 
ATOM     13  C   UNL     1      29.983 -23.032 -15.981  0.00  0.00    +0.437 C 
ENDBRANCH   6  13
BRANCH   8  16
ATOM     14  O   UNL     1      34.799 -23.892 -11.991  0.00  0.00    -0.270 OA
ATOM     15  N   UNL     1      36.009 -25.253 -13.389  0.00  0.00    -0.300 N 
ATOM     16  C   UNL     1      34.971 -24.325 -13.155  0.00  0.00    +0.252 C 
ATOM     17  H   UNL     1      36.136 -25.587 -14.306  0.00  0.00    +0.150 HD
BRANCH  15  18
ATOM     18  C   UNL     1      36.897 -25.740 -12.357  0.00  0.00    +0.101 C 
BRANCH  18  19
ATOM     19  C   UNL     1      38.366 -25.649 -12.743  0.00  0.00    +0.075 C 
BRANCH  19  20
ATOM     20  S   UNL     1      38.592 -25.309 -14.516  0.00  0.00    -0.166 S 
ATOM     21  H   UNL     1      39.886 -24.963 -14.750  0.00  0.00    +0.102 HD
ENDBRANCH  19  20
ENDBRANCH  18  19
ENDBRANCH  15  18
ENDBRANCH   8  16
TORSDOF 5
ENDMDL
MODEL 3
REMARK VINA RESULT:      -7.9      4.355      6.490
REMARK  Name = 6852193
REMARK  5 active torsions:
REMARK  status: ('A' for Active; 'I' for Inactive)
REMARK    1  A    between atoms: C_6  and  C_13
REMARK    2  A    between atoms: C_8  and  C_16
REMARK    3  A    between atoms: N_15  and  C_18
REMARK    4  A    between atoms: C_18  and  C_19
REMARK    5  A    between atoms: C_19  and  S_20
REMARK                            x       y       z     vdW  Elec       q    Type
REMARK                         _______ _______ _______ _____ _____    ______ ____
ROOT
ATOM      1  S   UNL     1      34.936 -23.182 -16.276  0.00  0.00    -0.064 S 
ATOM      2  N   UNL     1      34.069 -24.032 -13.729  0.00  0.00    -0.243 N 
ATOM      3  N   UNL     1      32.853 -24.321 -13.184  0.00  0.00    -0.165 NA
ATOM      4  C   UNL     1      32.666 -23.702 -15.323  0.00  0.00    +0.047 A 
ATOM      5  C   UNL     1      33.965 -23.657 -15.021  0.00  0.00    +0.109 A 
ATOM      6  C   UNL     1      31.985 -24.109 -14.194  0.00  0.00    +0.174 A 
ATOM      7  C   UNL     1      32.337 -23.348 -16.624  0.00  0.00    +0.015 C 
ATOM      8  C   UNL     1      33.516 -23.026 -17.293  0.00  0.00    +0.084 C 
ATOM      9  C   UNL     1      35.263 -24.146 -12.929  0.00  0.00    +0.154 C 
ENDROOT
BRANCH   6  13
ATOM     10  F   UNL     1      29.783 -23.279 -14.441  0.00  0.00    -0.164 F 
ATOM     11  F   UNL     1      30.064 -25.427 -14.626  0.00  0.00    -0.164 F 
ATOM     12  F   UNL     1      30.230 -24.474 -12.673  0.00  0.00    -0.164 F 
ATOM     13  C   UNL     1      30.544 -24.319 -13.990  0.00  0.00    +0.437 C 
ENDBRANCH   6  13
BRANCH   8  16
ATOM     14  O   UNL     1      34.395 -23.220 -19.485  0.00  0.00    -0.270 OA
ATOM     15  N   UNL     1      33.061 -21.405 -19.038  0.00  0.00    -0.300 N 
ATOM     16  C   UNL     1      33.695 -22.604 -18.646  0.00  0.00    +0.252 C 
ATOM     17  H   UNL     1      32.513 -20.930 -18.372  0.00  0.00    +0.150 HD
BRANCH  15  18
ATOM     18  C   UNL     1      33.172 -20.836 -20.362  0.00  0.00    +0.101 C 
BRANCH  18  19
ATOM     19  C   UNL     1      34.495 -20.118 -20.593  0.00  0.00    +0.075 C 
BRANCH  19  20
ATOM     20  S   UNL     1      34.516 -19.207 -22.168  0.00  0.00    -0.166 S 
ATOM     21  H   UNL     1      33.337 -19.400 -22.819  0.00  0.00    +0.102 HD
ENDBRANCH  19  20
ENDBRANCH  18  19
ENDBRANCH  15  18
ENDBRANCH   8  16
TORSDOF 5
ENDMDL
MODEL 4
REMARK VINA RESULT:      -7.8      7.516      9.400
REMARK  Name = 6852193
REMARK  5 active torsions:
REMARK  status: ('A' for Active; 'I' for Inactive)
REMARK    1  A    between atoms: C_6  and  C_13
REMARK    2  A    between atoms: C_8  and  C_16
REMARK    3  A    between atoms: N_15  and  C_18
REMARK    4  A    between atoms: C_18  and  C_19
REMARK    5  A    between atoms: C_19  and  S_20
REMARK                            x       y       z     vdW  Elec       q    Type
REMARK                         _______ _______ _______ _____ _____    ______ ____
ROOT
ATOM      1  S   UNL     1      35.611 -18.118 -23.344  0.00  0.00    -0.064 S 
ATOM      2  N   UNL     1      33.940 -15.980 -24.117  0.00  0.00    -0.243 N 
ATOM      3  N   UNL     1      33.226 -15.036 -23.439  0.00  0.00    -0.165 NA
ATOM      4  C   UNL     1      34.312 -16.401 -22.042  0.00  0.00    +0.047 A 
ATOM      5  C   UNL     1      34.600 -16.808 -23.280  0.00  0.00    +0.109 A 
ATOM      6  C   UNL     1      33.469 -15.314 -22.142  0.00  0.00    +0.174 A 
ATOM      7  C   UNL     1      34.898 -17.130 -21.017  0.00  0.00    +0.015 C 
ATOM      8  C   UNL     1      35.666 -18.140 -21.592  0.00  0.00    +0.084 C 
ATOM      9  C   UNL     1      33.923 -16.000 -25.558  0.00  0.00    +0.154 C 
ENDROOT
BRANCH   6  13
ATOM     10  F   UNL     1      31.926 -13.619 -21.553  0.00  0.00    -0.164 F 
ATOM     11  F   UNL     1      32.220 -15.235 -20.130  0.00  0.00    -0.164 F 
ATOM     12  F   UNL     1      33.784 -13.745 -20.419  0.00  0.00    -0.164 F 
ATOM     13  C   UNL     1      32.860 -14.496 -21.082  0.00  0.00    +0.437 C 
ENDBRANCH   6  13
BRANCH   8  16
ATOM     14  O   UNL     1      37.707 -19.204 -21.027  0.00  0.00    -0.270 OA
ATOM     15  N   UNL     1      35.770 -20.134 -20.217  0.00  0.00    -0.300 N 
ATOM     16  C   UNL     1      36.456 -19.143 -20.951  0.00  0.00    +0.252 C 
ATOM     17  H   UNL     1      34.789 -20.078 -20.163  0.00  0.00    +0.150 HD
BRANCH  15  18
ATOM     18  C   UNL     1      36.428 -21.229 -19.540  0.00  0.00    +0.101 C 
BRANCH  18  19
ATOM     19  C   UNL     1      35.503 -21.994 -18.604  0.00  0.00    +0.075 C 
BRANCH  19  20
ATOM     20  S   UNL     1      33.790 -22.037 -19.215  0.00  0.00    -0.166 S 
ATOM     21  H   UNL     1      33.347 -20.766 -19.412  0.00  0.00    +0.102 HD
ENDBRANCH  19  20
ENDBRANCH  18  19
ENDBRANCH  15  18
ENDBRANCH   8  16
TORSDOF 5
ENDMDL
MODEL 5
REMARK VINA RESULT:      -7.7      3.980      6.184
REMARK  Name = 6852193
REMARK  5 active torsions:
REMARK  status: ('A' for Active; 'I' for Inactive)
REMARK    1  A    between atoms: C_6  and  C_13
REMARK    2  A    between atoms: C_8  and  C_16
REMARK    3  A    between atoms: N_15  and  C_18
REMARK    4  A    between atoms: C_18  and  C_19
REMARK    5  A    between atoms: C_19  and  S_20
REMARK                            x       y       z     vdW  Elec       q    Type
REMARK                         _______ _______ _______ _____ _____    ______ ____
ROOT
ATOM      1  S   UNL     1      31.687 -23.231 -16.601  0.00  0.00    -0.064 S 
ATOM      2  N   UNL     1      31.882 -24.017 -13.898  0.00  0.00    -0.243 N 
ATOM      3  N   UNL     1      32.921 -24.293 -13.059  0.00  0.00    -0.165 NA
ATOM      4  C   UNL     1      33.643 -23.728 -15.098  0.00  0.00    +0.047 A 
ATOM      5  C   UNL     1      32.309 -23.675 -15.132  0.00  0.00    +0.109 A 
ATOM      6  C   UNL     1      34.016 -24.108 -13.825  0.00  0.00    +0.174 A 
ATOM      7  C   UNL     1      34.289 -23.408 -16.283  0.00  0.00    +0.015 C 
ATOM      8  C   UNL     1      33.317 -23.102 -17.234  0.00  0.00    +0.084 C 
ATOM      9  C   UNL     1      30.525 -24.111 -13.421  0.00  0.00    +0.154 C 
ENDROOT
BRANCH   6  13
ATOM     10  F   UNL     1      36.120 -25.175 -13.998  0.00  0.00    -0.164 F 
ATOM     11  F   UNL     1      36.089 -23.166 -13.170  0.00  0.00    -0.164 F 
ATOM     12  F   UNL     1      35.312 -24.834 -12.002  0.00  0.00    -0.164 F 
ATOM     13  C   UNL     1      35.359 -24.314 -13.262  0.00  0.00    +0.437 C 
ENDBRANCH   6  13
BRANCH   8  16
ATOM     14  O   UNL     1      34.030 -23.434 -19.469  0.00  0.00    -0.270 OA
ATOM     15  N   UNL     1      33.031 -21.428 -18.964  0.00  0.00    -0.300 N 
ATOM     16  C   UNL     1      33.485 -22.714 -18.598  0.00  0.00    +0.252 C 
ATOM     17  H   UNL     1      32.605 -20.872 -18.274  0.00  0.00    +0.150 HD
BRANCH  15  18
ATOM     18  C   UNL     1      33.159 -20.883 -20.297  0.00  0.00    +0.101 C 
BRANCH  18  19
ATOM     19  C   UNL     1      34.495 -20.194 -20.534  0.00  0.00    +0.075 C 
BRANCH  19  20
ATOM     20  S   UNL     1      34.301 -18.583 -21.356  0.00  0.00    -0.166 S 
ATOM     21  H   UNL     1      33.220 -17.939 -20.840  0.00  0.00    +0.102 HD
ENDBRANCH  19  20
ENDBRANCH  18  19
ENDBRANCH  15  18
ENDBRANCH   8  16
TORSDOF 5
ENDMDL
MODEL 6
REMARK VINA RESULT:      -7.7     12.287     13.737
REMARK  Name = 6852193
REMARK  5 active torsions:
REMARK  status: ('A' for Active; 'I' for Inactive)
REMARK    1  A    between atoms: C_6  and  C_13
REMARK    2  A    between atoms: C_8  and  C_16
REMARK    3  A    between atoms: N_15  and  C_18
REMARK    4  A    between atoms: C_18  and  C_19
REMARK    5  A    between atoms: C_19  and  S_20
REMARK                            x       y       z     vdW  Elec       q    Type
REMARK                         _______ _______ _______ _____ _____    ______ ____
ROOT
ATOM      1  S   UNL     1      33.329 -15.426 -22.344  0.00  0.00    -0.064 S 
ATOM      2  N   UNL     1      33.986 -16.149 -24.991  0.00  0.00    -0.243 N 
ATOM      3  N   UNL     1      33.924 -15.512 -26.196  0.00  0.00    -0.165 NA
ATOM      4  C   UNL     1      33.193 -14.203 -24.539  0.00  0.00    +0.047 A 
ATOM      5  C   UNL     1      33.546 -15.365 -23.985  0.00  0.00    +0.109 A 
ATOM      6  C   UNL     1      33.425 -14.296 -25.895  0.00  0.00    +0.174 A 
ATOM      7  C   UNL     1      32.706 -13.242 -23.664  0.00  0.00    +0.015 C 
ATOM      8  C   UNL     1      32.720 -13.783 -22.379  0.00  0.00    +0.084 C 
ATOM      9  C   UNL     1      34.479 -17.501 -24.915  0.00  0.00    +0.154 C 
ENDROOT
BRANCH   6  13
ATOM     10  F   UNL     1      34.071 -13.440 -28.005  0.00  0.00    -0.164 F 
ATOM     11  F   UNL     1      31.958 -13.356 -27.501  0.00  0.00    -0.164 F 
ATOM     12  F   UNL     1      33.367 -12.025 -26.503  0.00  0.00    -0.164 F 
ATOM     13  C   UNL     1      33.208 -13.301 -26.956  0.00  0.00    +0.437 C 
ENDBRANCH   6  13
BRANCH   8  16
ATOM     14  O   UNL     1      32.467 -13.720 -20.025  0.00  0.00    -0.270 OA
ATOM     15  N   UNL     1      31.685 -11.922 -21.220  0.00  0.00    -0.300 N 
ATOM     16  C   UNL     1      32.316 -13.183 -21.148  0.00  0.00    +0.252 C 
ATOM     17  H   UNL     1      31.572 -11.509 -22.106  0.00  0.00    +0.150 HD
BRANCH  15  18
ATOM     18  C   UNL     1      31.195 -11.204 -20.065  0.00  0.00    +0.101 C 
BRANCH  18  19
ATOM     19  C   UNL     1      31.782  -9.806 -19.938  0.00  0.00    +0.075 C 
BRANCH  19  20
ATOM     20  S   UNL     1      32.098  -9.044 -21.559  0.00  0.00    -0.166 S 
ATOM     21  H   UNL     1      33.008  -8.041 -21.419  0.00  0.00    +0.102 HD
ENDBRANCH  19  20
ENDBRANCH  18  19
ENDBRANCH  15  18
ENDBRANCH   8  16
TORSDOF 5
ENDMDL
MODEL 7
REMARK VINA RESULT:      -7.6      4.254      6.675
REMARK  Name = 6852193
REMARK  5 active torsions:
REMARK  status: ('A' for Active; 'I' for Inactive)
REMARK    1  A    between atoms: C_6  and  C_13
REMARK    2  A    between atoms: C_8  and  C_16
REMARK    3  A    between atoms: N_15  and  C_18
REMARK    4  A    between atoms: C_18  and  C_19
REMARK    5  A    between atoms: C_19  and  S_20
REMARK                            x       y       z     vdW  Elec       q    Type
REMARK                         _______ _______ _______ _____ _____    ______ ____
ROOT
ATOM      1  S   UNL     1      34.007 -23.299 -15.521  0.00  0.00    -0.064 S 
ATOM      2  N   UNL     1      36.769 -22.828 -15.191  0.00  0.00    -0.243 N 
ATOM      3  N   UNL     1      37.666 -23.081 -14.195  0.00  0.00    -0.165 NA
ATOM      4  C   UNL     1      35.618 -23.790 -13.651  0.00  0.00    +0.047 A 
ATOM      5  C   UNL     1      35.529 -23.254 -14.870  0.00  0.00    +0.109 A 
ATOM      6  C   UNL     1      36.930 -23.682 -13.238  0.00  0.00    +0.174 A 
ATOM      7  C   UNL     1      34.436 -24.294 -13.127  0.00  0.00    +0.015 C 
ATOM      8  C   UNL     1      33.427 -24.091 -14.068  0.00  0.00    +0.084 C 
ATOM      9  C   UNL     1      37.201 -22.178 -16.403  0.00  0.00    +0.154 C 
ENDROOT
BRANCH   6  13
ATOM     10  F   UNL     1      36.773 -23.888 -10.886  0.00  0.00    -0.164 F 
ATOM     11  F   UNL     1      37.850 -25.446 -11.952  0.00  0.00    -0.164 F 
ATOM     12  F   UNL     1      38.733 -23.464 -11.745  0.00  0.00    -0.164 F 
ATOM     13  C   UNL     1      37.558 -24.114 -11.981  0.00  0.00    +0.437 C 
ENDBRANCH   6  13
BRANCH   8  16
ATOM     14  O   UNL     1      31.545 -25.126 -13.069  0.00  0.00    -0.270 OA
ATOM     15  N   UNL     1      31.208 -23.995 -15.039  0.00  0.00    -0.300 N 
ATOM     16  C   UNL     1      32.044 -24.438 -13.991  0.00  0.00    +0.252 C 
ATOM     17  H   UNL     1      31.610 -23.456 -15.758  0.00  0.00    +0.150 HD
BRANCH  15  18
ATOM     18  C   UNL     1      29.795 -24.292 -15.116  0.00  0.00    +0.101 C 
BRANCH  18  19
ATOM     19  C   UNL     1      29.136 -23.733 -16.369  0.00  0.00    +0.075 C 
BRANCH  19  20
ATOM     20  S   UNL     1      27.799 -22.563 -15.978  0.00  0.00    -0.166 S 
ATOM     21  H   UNL     1      26.655 -23.252 -15.719  0.00  0.00    +0.102 HD
ENDBRANCH  19  20
ENDBRANCH  18  19
ENDBRANCH  15  18
ENDBRANCH   8  16
TORSDOF 5
ENDMDL
MODEL 8
REMARK VINA RESULT:      -7.6     11.988     14.067
REMARK  Name = 6852193
REMARK  5 active torsions:
REMARK  status: ('A' for Active; 'I' for Inactive)
REMARK    1  A    between atoms: C_6  and  C_13
REMARK    2  A    between atoms: C_8  and  C_16
REMARK    3  A    between atoms: N_15  and  C_18
REMARK    4  A    between atoms: C_18  and  C_19
REMARK    5  A    between atoms: C_19  and  S_20
REMARK                            x       y       z     vdW  Elec       q    Type
REMARK                         _______ _______ _______ _____ _____    ______ ____
ROOT
ATOM      1  S   UNL     1      33.832 -11.792 -24.735  0.00  0.00    -0.064 S 
ATOM      2  N   UNL     1      33.048  -9.635 -23.093  0.00  0.00    -0.243 N 
ATOM      3  N   UNL     1      32.299  -9.524 -21.959  0.00  0.00    -0.165 NA
ATOM      4  C   UNL     1      32.441 -11.647 -22.643  0.00  0.00    +0.047 A 
ATOM      5  C   UNL     1      33.139 -10.914 -23.513  0.00  0.00    +0.109 A 
ATOM      6  C   UNL     1      31.926 -10.792 -21.690  0.00  0.00    +0.174 A 
ATOM      7  C   UNL     1      32.407 -13.012 -22.896  0.00  0.00    +0.015 C 
ATOM      8  C   UNL     1      33.149 -13.254 -24.050  0.00  0.00    +0.084 C 
ATOM      9  C   UNL     1      33.628  -8.459 -23.692  0.00  0.00    +0.154 C 
ENDROOT
BRANCH   6  13
ATOM     10  F   UNL     1      31.583 -12.102 -19.750  0.00  0.00    -0.164 F 
ATOM     11  F   UNL     1      30.949 -10.025 -19.673  0.00  0.00    -0.164 F 
ATOM     12  F   UNL     1      29.826 -11.459 -20.870  0.00  0.00    -0.164 F 
ATOM     13  C   UNL     1      31.089 -11.087 -20.517  0.00  0.00    +0.437 C 
ENDBRANCH   6  13
BRANCH   8  16
ATOM     14  O   UNL     1      32.943 -14.802 -25.832  0.00  0.00    -0.270 OA
ATOM     15  N   UNL     1      34.211 -15.433 -24.024  0.00  0.00    -0.300 N 
ATOM     16  C   UNL     1      33.407 -14.495 -24.708  0.00  0.00    +0.252 C 
ATOM     17  H   UNL     1      34.571 -15.183 -23.143  0.00  0.00    +0.150 HD
BRANCH  15  18
ATOM     18  C   UNL     1      34.535 -16.742 -24.547  0.00  0.00    +0.101 C 
BRANCH  18  19
ATOM     19  C   UNL     1      35.030 -17.705 -23.478  0.00  0.00    +0.075 C 
BRANCH  19  20
ATOM     20  S   UNL     1      34.931 -16.989 -21.808  0.00  0.00    -0.166 S 
ATOM     21  H   UNL     1      34.766 -17.985 -20.897  0.00  0.00    +0.102 HD
ENDBRANCH  19  20
ENDBRANCH  18  19
ENDBRANCH  15  18
ENDBRANCH   8  16
TORSDOF 5
ENDMDL
MODEL 9
REMARK VINA RESULT:      -7.5      9.570     11.587
REMARK  Name = 6852193
REMARK  5 active torsions:
REMARK  status: ('A' for Active; 'I' for Inactive)
REMARK    1  A    between atoms: C_6  and  C_13
REMARK    2  A    between atoms: C_8  and  C_16
REMARK    3  A    between atoms: N_15  and  C_18
REMARK    4  A    between atoms: C_18  and  C_19
REMARK    5  A    between atoms: C_19  and  S_20
REMARK                            x       y       z     vdW  Elec       q    Type
REMARK                         _______ _______ _______ _____ _____    ______ ____
ROOT
ATOM      1  S   UNL     1      34.454 -15.100 -23.266  0.00  0.00    -0.064 S 
ATOM      2  N   UNL     1      33.318 -12.574 -23.805  0.00  0.00    -0.243 N 
ATOM      3  N   UNL     1      32.539 -11.709 -23.094  0.00  0.00    -0.165 NA
ATOM      4  C   UNL     1      33.019 -13.542 -21.909  0.00  0.00    +0.047 A 
ATOM      5  C   UNL     1      33.612 -13.684 -23.096  0.00  0.00    +0.109 A 
ATOM      6  C   UNL     1      32.361 -12.329 -21.910  0.00  0.00    +0.174 A 
ATOM      7  C   UNL     1      33.198 -14.589 -21.016  0.00  0.00    +0.015 C 
ATOM      8  C   UNL     1      33.991 -15.553 -21.637  0.00  0.00    +0.084 C 
ATOM      9  C   UNL     1      33.722 -12.243 -25.148  0.00  0.00    +0.154 C 
ENDROOT
BRANCH   6  13
ATOM     10  F   UNL     1      31.690 -12.307 -19.641  0.00  0.00    -0.164 F 
ATOM     11  F   UNL     1      31.879 -10.387 -20.642  0.00  0.00    -0.164 F 
ATOM     12  F   UNL     1      30.225 -11.714 -21.143  0.00  0.00    -0.164 F 
ATOM     13  C   UNL     1      31.557 -11.695 -20.854  0.00  0.00    +0.437 C 
ENDBRANCH   6  13
BRANCH   8  16
ATOM     14  O   UNL     1      35.415 -16.928 -20.336  0.00  0.00    -0.270 OA
ATOM     15  N   UNL     1      33.779 -17.967 -21.569  0.00  0.00    -0.300 N 
ATOM     16  C   UNL     1      34.448 -16.805 -21.126  0.00  0.00    +0.252 C 
ATOM     17  H   UNL     1      33.022 -17.860 -22.189  0.00  0.00    +0.150 HD
BRANCH  15  18
ATOM     18  C   UNL     1      34.146 -19.306 -21.164  0.00  0.00    +0.101 C 
BRANCH  18  19
ATOM     19  C   UNL     1      32.987 -20.084 -20.558  0.00  0.00    +0.075 C 
BRANCH  19  20
ATOM     20  S   UNL     1      33.555 -21.478 -19.537  0.00  0.00    -0.166 S 
ATOM     21  H   UNL     1      34.914 -21.524 -19.548  0.00  0.00    +0.102 HD
ENDBRANCH  19  20
ENDBRANCH  18  19
ENDBRANCH  15  18
ENDBRANCH   8  16
TORSDOF 5
ENDMDL
