MODEL 1
REMARK VINA RESULT:     -10.3      0.000      0.000
REMARK  Name = 16122567
REMARK  6 active torsions:
REMARK  status: ('A' for Active; 'I' for Inactive)
REMARK    1  A    between atoms: C_1  and  C_4
REMARK    2  A    between atoms: C_1  and  C_14
REMARK    3  A    between atoms: C_1  and  P_26
REMARK    4  A    between atoms: N_13  and  C_16
REMARK    5  A    between atoms: P_26  and  O_28
REMARK    6  A    between atoms: P_26  and  O_30
REMARK                            x       y       z     vdW  Elec       q    Type
REMARK                         _______ _______ _______ _____ _____    ______ ____
ROOT
ATOM      1  C   UNL     1      33.830 -13.405 -23.307  0.00  0.00    +0.203 C 
ENDROOT
BRANCH   1   4
ATOM      2 CL   UNL     1      36.367 -18.282 -21.631  0.00  0.00    -0.082 Cl
ATOM      3  S   UNL     1      33.019 -15.928 -26.315  0.00  0.00    -0.087 S 
ATOM      4  C   UNL     1      33.688 -14.552 -24.262  0.00  0.00    +0.005 C 
ATOM      5  C   UNL     1      34.243 -15.857 -24.039  0.00  0.00    +0.004 C 
ATOM      6  C   UNL     1      33.949 -16.721 -25.098  0.00  0.00    +0.029 C 
ATOM      7  C   UNL     1      33.005 -14.459 -25.452  0.00  0.00    +0.032 C 
ATOM      8  C   UNL     1      35.004 -16.360 -22.955  0.00  0.00    +0.012 C 
ATOM      9  C   UNL     1      34.390 -18.059 -25.102  0.00  0.00    +0.007 C 
ATOM     10  C   UNL     1      35.443 -17.688 -22.956  0.00  0.00    +0.058 C 
ATOM     11  C   UNL     1      35.139 -18.525 -24.019  0.00  0.00    +0.012 C 
ENDBRANCH   1   4
BRANCH   1  14
ATOM     12  O   UNL     1      34.245 -12.012 -25.211  0.00  0.00    -0.274 OA
ATOM     13  N   UNL     1      33.470 -11.005 -23.230  0.00  0.00    -0.283 N 
ATOM     14  C   UNL     1      33.880 -12.073 -24.040  0.00  0.00    +0.242 C 
ATOM     15  H   UNL     1      33.206 -11.239 -22.311  0.00  0.00    +0.155 HD
BRANCH  13  16
ATOM     16  C   UNL     1      33.389  -9.652 -23.561  0.00  0.00    +0.050 C 
ATOM     17  C   UNL     1      32.046  -7.660 -23.944  0.00  0.00    +0.001 C 
ATOM     18  C   UNL     1      32.146  -9.020 -23.613  0.00  0.00    +0.015 C 
ATOM     19  C   UNL     1      33.223  -6.928 -24.229  0.00  0.00    +0.000 C 
ATOM     20  C   UNL     1      34.547  -8.933 -23.840  0.00  0.00    +0.015 C 
ATOM     21  C   UNL     1      34.466  -7.581 -24.171  0.00  0.00    +0.001 C 
ATOM     22  C   UNL     1      30.803  -7.008 -24.001  0.00  0.00    +0.000 C 
ATOM     23  C   UNL     1      33.124  -5.567 -24.561  0.00  0.00    +0.000 C 
ATOM     24  C   UNL     1      30.722  -5.656 -24.333  0.00  0.00    +0.000 C 
ATOM     25  C   UNL     1      31.881  -4.937 -24.613  0.00  0.00    +0.000 C 
ENDBRANCH  13  16
ENDBRANCH   1  14
BRANCH   1  26
ATOM     26  P   UNL     1      32.464 -13.517 -22.119  0.00  0.00    +0.349 P 
ATOM     27  O   UNL     1      32.089 -14.915 -21.780  0.00  0.00    -0.257 OA
BRANCH  26  28
ATOM     28  O   UNL     1      31.327 -12.622 -22.821  0.00  0.00    -0.323 OA
ATOM     29  H   UNL     1      31.402 -11.705 -22.516  0.00  0.00    +0.220 HD
ENDBRANCH  26  28
BRANCH  26  30
ATOM     30  O   UNL     1      32.991 -12.604 -20.906  0.00  0.00    -0.323 OA
ATOM     31  H   UNL     1      33.878 -12.895 -20.642  0.00  0.00    +0.220 HD
ENDBRANCH  26  30
ENDBRANCH   1  26
TORSDOF 6
ENDMDL
MODEL 2
REMARK VINA RESULT:     -10.1     10.011     13.514
REMARK  Name = 16122567
REMARK  6 active torsions:
REMARK  status: ('A' for Active; 'I' for Inactive)
REMARK    1  A    between atoms: C_1  and  C_4
REMARK    2  A    between atoms: C_1  and  C_14
REMARK    3  A    between atoms: C_1  and  P_26
REMARK    4  A    between atoms: N_13  and  C_16
REMARK    5  A    between atoms: P_26  and  O_28
REMARK    6  A    between atoms: P_26  and  O_30
REMARK                            x       y       z     vdW  Elec       q    Type
REMARK                         _______ _______ _______ _____ _____    ______ ____
ROOT
ATOM      1  C   UNL     1      36.264 -23.989 -15.653  0.00  0.00    +0.203 C 
ENDROOT
BRANCH   1   4
ATOM      2 CL   UNL     1      30.786 -22.722 -16.843  0.00  0.00    -0.082 Cl
ATOM      3  S   UNL     1      34.475 -24.261 -12.076  0.00  0.00    -0.087 S 
ATOM      4  C   UNL     1      35.339 -24.013 -14.473  0.00  0.00    +0.005 C 
ATOM      5  C   UNL     1      33.934 -23.728 -14.548  0.00  0.00    +0.004 C 
ATOM      6  C   UNL     1      33.329 -23.828 -13.291  0.00  0.00    +0.029 C 
ATOM      7  C   UNL     1      35.756 -24.314 -13.198  0.00  0.00    +0.032 C 
ATOM      8  C   UNL     1      33.123 -23.380 -15.655  0.00  0.00    +0.012 C 
ATOM      9  C   UNL     1      31.952 -23.593 -13.116  0.00  0.00    +0.007 C 
ATOM     10  C   UNL     1      31.756 -23.145 -15.485  0.00  0.00    +0.058 C 
ATOM     11  C   UNL     1      31.179 -23.250 -14.227  0.00  0.00    +0.012 C 
ENDBRANCH   1   4
BRANCH   1  14
ATOM     12  O   UNL     1      36.561 -21.648 -16.060  0.00  0.00    -0.274 OA
ATOM     13  N   UNL     1      35.396 -22.927 -17.656  0.00  0.00    -0.283 N 
ATOM     14  C   UNL     1      36.100 -22.712 -16.462  0.00  0.00    +0.242 C 
ATOM     15  H   UNL     1      35.102 -23.851 -17.821  0.00  0.00    +0.155 HD
BRANCH  13  16
ATOM     16  C   UNL     1      35.059 -21.995 -18.639  0.00  0.00    +0.050 C 
ATOM     17  C   UNL     1      35.735 -20.278 -20.226  0.00  0.00    +0.001 C 
ATOM     18  C   UNL     1      36.055 -21.220 -19.235  0.00  0.00    +0.015 C 
ATOM     19  C   UNL     1      34.384 -20.119 -20.618  0.00  0.00    +0.000 C 
ATOM     20  C   UNL     1      33.732 -21.838 -19.024  0.00  0.00    +0.015 C 
ATOM     21  C   UNL     1      33.395 -20.908 -20.007  0.00  0.00    +0.001 C 
ATOM     22  C   UNL     1      36.724 -19.490 -20.836  0.00  0.00    +0.000 C 
ATOM     23  C   UNL     1      34.063 -19.177 -21.608  0.00  0.00    +0.000 C 
ATOM     24  C   UNL     1      36.387 -18.559 -21.818  0.00  0.00    +0.000 C 
ATOM     25  C   UNL     1      35.058 -18.402 -22.203  0.00  0.00    +0.000 C 
ENDBRANCH  13  16
ENDBRANCH   1  14
BRANCH   1  26
ATOM     26  P   UNL     1      37.949 -24.229 -15.025  0.00  0.00    +0.349 P 
ATOM     27  O   UNL     1      38.122 -23.788 -13.616  0.00  0.00    -0.257 OA
BRANCH  26  28
ATOM     28  O   UNL     1      38.836 -23.464 -16.128  0.00  0.00    -0.323 OA
ATOM     29  H   UNL     1      39.418 -24.100 -16.573  0.00  0.00    +0.220 HD
ENDBRANCH  26  28
BRANCH  26  30
ATOM     30  O   UNL     1      38.206 -25.787 -15.324  0.00  0.00    -0.323 OA
ATOM     31  H   UNL     1      37.416 -26.298 -15.087  0.00  0.00    +0.220 HD
ENDBRANCH  26  30
ENDBRANCH   1  26
TORSDOF 6
ENDMDL
MODEL 3
REMARK VINA RESULT:     -10.0      3.669      9.166
REMARK  Name = 16122567
REMARK  6 active torsions:
REMARK  status: ('A' for Active; 'I' for Inactive)
REMARK    1  A    between atoms: C_1  and  C_4
REMARK    2  A    between atoms: C_1  and  C_14
REMARK    3  A    between atoms: C_1  and  P_26
REMARK    4  A    between atoms: N_13  and  C_16
REMARK    5  A    between atoms: P_26  and  O_28
REMARK    6  A    between atoms: P_26  and  O_30
REMARK                            x       y       z     vdW  Elec       q    Type
REMARK                         _______ _______ _______ _____ _____    ______ ____
ROOT
ATOM      1  C   UNL     1      34.141 -14.858 -24.927  0.00  0.00    +0.203 C 
ENDROOT
BRANCH   1   4
ATOM      2 CL   UNL     1      34.948  -9.185 -25.377  0.00  0.00    -0.082 Cl
ATOM      3  S   UNL     1      31.995 -13.392 -21.875  0.00  0.00    -0.087 S 
ATOM      4  C   UNL     1      33.438 -14.035 -23.889  0.00  0.00    +0.005 C 
ATOM      5  C   UNL     1      33.506 -12.603 -23.818  0.00  0.00    +0.004 C 
ATOM      6  C   UNL     1      32.751 -12.112 -22.748  0.00  0.00    +0.029 C 
ATOM      7  C   UNL     1      32.657 -14.582 -22.898  0.00  0.00    +0.032 C 
ATOM      8  C   UNL     1      34.191 -11.672 -24.637  0.00  0.00    +0.012 C 
ATOM      9  C   UNL     1      32.665 -10.732 -22.479  0.00  0.00    +0.007 C 
ATOM     10  C   UNL     1      34.108 -10.302 -24.372  0.00  0.00    +0.058 C 
ATOM     11  C   UNL     1      33.353  -9.839 -23.304  0.00  0.00    +0.012 C 
ENDBRANCH   1   4
BRANCH   1  14
ATOM     12  O   UNL     1      34.212 -17.232 -25.230  0.00  0.00    -0.274 OA
ATOM     13  N   UNL     1      34.692 -16.357 -23.099  0.00  0.00    -0.283 N 
ATOM     14  C   UNL     1      34.346 -16.289 -24.456  0.00  0.00    +0.242 C 
ATOM     15  H   UNL     1      34.759 -15.495 -22.629  0.00  0.00    +0.155 HD
BRANCH  13  16
ATOM     16  C   UNL     1      34.954 -17.492 -22.331  0.00  0.00    +0.050 C 
ATOM     17  C   UNL     1      34.144 -19.361 -21.000  0.00  0.00    +0.001 C 
ATOM     18  C   UNL     1      33.898 -18.216 -21.774  0.00  0.00    +0.015 C 
ATOM     19  C   UNL     1      35.479 -19.778 -20.785  0.00  0.00    +0.000 C 
ATOM     20  C   UNL     1      36.267 -17.903 -22.120  0.00  0.00    +0.015 C 
ATOM     21  C   UNL     1      36.529 -19.037 -21.353  0.00  0.00    +0.001 C 
ATOM     22  C   UNL     1      33.094 -20.101 -20.432  0.00  0.00    +0.000 C 
ATOM     23  C   UNL     1      35.725 -20.923 -20.009  0.00  0.00    +0.000 C 
ATOM     24  C   UNL     1      33.356 -21.235 -19.664  0.00  0.00    +0.000 C 
ATOM     25  C   UNL     1      34.670 -21.645 -19.453  0.00  0.00    +0.000 C 
ENDBRANCH  13  16
ENDBRANCH   1  14
BRANCH   1  26
ATOM     26  P   UNL     1      33.174 -14.738 -26.457  0.00  0.00    +0.349 P 
ATOM     27  O   UNL     1      33.930 -14.139 -27.588  0.00  0.00    -0.257 OA
BRANCH  26  28
ATOM     28  O   UNL     1      31.864 -13.942 -25.972  0.00  0.00    -0.323 OA
ATOM     29  H   UNL     1      31.905 -13.026 -26.288  0.00  0.00    +0.220 HD
ENDBRANCH  26  28
BRANCH  26  30
ATOM     30  O   UNL     1      32.664 -16.250 -26.658  0.00  0.00    -0.323 OA
ATOM     31  H   UNL     1      33.421 -16.823 -26.857  0.00  0.00    +0.220 HD
ENDBRANCH  26  30
ENDBRANCH   1  26
TORSDOF 6
ENDMDL
MODEL 4
REMARK VINA RESULT:      -9.4      1.245      1.452
REMARK  Name = 16122567
REMARK  6 active torsions:
REMARK  status: ('A' for Active; 'I' for Inactive)
REMARK    1  A    between atoms: C_1  and  C_4
REMARK    2  A    between atoms: C_1  and  C_14
REMARK    3  A    between atoms: C_1  and  P_26
REMARK    4  A    between atoms: N_13  and  C_16
REMARK    5  A    between atoms: P_26  and  O_28
REMARK    6  A    between atoms: P_26  and  O_30
REMARK                            x       y       z     vdW  Elec       q    Type
REMARK                         _______ _______ _______ _____ _____    ______ ____
ROOT
ATOM      1  C   UNL     1      33.534 -12.853 -22.753  0.00  0.00    +0.203 C 
ENDROOT
BRANCH   1   4
ATOM      2 CL   UNL     1      35.982 -18.010 -22.082  0.00  0.00    -0.082 Cl
ATOM      3  S   UNL     1      32.980 -14.591 -26.323  0.00  0.00    -0.087 S 
ATOM      4  C   UNL     1      33.476 -13.742 -23.959  0.00  0.00    +0.005 C 
ATOM      5  C   UNL     1      34.026 -15.068 -24.007  0.00  0.00    +0.004 C 
ATOM      6  C   UNL     1      33.822 -15.655 -25.259  0.00  0.00    +0.029 C 
ATOM      7  C   UNL     1      32.886 -13.366 -25.143  0.00  0.00    +0.032 C 
ATOM      8  C   UNL     1      34.706 -15.819 -23.018  0.00  0.00    +0.012 C 
ATOM      9  C   UNL     1      34.275 -16.959 -25.544  0.00  0.00    +0.007 C 
ATOM     10  C   UNL     1      35.156 -17.112 -23.297  0.00  0.00    +0.058 C 
ATOM     11  C   UNL     1      34.942 -17.673 -24.548  0.00  0.00    +0.012 C 
ENDBRANCH   1   4
BRANCH   1  14
ATOM     12  O   UNL     1      34.097 -10.977 -24.131  0.00  0.00    -0.274 OA
ATOM     13  N   UNL     1      32.711 -10.623 -22.262  0.00  0.00    -0.283 N 
ATOM     14  C   UNL     1      33.493 -11.384 -23.143  0.00  0.00    +0.242 C 
ATOM     15  H   UNL     1      32.294 -11.117 -21.520  0.00  0.00    +0.155 HD
BRANCH  13  16
ATOM     16  C   UNL     1      32.449  -9.253 -22.305  0.00  0.00    +0.050 C 
ATOM     17  C   UNL     1      31.691  -7.296 -23.537  0.00  0.00    +0.001 C 
ATOM     18  C   UNL     1      31.960  -8.673 -23.477  0.00  0.00    +0.015 C 
ATOM     19  C   UNL     1      31.920  -6.495 -22.394  0.00  0.00    +0.000 C 
ATOM     20  C   UNL     1      32.674  -8.465 -21.180  0.00  0.00    +0.015 C 
ATOM     21  C   UNL     1      32.412  -7.096 -21.223  0.00  0.00    +0.001 C 
ATOM     22  C   UNL     1      31.199  -6.696 -24.708  0.00  0.00    +0.000 C 
ATOM     23  C   UNL     1      31.651  -5.118 -22.454  0.00  0.00    +0.000 C 
ATOM     24  C   UNL     1      30.938  -5.327 -24.751  0.00  0.00    +0.000 C 
ATOM     25  C   UNL     1      31.164  -4.539 -23.625  0.00  0.00    +0.000 C 
ENDBRANCH  13  16
ENDBRANCH   1  14
BRANCH   1  26
ATOM     26  P   UNL     1      32.174 -13.341 -21.656  0.00  0.00    +0.349 P 
ATOM     27  O   UNL     1      31.973 -14.812 -21.582  0.00  0.00    -0.257 OA
BRANCH  26  28
ATOM     28  O   UNL     1      30.945 -12.480 -22.232  0.00  0.00    -0.323 OA
ATOM     29  H   UNL     1      30.491 -12.985 -22.925  0.00  0.00    +0.220 HD
ENDBRANCH  26  28
BRANCH  26  30
ATOM     30  O   UNL     1      32.563 -12.603 -20.282  0.00  0.00    -0.323 OA
ATOM     31  H   UNL     1      32.327 -13.170 -19.531  0.00  0.00    +0.220 HD
ENDBRANCH  26  30
ENDBRANCH   1  26
TORSDOF 6
ENDMDL
MODEL 5
REMARK VINA RESULT:      -9.2      3.543      9.180
REMARK  Name = 16122567
REMARK  6 active torsions:
REMARK  status: ('A' for Active; 'I' for Inactive)
REMARK    1  A    between atoms: C_1  and  C_4
REMARK    2  A    between atoms: C_1  and  C_14
REMARK    3  A    between atoms: C_1  and  P_26
REMARK    4  A    between atoms: N_13  and  C_16
REMARK    5  A    between atoms: P_26  and  O_28
REMARK    6  A    between atoms: P_26  and  O_30
REMARK                            x       y       z     vdW  Elec       q    Type
REMARK                         _______ _______ _______ _____ _____    ______ ____
ROOT
ATOM      1  C   UNL     1      34.040 -13.363 -23.314  0.00  0.00    +0.203 C 
ENDROOT
BRANCH   1   4
ATOM      2 CL   UNL     1      34.760  -7.812 -24.624  0.00  0.00    -0.082 Cl
ATOM      3  S   UNL     1      30.961 -11.588 -21.460  0.00  0.00    -0.087 S 
ATOM      4  C   UNL     1      33.008 -12.438 -22.740  0.00  0.00    +0.005 C 
ATOM      5  C   UNL     1      33.000 -11.017 -22.944  0.00  0.00    +0.004 C 
ATOM      6  C   UNL     1      31.919 -10.418 -22.290  0.00  0.00    +0.029 C 
ATOM      7  C   UNL     1      31.963 -12.872 -21.959  0.00  0.00    +0.032 C 
ATOM      8  C   UNL     1      33.885 -10.187 -23.674  0.00  0.00    +0.012 C 
ATOM      9  C   UNL     1      31.703  -9.027 -22.347  0.00  0.00    +0.007 C 
ATOM     10  C   UNL     1      33.673  -8.806 -23.732  0.00  0.00    +0.058 C 
ATOM     11  C   UNL     1      32.593  -8.235 -23.074  0.00  0.00    +0.012 C 
ENDBRANCH   1   4
BRANCH   1  14
ATOM     12  O   UNL     1      34.788 -14.146 -21.178  0.00  0.00    -0.274 OA
ATOM     13  N   UNL     1      34.344 -15.728 -22.863  0.00  0.00    -0.283 N 
ATOM     14  C   UNL     1      34.438 -14.440 -22.317  0.00  0.00    +0.242 C 
ATOM     15  H   UNL     1      34.040 -15.779 -23.798  0.00  0.00    +0.155 HD
BRANCH  13  16
ATOM     16  C   UNL     1      34.626 -16.949 -22.247  0.00  0.00    +0.050 C 
ATOM     17  C   UNL     1      33.862 -18.927 -21.054  0.00  0.00    +0.001 C 
ATOM     18  C   UNL     1      33.596 -17.697 -21.676  0.00  0.00    +0.015 C 
ATOM     19  C   UNL     1      35.193 -19.405 -21.008  0.00  0.00    +0.000 C 
ATOM     20  C   UNL     1      35.935 -17.420 -22.203  0.00  0.00    +0.015 C 
ATOM     21  C   UNL     1      36.218 -18.639 -21.589  0.00  0.00    +0.001 C 
ATOM     22  C   UNL     1      32.838 -19.692 -20.475  0.00  0.00    +0.000 C 
ATOM     23  C   UNL     1      35.460 -20.635 -20.385  0.00  0.00    +0.000 C 
ATOM     24  C   UNL     1      33.121 -20.911 -19.859  0.00  0.00    +0.000 C 
ATOM     25  C   UNL     1      34.430 -21.382 -19.814  0.00  0.00    +0.000 C 
ENDBRANCH  13  16
ENDBRANCH   1  14
BRANCH   1  26
ATOM     26  P   UNL     1      33.368 -14.031 -24.861  0.00  0.00    +0.349 P 
ATOM     27  O   UNL     1      31.979 -14.542 -24.730  0.00  0.00    -0.257 OA
BRANCH  26  28
ATOM     28  O   UNL     1      34.489 -15.104 -25.284  0.00  0.00    -0.323 OA
ATOM     29  H   UNL     1      34.474 -15.226 -26.246  0.00  0.00    +0.220 HD
ENDBRANCH  26  28
BRANCH  26  30
ATOM     30  O   UNL     1      33.588 -12.809 -25.883  0.00  0.00    -0.323 OA
ATOM     31  H   UNL     1      32.827 -12.208 -25.838  0.00  0.00    +0.220 HD
ENDBRANCH  26  30
ENDBRANCH   1  26
TORSDOF 6
ENDMDL
MODEL 6
REMARK VINA RESULT:      -9.2      3.462      5.087
REMARK  Name = 16122567
REMARK  6 active torsions:
REMARK  status: ('A' for Active; 'I' for Inactive)
REMARK    1  A    between atoms: C_1  and  C_4
REMARK    2  A    between atoms: C_1  and  C_14
REMARK    3  A    between atoms: C_1  and  P_26
REMARK    4  A    between atoms: N_13  and  C_16
REMARK    5  A    between atoms: P_26  and  O_28
REMARK    6  A    between atoms: P_26  and  O_30
REMARK                            x       y       z     vdW  Elec       q    Type
REMARK                         _______ _______ _______ _____ _____    ______ ____
ROOT
ATOM      1  C   UNL     1      34.173 -17.270 -22.819  0.00  0.00    +0.203 C 
ENDROOT
BRANCH   1   4
ATOM      2 CL   UNL     1      32.300 -21.348 -19.227  0.00  0.00    -0.082 Cl
ATOM      3  S   UNL     1      37.563 -19.026 -21.596  0.00  0.00    -0.087 S 
ATOM      4  C   UNL     1      35.250 -18.106 -22.195  0.00  0.00    +0.005 C 
ATOM      5  C   UNL     1      35.002 -19.176 -21.271  0.00  0.00    +0.004 C 
ATOM      6  C   UNL     1      36.196 -19.775 -20.857  0.00  0.00    +0.029 C 
ATOM      7  C   UNL     1      36.588 -17.922 -22.453  0.00  0.00    +0.032 C 
ATOM      8  C   UNL     1      33.785 -19.681 -20.751  0.00  0.00    +0.012 C 
ATOM      9  C   UNL     1      36.204 -20.852 -19.948  0.00  0.00    +0.007 C 
ATOM     10  C   UNL     1      33.790 -20.749 -19.849  0.00  0.00    +0.058 C 
ATOM     11  C   UNL     1      34.988 -21.326 -19.453  0.00  0.00    +0.012 C 
ENDBRANCH   1   4
BRANCH   1  14
ATOM     12  O   UNL     1      34.633 -15.698 -21.072  0.00  0.00    -0.274 OA
ATOM     13  N   UNL     1      33.178 -15.056 -22.807  0.00  0.00    -0.283 N 
ATOM     14  C   UNL     1      34.034 -15.928 -22.118  0.00  0.00    +0.242 C 
ATOM     15  H   UNL     1      32.783 -15.407 -23.637  0.00  0.00    +0.155 HD
BRANCH  13  16
ATOM     16  C   UNL     1      32.816 -13.753 -22.463  0.00  0.00    +0.050 C 
ATOM     17  C   UNL     1      32.775 -11.376 -22.986  0.00  0.00    +0.001 C 
ATOM     18  C   UNL     1      33.133 -12.694 -23.316  0.00  0.00    +0.015 C 
ATOM     19  C   UNL     1      32.087 -11.128 -21.775  0.00  0.00    +0.000 C 
ATOM     20  C   UNL     1      32.139 -13.509 -21.272  0.00  0.00    +0.015 C 
ATOM     21  C   UNL     1      31.776 -12.207 -20.929  0.00  0.00    +0.001 C 
ATOM     22  C   UNL     1      33.086 -10.299 -23.832  0.00  0.00    +0.000 C 
ATOM     23  C   UNL     1      31.730  -9.811 -21.444  0.00  0.00    +0.000 C 
ATOM     24  C   UNL     1      32.725  -8.997 -23.488  0.00  0.00    +0.000 C 
ATOM     25  C   UNL     1      32.048  -8.753 -22.296  0.00  0.00    +0.000 C 
ENDBRANCH  13  16
ENDBRANCH   1  14
BRANCH   1  26
ATOM     26  P   UNL     1      34.560 -17.120 -24.585  0.00  0.00    +0.349 P 
ATOM     27  O   UNL     1      34.925 -18.412 -25.222  0.00  0.00    -0.257 OA
BRANCH  26  28
ATOM     28  O   UNL     1      35.690 -15.976 -24.590  0.00  0.00    -0.323 OA
ATOM     29  H   UNL     1      35.319 -15.154 -24.949  0.00  0.00    +0.220 HD
ENDBRANCH  26  28
BRANCH  26  30
ATOM     30  O   UNL     1      33.252 -16.383 -25.159  0.00  0.00    -0.323 OA
ATOM     31  H   UNL     1      33.451 -15.448 -25.323  0.00  0.00    +0.220 HD
ENDBRANCH  26  30
ENDBRANCH   1  26
TORSDOF 6
ENDMDL
MODEL 7
REMARK VINA RESULT:      -8.4      4.664     10.151
REMARK  Name = 16122567
REMARK  6 active torsions:
REMARK  status: ('A' for Active; 'I' for Inactive)
REMARK    1  A    between atoms: C_1  and  C_4
REMARK    2  A    between atoms: C_1  and  C_14
REMARK    3  A    between atoms: C_1  and  P_26
REMARK    4  A    between atoms: N_13  and  C_16
REMARK    5  A    between atoms: P_26  and  O_28
REMARK    6  A    between atoms: P_26  and  O_30
REMARK                            x       y       z     vdW  Elec       q    Type
REMARK                         _______ _______ _______ _____ _____    ______ ____
ROOT
ATOM      1  C   UNL     1      35.158 -16.545 -23.381  0.00  0.00    +0.203 C 
ENDROOT
BRANCH   1   4
ATOM      2 CL   UNL     1      34.405 -11.245 -25.473  0.00  0.00    -0.082 Cl
ATOM      3  S   UNL     1      32.333 -15.017 -20.982  0.00  0.00    -0.087 S 
ATOM      4  C   UNL     1      34.133 -15.721 -22.660  0.00  0.00    +0.005 C 
ATOM      5  C   UNL     1      33.790 -14.373 -23.018  0.00  0.00    +0.004 C 
ATOM      6  C   UNL     1      32.805 -13.859 -22.170  0.00  0.00    +0.029 C 
ATOM      7  C   UNL     1      33.420 -16.185 -21.580  0.00  0.00    +0.032 C 
ATOM      8  C   UNL     1      34.284 -13.541 -24.052  0.00  0.00    +0.012 C 
ATOM      9  C   UNL     1      32.306 -12.551 -22.327  0.00  0.00    +0.007 C 
ATOM     10  C   UNL     1      33.792 -12.243 -24.211  0.00  0.00    +0.058 C 
ATOM     11  C   UNL     1      32.813 -11.756 -23.356  0.00  0.00    +0.012 C 
ENDBRANCH   1   4
BRANCH   1  14
ATOM     12  O   UNL     1      36.920 -17.835 -22.398  0.00  0.00    -0.274 OA
ATOM     13  N   UNL     1      34.696 -18.359 -21.835  0.00  0.00    -0.283 N 
ATOM     14  C   UNL     1      35.711 -17.647 -22.490  0.00  0.00    +0.242 C 
ATOM     15  H   UNL     1      33.775 -18.068 -22.024  0.00  0.00    +0.155 HD
BRANCH  13  16
ATOM     16  C   UNL     1      34.827 -19.429 -20.948  0.00  0.00    +0.050 C 
ATOM     17  C   UNL     1      33.804 -21.083 -19.486  0.00  0.00    +0.001 C 
ATOM     18  C   UNL     1      33.690 -20.006 -20.380  0.00  0.00    +0.015 C 
ATOM     19  C   UNL     1      35.088 -21.582 -19.163  0.00  0.00    +0.000 C 
ATOM     20  C   UNL     1      36.090 -19.920 -20.631  0.00  0.00    +0.015 C 
ATOM     21  C   UNL     1      36.221 -20.989 -19.745  0.00  0.00    +0.001 C 
ATOM     22  C   UNL     1      32.671 -21.676 -18.905  0.00  0.00    +0.000 C 
ATOM     23  C   UNL     1      35.202 -22.659 -18.269  0.00  0.00    +0.000 C 
ATOM     24  C   UNL     1      32.803 -22.744 -18.018  0.00  0.00    +0.000 C 
ATOM     25  C   UNL     1      34.066 -23.234 -17.700  0.00  0.00    +0.000 C 
ENDBRANCH  13  16
ENDBRANCH   1  14
BRANCH   1  26
ATOM     26  P   UNL     1      34.382 -17.170 -24.896  0.00  0.00    +0.349 P 
ATOM     27  O   UNL     1      33.996 -18.603 -24.815  0.00  0.00    -0.257 OA
BRANCH  26  28
ATOM     28  O   UNL     1      35.467 -16.785 -26.019  0.00  0.00    -0.323 OA
ATOM     29  H   UNL     1      35.015 -16.606 -26.859  0.00  0.00    +0.220 HD
ENDBRANCH  26  28
BRANCH  26  30
ATOM     30  O   UNL     1      33.187 -16.119 -25.126  0.00  0.00    -0.323 OA
ATOM     31  H   UNL     1      33.443 -15.482 -25.811  0.00  0.00    +0.220 HD
ENDBRANCH  26  30
ENDBRANCH   1  26
TORSDOF 6
ENDMDL
MODEL 8
REMARK VINA RESULT:      -8.3      2.721      3.717
REMARK  Name = 16122567
REMARK  6 active torsions:
REMARK  status: ('A' for Active; 'I' for Inactive)
REMARK    1  A    between atoms: C_1  and  C_4
REMARK    2  A    between atoms: C_1  and  C_14
REMARK    3  A    between atoms: C_1  and  P_26
REMARK    4  A    between atoms: N_13  and  C_16
REMARK    5  A    between atoms: P_26  and  O_28
REMARK    6  A    between atoms: P_26  and  O_30
REMARK                            x       y       z     vdW  Elec       q    Type
REMARK                         _______ _______ _______ _____ _____    ______ ____
ROOT
ATOM      1  C   UNL     1      32.712 -13.905 -25.076  0.00  0.00    +0.203 C 
ENDROOT
BRANCH   1   4
ATOM      2 CL   UNL     1      32.691 -15.165 -19.468  0.00  0.00    -0.082 Cl
ATOM      3  S   UNL     1      34.872 -17.278 -24.897  0.00  0.00    -0.087 S 
ATOM      4  C   UNL     1      33.464 -15.149 -24.704  0.00  0.00    +0.005 C 
ATOM      5  C   UNL     1      33.584 -15.644 -23.362  0.00  0.00    +0.004 C 
ATOM      6  C   UNL     1      34.340 -16.819 -23.322  0.00  0.00    +0.029 C 
ATOM      7  C   UNL     1      34.113 -15.938 -25.625  0.00  0.00    +0.032 C 
ATOM      8  C   UNL     1      33.072 -15.135 -22.144  0.00  0.00    +0.012 C 
ATOM      9  C   UNL     1      34.593 -17.491 -22.109  0.00  0.00    +0.007 C 
ATOM     10  C   UNL     1      33.321 -15.799 -20.940  0.00  0.00    +0.058 C 
ATOM     11  C   UNL     1      34.075 -16.964 -20.925  0.00  0.00    +0.012 C 
ENDBRANCH   1   4
BRANCH   1  14
ATOM     12  O   UNL     1      34.210 -12.264 -24.183  0.00  0.00    -0.274 OA
ATOM     13  N   UNL     1      32.001 -12.327 -23.374  0.00  0.00    -0.283 N 
ATOM     14  C   UNL     1      33.080 -12.742 -24.169  0.00  0.00    +0.242 C 
ATOM     15  H   UNL     1      31.160 -12.825 -23.496  0.00  0.00    +0.155 HD
BRANCH  13  16
ATOM     16  C   UNL     1      31.968 -11.298 -22.432  0.00  0.00    +0.050 C 
ATOM     17  C   UNL     1      32.215  -8.940 -21.887  0.00  0.00    +0.001 C 
ATOM     18  C   UNL     1      32.244  -9.987 -22.822  0.00  0.00    +0.015 C 
ATOM     19  C   UNL     1      31.903  -9.226 -20.537  0.00  0.00    +0.000 C 
ATOM     20  C   UNL     1      31.661 -11.580 -21.104  0.00  0.00    +0.015 C 
ATOM     21  C   UNL     1      31.628 -10.552 -20.162  0.00  0.00    +0.001 C 
ATOM     22  C   UNL     1      32.489  -7.615 -22.262  0.00  0.00    +0.000 C 
ATOM     23  C   UNL     1      31.875  -8.179 -19.601  0.00  0.00    +0.000 C 
ATOM     24  C   UNL     1      32.457  -6.587 -21.320  0.00  0.00    +0.000 C 
ATOM     25  C   UNL     1      32.151  -6.869 -19.991  0.00  0.00    +0.000 C 
ENDBRANCH  13  16
ENDBRANCH   1  14
BRANCH   1  26
ATOM     26  P   UNL     1      33.040 -13.578 -26.830  0.00  0.00    +0.349 P 
ATOM     27  O   UNL     1      33.885 -14.616 -27.476  0.00  0.00    -0.257 OA
BRANCH  26  28
ATOM     28  O   UNL     1      33.643 -12.088 -26.792  0.00  0.00    -0.323 OA
ATOM     29  H   UNL     1      34.596 -12.128 -26.618  0.00  0.00    +0.220 HD
ENDBRANCH  26  28
BRANCH  26  30
ATOM     30  O   UNL     1      31.559 -13.390 -27.425  0.00  0.00    -0.323 OA
ATOM     31  H   UNL     1      31.469 -13.904 -28.243  0.00  0.00    +0.220 HD
ENDBRANCH  26  30
ENDBRANCH   1  26
TORSDOF 6
ENDMDL
MODEL 9
REMARK VINA RESULT:      -8.2      3.654      4.902
REMARK  Name = 16122567
REMARK  6 active torsions:
REMARK  status: ('A' for Active; 'I' for Inactive)
REMARK    1  A    between atoms: C_1  and  C_4
REMARK    2  A    between atoms: C_1  and  C_14
REMARK    3  A    between atoms: C_1  and  P_26
REMARK    4  A    between atoms: N_13  and  C_16
REMARK    5  A    between atoms: P_26  and  O_28
REMARK    6  A    between atoms: P_26  and  O_30
REMARK                            x       y       z     vdW  Elec       q    Type
REMARK                         _______ _______ _______ _____ _____    ______ ____
ROOT
ATOM      1  C   UNL     1      32.534  -9.468 -21.432  0.00  0.00    +0.203 C 
ENDROOT
BRANCH   1   4
ATOM      2 CL   UNL     1      35.406 -10.298 -26.341  0.00  0.00    -0.082 Cl
ATOM      3  S   UNL     1      31.958 -13.366 -22.171  0.00  0.00    -0.087 S 
ATOM      4  C   UNL     1      32.491 -10.871 -21.960  0.00  0.00    +0.005 C 
ATOM      5  C   UNL     1      33.140 -11.294 -23.169  0.00  0.00    +0.004 C 
ATOM      6  C   UNL     1      32.927 -12.656 -23.408  0.00  0.00    +0.029 C 
ATOM      7  C   UNL     1      31.820 -11.892 -21.328  0.00  0.00    +0.032 C 
ATOM      8  C   UNL     1      33.921 -10.566 -24.098  0.00  0.00    +0.012 C 
ATOM      9  C   UNL     1      33.469 -13.298 -24.539  0.00  0.00    +0.007 C 
ATOM     10  C   UNL     1      34.459 -11.200 -25.221  0.00  0.00    +0.058 C 
ATOM     11  C   UNL     1      34.234 -12.552 -25.437  0.00  0.00    +0.012 C 
ENDBRANCH   1   4
BRANCH   1  14
ATOM     12  O   UNL     1      30.797  -8.751 -22.916  0.00  0.00    -0.274 OA
ATOM     13  N   UNL     1      32.642  -7.330 -22.576  0.00  0.00    -0.283 N 
ATOM     14  C   UNL     1      31.877  -8.492 -22.395  0.00  0.00    +0.242 C 
ATOM     15  H   UNL     1      33.487  -7.288 -22.073  0.00  0.00    +0.155 HD
BRANCH  13  16
ATOM     16  C   UNL     1      32.357  -6.226 -23.381  0.00  0.00    +0.050 C 
ATOM     17  C   UNL     1      32.631  -5.031 -25.483  0.00  0.00    +0.001 C 
ATOM     18  C   UNL     1      32.908  -6.135 -24.660  0.00  0.00    +0.015 C 
ATOM     19  C   UNL     1      31.784  -4.005 -25.002  0.00  0.00    +0.000 C 
ATOM     20  C   UNL     1      31.524  -5.217 -22.908  0.00  0.00    +0.015 C 
ATOM     21  C   UNL     1      31.238  -4.114 -23.712  0.00  0.00    +0.001 C 
ATOM     22  C   UNL     1      33.176  -4.923 -26.772  0.00  0.00    +0.000 C 
ATOM     23  C   UNL     1      31.507  -2.901 -25.824  0.00  0.00    +0.000 C 
ATOM     24  C   UNL     1      32.891  -3.819 -27.576  0.00  0.00    +0.000 C 
ATOM     25  C   UNL     1      32.058  -2.809 -27.102  0.00  0.00    +0.000 C 
ENDBRANCH  13  16
ENDBRANCH   1  14
BRANCH   1  26
ATOM     26  P   UNL     1      31.762  -9.485 -19.790  0.00  0.00    +0.349 P 
ATOM     27  O   UNL     1      30.522 -10.302 -19.728  0.00  0.00    -0.257 OA
BRANCH  26  28
ATOM     28  O   UNL     1      31.602  -7.916 -19.473  0.00  0.00    -0.323 OA
ATOM     29  H   UNL     1      31.929  -7.399 -20.225  0.00  0.00    +0.220 HD
ENDBRANCH  26  28
BRANCH  26  30
ATOM     30  O   UNL     1      32.977  -9.955 -18.848  0.00  0.00    -0.323 OA
ATOM     31  H   UNL     1      33.727  -9.350 -18.959  0.00  0.00    +0.220 HD
ENDBRANCH  26  30
ENDBRANCH   1  26
TORSDOF 6
ENDMDL
