MODEL 1
REMARK VINA RESULT:     -10.6      0.000      0.000
REMARK  Name = 16750123
REMARK  4 active torsions:
REMARK  status: ('A' for Active; 'I' for Inactive)
REMARK    1  A    between atoms: C_5  and  O_14
REMARK    2  A    between atoms: C_8  and  C_13
REMARK    3  A    between atoms: O_14  and  C_15
REMARK    4  A    between atoms: C_15  and  C_17
REMARK                            x       y       z     vdW  Elec       q    Type
REMARK                         _______ _______ _______ _____ _____    ______ ____
ROOT
ATOM      1  O   UNL     1      34.188 -16.254 -24.777  0.00  0.00    -0.421 OA
ATOM      2  O   UNL     1      33.448 -15.303 -26.722  0.00  0.00    -0.244 OA
ATOM      3  C   UNL     1      33.827 -15.092 -22.660  0.00  0.00    +0.038 C 
ATOM      4  C   UNL     1      34.320 -16.184 -23.376  0.00  0.00    +0.152 C 
ATOM      5  C   UNL     1      35.124 -17.238 -21.372  0.00  0.00    +0.142 C 
ATOM      6  C   UNL     1      34.965 -17.254 -22.753  0.00  0.00    +0.074 C 
ATOM      7  C   UNL     1      33.997 -15.094 -21.270  0.00  0.00    +0.006 C 
ATOM      8  C   UNL     1      33.165 -14.020 -23.404  0.00  0.00    +0.052 C 
ATOM      9  C   UNL     1      34.642 -16.159 -20.631  0.00  0.00    +0.037 C 
ATOM     10  C   UNL     1      33.048 -14.101 -24.735  0.00  0.00    +0.086 C 
ATOM     11  C   UNL     1      33.566 -15.248 -25.503  0.00  0.00    +0.346 C 
ENDROOT
BRANCH   8  13
ATOM     12  O   UNL     1      32.848 -11.688 -23.216  0.00  0.00    -0.283 OA
ATOM     13  C   UNL     1      32.594 -12.809 -22.801  0.00  0.00    +0.234 C 
ENDBRANCH   8  13
BRANCH   5  14
ATOM     14  O   UNL     1      35.748 -18.271 -20.744  0.00  0.00    -0.471 OA
BRANCH  14  15
ATOM     15  C   UNL     1      35.572 -19.572 -21.302  0.00  0.00    +0.232 C 
BRANCH  15  17
ATOM     16 CL   UNL     1      37.126 -22.300 -17.147  0.00  0.00    -0.082 Cl
ATOM     17  C   UNL     1      35.239 -20.537 -20.201  0.00  0.00    +0.022 C 
ATOM     18  C   UNL     1      36.223 -20.923 -19.291  0.00  0.00    +0.011 C 
ATOM     19  C   UNL     1      33.946 -21.050 -20.091  0.00  0.00    -0.001 C 
ATOM     20  C   UNL     1      35.914 -21.822 -18.270  0.00  0.00    +0.057 C 
ATOM     21  C   UNL     1      33.637 -21.948 -19.070  0.00  0.00    +0.001 C 
ATOM     22  C   UNL     1      34.621 -22.334 -18.159  0.00  0.00    +0.011 C 
ENDBRANCH  15  17
ENDBRANCH  14  15
ENDBRANCH   5  14
TORSDOF 4
ENDMDL
MODEL 2
REMARK VINA RESULT:     -10.5      5.535     11.030
REMARK  Name = 16750123
REMARK  4 active torsions:
REMARK  status: ('A' for Active; 'I' for Inactive)
REMARK    1  A    between atoms: C_5  and  O_14
REMARK    2  A    between atoms: C_8  and  C_13
REMARK    3  A    between atoms: O_14  and  C_15
REMARK    4  A    between atoms: C_15  and  C_17
REMARK                            x       y       z     vdW  Elec       q    Type
REMARK                         _______ _______ _______ _____ _____    ______ ____
ROOT
ATOM      1  O   UNL     1      39.556 -24.227 -15.362  0.00  0.00    -0.421 OA
ATOM      2  O   UNL     1      41.034 -25.655 -14.358  0.00  0.00    -0.244 OA
ATOM      3  C   UNL     1      37.273 -24.069 -14.509  0.00  0.00    +0.038 C 
ATOM      4  C   UNL     1      38.258 -23.679 -15.417  0.00  0.00    +0.152 C 
ATOM      5  C   UNL     1      36.757 -22.162 -16.520  0.00  0.00    +0.142 C 
ATOM      6  C   UNL     1      38.019 -22.736 -16.418  0.00  0.00    +0.074 C 
ATOM      7  C   UNL     1      36.008 -23.480 -14.628  0.00  0.00    +0.006 C 
ATOM      8  C   UNL     1      37.623 -25.064 -13.495  0.00  0.00    +0.052 C 
ATOM      9  C   UNL     1      35.752 -22.533 -15.627  0.00  0.00    +0.037 C 
ATOM     10  C   UNL     1      38.859 -25.576 -13.457  0.00  0.00    +0.086 C 
ATOM     11  C   UNL     1      39.908 -25.174 -14.411  0.00  0.00    +0.346 C 
ENDROOT
BRANCH   8  13
ATOM     12  O   UNL     1      37.028 -26.448 -11.677  0.00  0.00    -0.283 OA
ATOM     13  C   UNL     1      36.704 -25.577 -12.471  0.00  0.00    +0.234 C 
ENDBRANCH   8  13
BRANCH   5  14
ATOM     14  O   UNL     1      36.501 -21.240 -17.487  0.00  0.00    -0.471 OA
BRANCH  14  15
ATOM     15  C   UNL     1      36.545 -21.689 -18.841  0.00  0.00    +0.232 C 
BRANCH  15  17
ATOM     16 CL   UNL     1      35.063 -18.199 -22.411  0.00  0.00    -0.082 Cl
ATOM     17  C   UNL     1      35.437 -21.032 -19.612  0.00  0.00    +0.022 C 
ATOM     18  C   UNL     1      35.732 -20.038 -20.545  0.00  0.00    +0.011 C 
ATOM     19  C   UNL     1      34.114 -21.413 -19.392  0.00  0.00    -0.001 C 
ATOM     20  C   UNL     1      34.703 -19.425 -21.260  0.00  0.00    +0.057 C 
ATOM     21  C   UNL     1      33.084 -20.801 -20.106  0.00  0.00    +0.001 C 
ATOM     22  C   UNL     1      33.378 -19.807 -21.041  0.00  0.00    +0.011 C 
ENDBRANCH  15  17
ENDBRANCH  14  15
ENDBRANCH   5  14
TORSDOF 4
ENDMDL
MODEL 3
REMARK VINA RESULT:     -10.4      4.490      8.833
REMARK  Name = 16750123
REMARK  4 active torsions:
REMARK  status: ('A' for Active; 'I' for Inactive)
REMARK    1  A    between atoms: C_5  and  O_14
REMARK    2  A    between atoms: C_8  and  C_13
REMARK    3  A    between atoms: O_14  and  C_15
REMARK    4  A    between atoms: C_15  and  C_17
REMARK                            x       y       z     vdW  Elec       q    Type
REMARK                         _______ _______ _______ _____ _____    ______ ____
ROOT
ATOM      1  O   UNL     1      34.461 -16.286 -20.796  0.00  0.00    -0.421 OA
ATOM      2  O   UNL     1      35.751 -18.167 -20.616  0.00  0.00    -0.244 OA
ATOM      3  C   UNL     1      33.890 -15.431 -23.011  0.00  0.00    +0.038 C 
ATOM      4  C   UNL     1      33.818 -15.341 -21.620  0.00  0.00    +0.152 C 
ATOM      5  C   UNL     1      32.462 -13.360 -21.738  0.00  0.00    +0.142 C 
ATOM      6  C   UNL     1      33.115 -14.322 -20.974  0.00  0.00    +0.074 C 
ATOM      7  C   UNL     1      33.225 -14.454 -23.762  0.00  0.00    +0.006 C 
ATOM      8  C   UNL     1      34.650 -16.537 -23.593  0.00  0.00    +0.052 C 
ATOM      9  C   UNL     1      32.517 -13.426 -23.130  0.00  0.00    +0.037 C 
ATOM     10  C   UNL     1      35.256 -17.427 -22.797  0.00  0.00    +0.086 C 
ATOM     11  C   UNL     1      35.189 -17.341 -21.327  0.00  0.00    +0.346 C 
ENDROOT
BRANCH   8  13
ATOM     12  O   UNL     1      33.959 -17.307 -25.715  0.00  0.00    -0.283 OA
ATOM     13  C   UNL     1      34.820 -16.773 -25.032  0.00  0.00    +0.234 C 
ENDBRANCH   8  13
BRANCH   5  14
ATOM     14  O   UNL     1      31.770 -12.359 -21.129  0.00  0.00    -0.471 OA
BRANCH  14  15
ATOM     15  C   UNL     1      31.200 -11.359 -21.972  0.00  0.00    +0.232 C 
BRANCH  15  17
ATOM     16 CL   UNL     1      34.039  -7.322 -23.636  0.00  0.00    -0.082 Cl
ATOM     17  C   UNL     1      31.852 -10.039 -21.677  0.00  0.00    +0.022 C 
ATOM     18  C   UNL     1      32.559  -9.372 -22.678  0.00  0.00    +0.011 C 
ATOM     19  C   UNL     1      31.756  -9.483 -20.401  0.00  0.00    -0.001 C 
ATOM     20  C   UNL     1      33.167  -8.147 -22.403  0.00  0.00    +0.057 C 
ATOM     21  C   UNL     1      32.364  -8.259 -20.127  0.00  0.00    +0.001 C 
ATOM     22  C   UNL     1      33.070  -7.590 -21.128  0.00  0.00    +0.011 C 
ENDBRANCH  15  17
ENDBRANCH  14  15
ENDBRANCH   5  14
TORSDOF 4
ENDMDL
MODEL 4
REMARK VINA RESULT:     -10.4      3.837      8.858
REMARK  Name = 16750123
REMARK  4 active torsions:
REMARK  status: ('A' for Active; 'I' for Inactive)
REMARK    1  A    between atoms: C_5  and  O_14
REMARK    2  A    between atoms: C_8  and  C_13
REMARK    3  A    between atoms: O_14  and  C_15
REMARK    4  A    between atoms: C_15  and  C_17
REMARK                            x       y       z     vdW  Elec       q    Type
REMARK                         _______ _______ _______ _____ _____    ______ ____
ROOT
ATOM      1  O   UNL     1      32.441 -22.435 -18.145  0.00  0.00    -0.421 OA
ATOM      2  O   UNL     1      31.155 -23.513 -16.591  0.00  0.00    -0.244 OA
ATOM      3  C   UNL     1      34.858 -22.306 -17.821  0.00  0.00    +0.038 C 
ATOM      4  C   UNL     1      33.717 -22.017 -18.572  0.00  0.00    +0.152 C 
ATOM      5  C   UNL     1      35.008 -20.869 -20.242  0.00  0.00    +0.142 C 
ATOM      6  C   UNL     1      33.775 -21.307 -19.772  0.00  0.00    +0.074 C 
ATOM      7  C   UNL     1      36.091 -21.857 -18.310  0.00  0.00    +0.006 C 
ATOM      8  C   UNL     1      34.693 -23.058 -16.577  0.00  0.00    +0.052 C 
ATOM      9  C   UNL     1      36.165 -21.143 -19.512  0.00  0.00    +0.037 C 
ATOM     10  C   UNL     1      33.474 -23.447 -16.185  0.00  0.00    +0.086 C 
ATOM     11  C   UNL     1      32.262 -23.147 -16.968  0.00  0.00    +0.346 C 
ENDROOT
BRANCH   8  13
ATOM     12  O   UNL     1      36.341 -24.529 -15.744  0.00  0.00    -0.283 OA
ATOM     13  C   UNL     1      35.789 -23.441 -15.678  0.00  0.00    +0.234 C 
ENDBRANCH   8  13
BRANCH   5  14
ATOM     14  O   UNL     1      35.088 -20.176 -21.410  0.00  0.00    -0.471 OA
BRANCH  14  15
ATOM     15  C   UNL     1      35.695 -18.885 -21.359  0.00  0.00    +0.232 C 
BRANCH  15  17
ATOM     16 CL   UNL     1      34.338 -14.295 -23.412  0.00  0.00    -0.082 Cl
ATOM     17  C   UNL     1      35.262 -18.092 -22.558  0.00  0.00    +0.022 C 
ATOM     18  C   UNL     1      35.030 -16.722 -22.440  0.00  0.00    +0.011 C 
ATOM     19  C   UNL     1      35.088 -18.727 -23.788  0.00  0.00    -0.001 C 
ATOM     20  C   UNL     1      34.625 -15.986 -23.554  0.00  0.00    +0.057 C 
ATOM     21  C   UNL     1      34.683 -17.991 -24.901  0.00  0.00    +0.001 C 
ATOM     22  C   UNL     1      34.452 -16.620 -24.784  0.00  0.00    +0.011 C 
ENDBRANCH  15  17
ENDBRANCH  14  15
ENDBRANCH   5  14
TORSDOF 4
ENDMDL
MODEL 5
REMARK VINA RESULT:     -10.3      4.517      8.773
REMARK  Name = 16750123
REMARK  4 active torsions:
REMARK  status: ('A' for Active; 'I' for Inactive)
REMARK    1  A    between atoms: C_5  and  O_14
REMARK    2  A    between atoms: C_8  and  C_13
REMARK    3  A    between atoms: O_14  and  C_15
REMARK    4  A    between atoms: C_15  and  C_17
REMARK                            x       y       z     vdW  Elec       q    Type
REMARK                         _______ _______ _______ _____ _____    ______ ____
ROOT
ATOM      1  O   UNL     1      33.776 -15.350 -24.465  0.00  0.00    -0.421 OA
ATOM      2  O   UNL     1      34.878 -16.807 -25.841  0.00  0.00    -0.244 OA
ATOM      3  C   UNL     1      33.933 -15.633 -22.044  0.00  0.00    +0.038 C 
ATOM      4  C   UNL     1      33.448 -14.943 -23.155  0.00  0.00    +0.152 C 
ATOM      5  C   UNL     1      32.265 -13.378 -21.768  0.00  0.00    +0.142 C 
ATOM      6  C   UNL     1      32.621 -13.824 -23.036  0.00  0.00    +0.074 C 
ATOM      7  C   UNL     1      33.564 -15.168 -20.776  0.00  0.00    +0.006 C 
ATOM      8  C   UNL     1      34.795 -16.793 -22.274  0.00  0.00    +0.052 C 
ATOM      9  C   UNL     1      32.735 -14.049 -20.640  0.00  0.00    +0.037 C 
ATOM     10  C   UNL     1      35.096 -17.168 -23.523  0.00  0.00    +0.086 C 
ATOM     11  C   UNL     1      34.589 -16.448 -24.705  0.00  0.00    +0.346 C 
ENDROOT
BRANCH   8  13
ATOM     12  O   UNL     1      34.815 -18.600 -20.755  0.00  0.00    -0.283 OA
ATOM     13  C   UNL     1      35.385 -17.623 -21.215  0.00  0.00    +0.234 C 
ENDBRANCH   8  13
BRANCH   5  14
ATOM     14  O   UNL     1      31.461 -12.289 -21.628  0.00  0.00    -0.471 OA
BRANCH  14  15
ATOM     15  C   UNL     1      31.612 -11.520 -20.436  0.00  0.00    +0.232 C 
BRANCH  15  17
ATOM     16 CL   UNL     1      31.399  -7.800 -24.074  0.00  0.00    -0.082 Cl
ATOM     17  C   UNL     1      31.761 -10.072 -20.802  0.00  0.00    +0.022 C 
ATOM     18  C   UNL     1      31.535  -9.658 -22.115  0.00  0.00    +0.011 C 
ATOM     19  C   UNL     1      32.129  -9.141 -19.830  0.00  0.00    -0.001 C 
ATOM     20  C   UNL     1      31.676  -8.313 -22.456  0.00  0.00    +0.057 C 
ATOM     21  C   UNL     1      32.270  -7.796 -20.171  0.00  0.00    +0.001 C 
ATOM     22  C   UNL     1      32.044  -7.381 -21.484  0.00  0.00    +0.011 C 
ENDBRANCH  15  17
ENDBRANCH  14  15
ENDBRANCH   5  14
TORSDOF 4
ENDMDL
MODEL 6
REMARK VINA RESULT:     -10.3      0.930      2.423
REMARK  Name = 16750123
REMARK  4 active torsions:
REMARK  status: ('A' for Active; 'I' for Inactive)
REMARK    1  A    between atoms: C_5  and  O_14
REMARK    2  A    between atoms: C_8  and  C_13
REMARK    3  A    between atoms: O_14  and  C_15
REMARK    4  A    between atoms: C_15  and  C_17
REMARK                            x       y       z     vdW  Elec       q    Type
REMARK                         _______ _______ _______ _____ _____    ______ ____
ROOT
ATOM      1  O   UNL     1      33.246 -14.414 -21.746  0.00  0.00    -0.421 OA
ATOM      2  O   UNL     1      32.029 -12.548 -22.263  0.00  0.00    -0.244 OA
ATOM      3  C   UNL     1      34.103 -15.824 -23.547  0.00  0.00    +0.038 C 
ATOM      4  C   UNL     1      33.962 -15.546 -22.186  0.00  0.00    +0.152 C 
ATOM      5  C   UNL     1      35.230 -17.492 -21.573  0.00  0.00    +0.142 C 
ATOM      6  C   UNL     1      34.514 -16.361 -21.197  0.00  0.00    +0.074 C 
ATOM      7  C   UNL     1      34.829 -16.966 -23.906  0.00  0.00    +0.006 C 
ATOM      8  C   UNL     1      33.489 -14.907 -24.507  0.00  0.00    +0.052 C 
ATOM      9  C   UNL     1      35.387 -17.795 -22.925  0.00  0.00    +0.037 C 
ATOM     10  C   UNL     1      32.811 -13.836 -24.073  0.00  0.00    +0.086 C 
ATOM     11  C   UNL     1      32.653 -13.533 -22.639  0.00  0.00    +0.346 C 
ENDROOT
BRANCH   8  13
ATOM     12  O   UNL     1      32.757 -15.754 -26.585  0.00  0.00    -0.283 OA
ATOM     13  C   UNL     1      33.547 -15.057 -25.966  0.00  0.00    +0.234 C 
ENDBRANCH   8  13
BRANCH   5  14
ATOM     14  O   UNL     1      35.778 -18.301 -20.626  0.00  0.00    -0.471 OA
BRANCH  14  15
ATOM     15  C   UNL     1      36.118 -19.628 -21.023  0.00  0.00    +0.232 C 
BRANCH  15  17
ATOM     16 CL   UNL     1      37.066 -22.500 -16.783  0.00  0.00    -0.082 Cl
ATOM     17  C   UNL     1      35.618 -20.593 -19.988  0.00  0.00    +0.022 C 
ATOM     18  C   UNL     1      36.475 -21.044 -18.983  0.00  0.00    +0.011 C 
ATOM     19  C   UNL     1      34.298 -21.043 -20.033  0.00  0.00    -0.001 C 
ATOM     20  C   UNL     1      36.011 -21.943 -18.023  0.00  0.00    +0.057 C 
ATOM     21  C   UNL     1      33.834 -21.942 -19.073  0.00  0.00    +0.001 C 
ATOM     22  C   UNL     1      34.691 -22.392 -18.067  0.00  0.00    +0.011 C 
ENDBRANCH  15  17
ENDBRANCH  14  15
ENDBRANCH   5  14
TORSDOF 4
ENDMDL
MODEL 7
REMARK VINA RESULT:     -10.1      5.587      9.500
REMARK  Name = 16750123
REMARK  4 active torsions:
REMARK  status: ('A' for Active; 'I' for Inactive)
REMARK    1  A    between atoms: C_5  and  O_14
REMARK    2  A    between atoms: C_8  and  C_13
REMARK    3  A    between atoms: O_14  and  C_15
REMARK    4  A    between atoms: C_15  and  C_17
REMARK                            x       y       z     vdW  Elec       q    Type
REMARK                         _______ _______ _______ _____ _____    ______ ____
ROOT
ATOM      1  O   UNL     1      30.286 -22.548 -17.232  0.00  0.00    -0.421 OA
ATOM      2  O   UNL     1      28.043 -22.443 -16.794  0.00  0.00    -0.244 OA
ATOM      3  C   UNL     1      31.821 -23.258 -15.470  0.00  0.00    +0.038 C 
ATOM      4  C   UNL     1      31.591 -22.828 -16.778  0.00  0.00    +0.152 C 
ATOM      5  C   UNL     1      33.933 -22.914 -17.305  0.00  0.00    +0.142 C 
ATOM      6  C   UNL     1      32.625 -22.653 -17.699  0.00  0.00    +0.074 C 
ATOM      7  C   UNL     1      33.144 -23.516 -15.093  0.00  0.00    +0.006 C 
ATOM      8  C   UNL     1      30.669 -23.413 -14.581  0.00  0.00    +0.052 C 
ATOM      9  C   UNL     1      34.193 -23.344 -16.004  0.00  0.00    +0.037 C 
ATOM     10  C   UNL     1      29.436 -23.142 -15.028  0.00  0.00    +0.086 C 
ATOM     11  C   UNL     1      29.180 -22.685 -16.406  0.00  0.00    +0.346 C 
ENDROOT
BRANCH   8  13
ATOM     12  O   UNL     1      31.054 -24.995 -12.872  0.00  0.00    -0.283 OA
ATOM     13  C   UNL     1      30.743 -23.855 -13.183  0.00  0.00    +0.234 C 
ENDBRANCH   8  13
BRANCH   5  14
ATOM     14  O   UNL     1      34.957 -22.751 -18.186  0.00  0.00    -0.471 OA
BRANCH  14  15
ATOM     15  C   UNL     1      34.611 -22.557 -19.556  0.00  0.00    +0.232 C 
BRANCH  15  17
ATOM     16 CL   UNL     1      33.889 -17.803 -21.555  0.00  0.00    -0.082 Cl
ATOM     17  C   UNL     1      35.200 -21.262 -20.033  0.00  0.00    +0.022 C 
ATOM     18  C   UNL     1      34.367 -20.252 -20.515  0.00  0.00    +0.011 C 
ATOM     19  C   UNL     1      36.582 -21.070 -19.998  0.00  0.00    -0.001 C 
ATOM     20  C   UNL     1      34.915 -19.049 -20.961  0.00  0.00    +0.057 C 
ATOM     21  C   UNL     1      37.130 -19.867 -20.444  0.00  0.00    +0.001 C 
ATOM     22  C   UNL     1      36.296 -18.856 -20.925  0.00  0.00    +0.011 C 
ENDBRANCH  15  17
ENDBRANCH  14  15
ENDBRANCH   5  14
TORSDOF 4
ENDMDL
MODEL 8
REMARK VINA RESULT:     -10.0      4.322      8.636
REMARK  Name = 16750123
REMARK  4 active torsions:
REMARK  status: ('A' for Active; 'I' for Inactive)
REMARK    1  A    between atoms: C_5  and  O_14
REMARK    2  A    between atoms: C_8  and  C_13
REMARK    3  A    between atoms: O_14  and  C_15
REMARK    4  A    between atoms: C_15  and  C_17
REMARK                            x       y       z     vdW  Elec       q    Type
REMARK                         _______ _______ _______ _____ _____    ______ ____
ROOT
ATOM      1  O   UNL     1      33.743 -15.322 -24.377  0.00  0.00    -0.421 OA
ATOM      2  O   UNL     1      34.713 -16.791 -25.837  0.00  0.00    -0.244 OA
ATOM      3  C   UNL     1      33.949 -15.706 -21.974  0.00  0.00    +0.038 C 
ATOM      4  C   UNL     1      33.477 -14.945 -23.045  0.00  0.00    +0.152 C 
ATOM      5  C   UNL     1      32.432 -13.365 -21.567  0.00  0.00    +0.142 C 
ATOM      6  C   UNL     1      32.725 -13.783 -22.860  0.00  0.00    +0.074 C 
ATOM      7  C   UNL     1      33.644 -15.268 -20.679  0.00  0.00    +0.006 C 
ATOM      8  C   UNL     1      34.730 -16.907 -22.271  0.00  0.00    +0.052 C 
ATOM      9  C   UNL     1      32.891 -14.106 -20.478  0.00  0.00    +0.037 C 
ATOM     10  C   UNL     1      34.973 -17.251 -23.542  0.00  0.00    +0.086 C 
ATOM     11  C   UNL     1      34.479 -16.457 -24.681  0.00  0.00    +0.346 C 
ENDROOT
BRANCH   8  13
ATOM     12  O   UNL     1      35.673 -18.941 -21.531  0.00  0.00    -0.283 OA
ATOM     13  C   UNL     1      35.297 -17.810 -21.261  0.00  0.00    +0.234 C 
ENDBRANCH   8  13
BRANCH   5  14
ATOM     14  O   UNL     1      31.702 -12.235 -21.363  0.00  0.00    -0.471 OA
BRANCH  14  15
ATOM     15  C   UNL     1      31.375 -11.457 -22.513  0.00  0.00    +0.232 C 
BRANCH  15  17
ATOM     16 CL   UNL     1      32.452  -6.975 -20.090  0.00  0.00    -0.082 Cl
ATOM     17  C   UNL     1      32.151 -10.173 -22.474  0.00  0.00    +0.022 C 
ATOM     18  C   UNL     1      31.963  -9.277 -21.421  0.00  0.00    +0.011 C 
ATOM     19  C   UNL     1      33.056  -9.874 -23.492  0.00  0.00    -0.001 C 
ATOM     20  C   UNL     1      32.682  -8.082 -21.386  0.00  0.00    +0.057 C 
ATOM     21  C   UNL     1      33.776  -8.680 -23.457  0.00  0.00    +0.001 C 
ATOM     22  C   UNL     1      33.589  -7.783 -22.404  0.00  0.00    +0.011 C 
ENDBRANCH  15  17
ENDBRANCH  14  15
ENDBRANCH   5  14
TORSDOF 4
ENDMDL
MODEL 9
REMARK VINA RESULT:     -10.0      5.949     11.342
REMARK  Name = 16750123
REMARK  4 active torsions:
REMARK  status: ('A' for Active; 'I' for Inactive)
REMARK    1  A    between atoms: C_5  and  O_14
REMARK    2  A    between atoms: C_8  and  C_13
REMARK    3  A    between atoms: O_14  and  C_15
REMARK    4  A    between atoms: C_15  and  C_17
REMARK                            x       y       z     vdW  Elec       q    Type
REMARK                         _______ _______ _______ _____ _____    ______ ____
ROOT
ATOM      1  O   UNL     1      34.725 -24.296 -12.412  0.00  0.00    -0.421 OA
ATOM      2  O   UNL     1      35.195 -25.045 -10.303  0.00  0.00    -0.244 OA
ATOM      3  C   UNL     1      36.524 -24.130 -14.056  0.00  0.00    +0.038 C 
ATOM      4  C   UNL     1      35.181 -23.979 -13.708  0.00  0.00    +0.152 C 
ATOM      5  C   UNL     1      34.617 -23.183 -15.904  0.00  0.00    +0.142 C 
ATOM      6  C   UNL     1      34.224 -23.512 -14.612  0.00  0.00    +0.074 C 
ATOM      7  C   UNL     1      36.900 -23.794 -15.362  0.00  0.00    +0.006 C 
ATOM      8  C   UNL     1      37.449 -24.628 -13.038  0.00  0.00    +0.052 C 
ATOM      9  C   UNL     1      35.953 -23.323 -16.279  0.00  0.00    +0.037 C 
ATOM     10  C   UNL     1      37.001 -24.924 -11.811  0.00  0.00    +0.086 C 
ATOM     11  C   UNL     1      35.585 -24.768 -11.431  0.00  0.00    +0.346 C 
ENDROOT
BRANCH   8  13
ATOM     12  O   UNL     1      39.365 -25.953 -13.417  0.00  0.00    -0.283 OA
ATOM     13  C   UNL     1      38.887 -24.843 -13.244  0.00  0.00    +0.234 C 
ENDBRANCH   8  13
BRANCH   5  14
ATOM     14  O   UNL     1      33.702 -22.727 -16.802  0.00  0.00    -0.471 OA
BRANCH  14  15
ATOM     15  C   UNL     1      33.836 -23.174 -18.150  0.00  0.00    +0.232 C 
BRANCH  15  17
ATOM     16 CL   UNL     1      36.982 -19.807 -20.575  0.00  0.00    -0.082 Cl
ATOM     17  C   UNL     1      33.993 -21.982 -19.049  0.00  0.00    +0.022 C 
ATOM     18  C   UNL     1      35.267 -21.506 -19.358  0.00  0.00    +0.011 C 
ATOM     19  C   UNL     1      32.864 -21.349 -19.570  0.00  0.00    -0.001 C 
ATOM     20  C   UNL     1      35.412 -20.396 -20.191  0.00  0.00    +0.057 C 
ATOM     21  C   UNL     1      33.010 -20.240 -20.403  0.00  0.00    +0.001 C 
ATOM     22  C   UNL     1      34.284 -19.763 -20.714  0.00  0.00    +0.011 C 
ENDBRANCH  15  17
ENDBRANCH  14  15
ENDBRANCH   5  14
TORSDOF 4
ENDMDL
