MODEL 1
REMARK VINA RESULT:      -5.4      0.000      0.000
REMARK  Name = 445883
REMARK  6 active torsions:
REMARK  status: ('A' for Active; 'I' for Inactive)
REMARK    1  A    between atoms: C_1  and  C_4
REMARK    2  A    between atoms: C_1  and  N_7
REMARK    3  A    between atoms: C_1  and  C_11
REMARK    4  A    between atoms: C_11  and  C_12
REMARK    5  A    between atoms: C_12  and  C_14
REMARK    6  A    between atoms: C_14  and  O_15
REMARK                            x       y       z     vdW  Elec       q    Type
REMARK                         _______ _______ _______ _____ _____    ______ ____
ROOT
ATOM      1  C   UNL     1      38.115 -24.706 -13.517  0.00  0.00    +0.013 C 
ENDROOT
BRANCH   1   4
ATOM      2  O   UNL     1      38.886 -26.670 -14.676  0.00  0.00    -0.278 OA
ATOM      3  N   UNL     1      37.017 -26.889 -13.365  0.00  0.00    -0.330 N 
ATOM      4  C   UNL     1      38.056 -26.173 -13.916  0.00  0.00    +0.199 C 
ATOM      5  H   UNL     1      36.912 -27.845 -13.576  0.00  0.00    +0.145 HD
ATOM      6  H   UNL     1      36.380 -26.445 -12.761  0.00  0.00    +0.145 HD
ENDBRANCH   1   4
BRANCH   1   7
ATOM      7  N   UNL     1      37.032 -24.024 -14.226  0.00  0.00    +0.387 N 
ATOM      8  H   UNL     1      36.134 -24.352 -13.872  0.00  0.00    -0.089 HD
ATOM      9  H   UNL     1      37.100 -24.226 -15.224  0.00  0.00    -0.089 HD
ATOM     10  H   UNL     1      37.109 -23.017 -14.078  0.00  0.00    -0.089 HD
ENDBRANCH   1   7
BRANCH   1  11
ATOM     11  C   UNL     1      37.995 -24.477 -12.006  0.00  0.00    -0.001 C 
BRANCH  11  12
ATOM     12  C   UNL     1      36.794 -23.597 -11.647  0.00  0.00    +0.108 C 
BRANCH  12  14
ATOM     13  O   UNL     1      35.446 -24.506  -9.834  0.00  0.00    -0.250 OA
ATOM     14  C   UNL     1      35.670 -24.399 -11.032  0.00  0.00    +0.314 C 
BRANCH  14  15
ATOM     15  O   UNL     1      34.913 -25.003 -11.986  0.00  0.00    -0.480 OA
ATOM     16  H   UNL     1      33.990 -24.852 -12.016  0.00  0.00    +0.295 HD
ENDBRANCH  14  15
ENDBRANCH  12  14
ENDBRANCH  11  12
ENDBRANCH   1  11
TORSDOF 6
ENDMDL
MODEL 2
REMARK VINA RESULT:      -5.4      1.916      4.603
REMARK  Name = 445883
REMARK  6 active torsions:
REMARK  status: ('A' for Active; 'I' for Inactive)
REMARK    1  A    between atoms: C_1  and  C_4
REMARK    2  A    between atoms: C_1  and  N_7
REMARK    3  A    between atoms: C_1  and  C_11
REMARK    4  A    between atoms: C_11  and  C_12
REMARK    5  A    between atoms: C_12  and  C_14
REMARK    6  A    between atoms: C_14  and  O_15
REMARK                            x       y       z     vdW  Elec       q    Type
REMARK                         _______ _______ _______ _____ _____    ______ ____
ROOT
ATOM      1  C   UNL     1      36.939 -25.628 -12.605  0.00  0.00    +0.013 C 
ENDROOT
BRANCH   1   4
ATOM      2  O   UNL     1      35.412 -25.068 -10.830  0.00  0.00    -0.278 OA
ATOM      3  N   UNL     1      37.087 -23.569 -11.289  0.00  0.00    -0.330 N 
ATOM      4  C   UNL     1      36.396 -24.743 -11.492  0.00  0.00    +0.199 C 
ATOM      5  H   UNL     1      36.797 -22.943 -10.585  0.00  0.00    +0.145 HD
ATOM      6  H   UNL     1      37.869 -23.356 -11.845  0.00  0.00    +0.145 HD
ENDBRANCH   1   4
BRANCH   1   7
ATOM      7  N   UNL     1      36.053 -25.460 -13.757  0.00  0.00    +0.387 N 
ATOM      8  H   UNL     1      35.307 -26.154 -13.716  0.00  0.00    -0.089 HD
ATOM      9  H   UNL     1      36.588 -25.584 -14.617  0.00  0.00    -0.089 HD
ATOM     10  H   UNL     1      35.648 -24.523 -13.742  0.00  0.00    -0.089 HD
ENDBRANCH   1   7
BRANCH   1  11
ATOM     11  C   UNL     1      38.389 -25.309 -12.990  0.00  0.00    -0.001 C 
BRANCH  11  12
ATOM     12  C   UNL     1      38.799 -25.980 -14.304  0.00  0.00    +0.108 C 
BRANCH  12  14
ATOM     13  O   UNL     1      40.871 -24.705 -14.204  0.00  0.00    -0.250 OA
ATOM     14  C   UNL     1      40.129 -25.468 -14.808  0.00  0.00    +0.314 C 
BRANCH  14  15
ATOM     15  O   UNL     1      40.418 -25.966 -16.039  0.00  0.00    -0.480 OA
ATOM     16  H   UNL     1      39.823 -26.555 -16.457  0.00  0.00    +0.295 HD
ENDBRANCH  14  15
ENDBRANCH  12  14
ENDBRANCH  11  12
ENDBRANCH   1  11
TORSDOF 6
ENDMDL
MODEL 3
REMARK VINA RESULT:      -5.3      7.553      8.602
REMARK  Name = 445883
REMARK  6 active torsions:
REMARK  status: ('A' for Active; 'I' for Inactive)
REMARK    1  A    between atoms: C_1  and  C_4
REMARK    2  A    between atoms: C_1  and  N_7
REMARK    3  A    between atoms: C_1  and  C_11
REMARK    4  A    between atoms: C_11  and  C_12
REMARK    5  A    between atoms: C_12  and  C_14
REMARK    6  A    between atoms: C_14  and  O_15
REMARK                            x       y       z     vdW  Elec       q    Type
REMARK                         _______ _______ _______ _____ _____    ______ ____
ROOT
ATOM      1  C   UNL     1      30.323 -25.013 -14.856  0.00  0.00    +0.013 C 
ENDROOT
BRANCH   1   4
ATOM      2  O   UNL     1      30.738 -24.114 -12.663  0.00  0.00    -0.278 OA
ATOM      3  N   UNL     1      32.450 -25.260 -13.672  0.00  0.00    -0.330 N 
ATOM      4  C   UNL     1      31.174 -24.745 -13.625  0.00  0.00    +0.199 C 
ATOM      5  H   UNL     1      33.062 -25.129 -12.911  0.00  0.00    +0.145 HD
ATOM      6  H   UNL     1      32.750 -25.760 -14.464  0.00  0.00    +0.145 HD
ENDBRANCH   1   4
BRANCH   1   7
ATOM      7  N   UNL     1      29.024 -25.495 -14.385  0.00  0.00    +0.387 N 
ATOM      8  H   UNL     1      28.765 -24.996 -13.534  0.00  0.00    -0.089 HD
ATOM      9  H   UNL     1      29.084 -26.494 -14.190  0.00  0.00    -0.089 HD
ATOM     10  H   UNL     1      28.319 -25.332 -15.104  0.00  0.00    -0.089 HD
ENDBRANCH   1   7
BRANCH   1  11
ATOM     11  C   UNL     1      30.145 -23.785 -15.758  0.00  0.00    -0.001 C 
BRANCH  11  12
ATOM     12  C   UNL     1      28.773 -23.129 -15.579  0.00  0.00    +0.108 C 
BRANCH  12  14
ATOM     13  O   UNL     1      27.717 -24.013 -17.587  0.00  0.00    -0.250 OA
ATOM     14  C   UNL     1      28.007 -23.058 -16.881  0.00  0.00    +0.314 C 
BRANCH  14  15
ATOM     15  O   UNL     1      27.664 -21.778 -17.185  0.00  0.00    -0.480 OA
ATOM     16  H   UNL     1      28.228 -21.072 -16.940  0.00  0.00    +0.295 HD
ENDBRANCH  14  15
ENDBRANCH  12  14
ENDBRANCH  11  12
ENDBRANCH   1  11
TORSDOF 6
ENDMDL
MODEL 4
REMARK VINA RESULT:      -5.3      2.195      2.436
REMARK  Name = 445883
REMARK  6 active torsions:
REMARK  status: ('A' for Active; 'I' for Inactive)
REMARK    1  A    between atoms: C_1  and  C_4
REMARK    2  A    between atoms: C_1  and  N_7
REMARK    3  A    between atoms: C_1  and  C_11
REMARK    4  A    between atoms: C_11  and  C_12
REMARK    5  A    between atoms: C_12  and  C_14
REMARK    6  A    between atoms: C_14  and  O_15
REMARK                            x       y       z     vdW  Elec       q    Type
REMARK                         _______ _______ _______ _____ _____    ______ ____
ROOT
ATOM      1  C   UNL     1      36.247 -25.144 -14.990  0.00  0.00    +0.013 C 
ENDROOT
BRANCH   1   4
ATOM      2  O   UNL     1      36.730 -27.224 -16.100  0.00  0.00    -0.278 OA
ATOM      3  N   UNL     1      37.141 -27.115 -13.846  0.00  0.00    -0.330 N 
ATOM      4  C   UNL     1      36.723 -26.588 -15.047  0.00  0.00    +0.199 C 
ATOM      5  H   UNL     1      37.464 -28.044 -13.802  0.00  0.00    +0.145 HD
ATOM      6  H   UNL     1      37.117 -26.563 -13.032  0.00  0.00    +0.145 HD
ENDBRANCH   1   4
BRANCH   1   7
ATOM      7  N   UNL     1      35.133 -25.096 -14.042  0.00  0.00    +0.387 N 
ATOM      8  H   UNL     1      34.430 -24.439 -14.378  0.00  0.00    -0.089 HD
ATOM      9  H   UNL     1      35.476 -24.793 -13.131  0.00  0.00    -0.089 HD
ATOM     10  H   UNL     1      34.719 -26.025 -13.957  0.00  0.00    -0.089 HD
ENDBRANCH   1   7
BRANCH   1  11
ATOM     11  C   UNL     1      37.343 -24.152 -14.581  0.00  0.00    -0.001 C 
BRANCH  11  12
ATOM     12  C   UNL     1      36.983 -23.384 -13.306  0.00  0.00    +0.108 C 
BRANCH  12  14
ATOM     13  O   UNL     1      38.743 -23.207 -11.633  0.00  0.00    -0.250 OA
ATOM     14  C   UNL     1      37.813 -23.831 -12.124  0.00  0.00    +0.314 C 
BRANCH  14  15
ATOM     15  O   UNL     1      37.397 -25.037 -11.654  0.00  0.00    -0.480 OA
ATOM     16  H   UNL     1      36.509 -25.151 -11.379  0.00  0.00    +0.295 HD
ENDBRANCH  14  15
ENDBRANCH  12  14
ENDBRANCH  11  12
ENDBRANCH   1  11
TORSDOF 6
ENDMDL
MODEL 5
REMARK VINA RESULT:      -5.3      1.467      1.622
REMARK  Name = 445883
REMARK  6 active torsions:
REMARK  status: ('A' for Active; 'I' for Inactive)
REMARK    1  A    between atoms: C_1  and  C_4
REMARK    2  A    between atoms: C_1  and  N_7
REMARK    3  A    between atoms: C_1  and  C_11
REMARK    4  A    between atoms: C_11  and  C_12
REMARK    5  A    between atoms: C_12  and  C_14
REMARK    6  A    between atoms: C_14  and  O_15
REMARK                            x       y       z     vdW  Elec       q    Type
REMARK                         _______ _______ _______ _____ _____    ______ ____
ROOT
ATOM      1  C   UNL     1      37.760 -26.046 -14.169  0.00  0.00    +0.013 C 
ENDROOT
BRANCH   1   4
ATOM      2  O   UNL     1      36.755 -27.186 -16.035  0.00  0.00    -0.278 OA
ATOM      3  N   UNL     1      35.429 -25.738 -14.849  0.00  0.00    -0.330 N 
ATOM      4  C   UNL     1      36.615 -26.386 -15.111  0.00  0.00    +0.199 C 
ATOM      5  H   UNL     1      34.641 -25.907 -15.415  0.00  0.00    +0.145 HD
ATOM      6  H   UNL     1      35.369 -25.108 -14.096  0.00  0.00    +0.145 HD
ENDBRANCH   1   4
BRANCH   1   7
ATOM      7  N   UNL     1      38.230 -24.708 -14.529  0.00  0.00    +0.387 N 
ATOM      8  H   UNL     1      39.249 -24.703 -14.559  0.00  0.00    -0.089 HD
ATOM      9  H   UNL     1      37.906 -24.036 -13.834  0.00  0.00    -0.089 HD
ATOM     10  H   UNL     1      37.861 -24.453 -15.445  0.00  0.00    -0.089 HD
ENDBRANCH   1   7
BRANCH   1  11
ATOM     11  C   UNL     1      37.371 -26.098 -12.686  0.00  0.00    -0.001 C 
BRANCH  11  12
ATOM     12  C   UNL     1      37.237 -24.701 -12.073  0.00  0.00    +0.108 C 
BRANCH  12  14
ATOM     13  O   UNL     1      36.026 -24.230 -10.014  0.00  0.00    -0.250 OA
ATOM     14  C   UNL     1      36.020 -24.590 -11.183  0.00  0.00    +0.314 C 
BRANCH  14  15
ATOM     15  O   UNL     1      34.887 -24.941 -11.846  0.00  0.00    -0.480 OA
ATOM     16  H   UNL     1      34.942 -25.301 -12.709  0.00  0.00    +0.295 HD
ENDBRANCH  14  15
ENDBRANCH  12  14
ENDBRANCH  11  12
ENDBRANCH   1  11
TORSDOF 6
ENDMDL
MODEL 6
REMARK VINA RESULT:      -5.2      2.815      4.055
REMARK  Name = 445883
REMARK  6 active torsions:
REMARK  status: ('A' for Active; 'I' for Inactive)
REMARK    1  A    between atoms: C_1  and  C_4
REMARK    2  A    between atoms: C_1  and  N_7
REMARK    3  A    between atoms: C_1  and  C_11
REMARK    4  A    between atoms: C_11  and  C_12
REMARK    5  A    between atoms: C_12  and  C_14
REMARK    6  A    between atoms: C_14  and  O_15
REMARK                            x       y       z     vdW  Elec       q    Type
REMARK                         _______ _______ _______ _____ _____    ______ ____
ROOT
ATOM      1  C   UNL     1      36.530 -24.981 -13.610  0.00  0.00    +0.013 C 
ENDROOT
BRANCH   1   4
ATOM      2  O   UNL     1      35.553 -24.871 -15.807  0.00  0.00    -0.278 OA
ATOM      3  N   UNL     1      36.347 -26.907 -15.110  0.00  0.00    -0.330 N 
ATOM      4  C   UNL     1      36.093 -25.564 -14.946  0.00  0.00    +0.199 C 
ATOM      5  H   UNL     1      36.093 -27.357 -15.949  0.00  0.00    +0.145 HD
ATOM      6  H   UNL     1      36.783 -27.417 -14.390  0.00  0.00    +0.145 HD
ENDBRANCH   1   4
BRANCH   1   7
ATOM      7  N   UNL     1      35.355 -24.973 -12.739  0.00  0.00    +0.387 N 
ATOM      8  H   UNL     1      35.653 -24.871 -11.769  0.00  0.00    -0.089 HD
ATOM      9  H   UNL     1      34.845 -25.849 -12.849  0.00  0.00    -0.089 HD
ATOM     10  H   UNL     1      34.749 -24.193 -12.993  0.00  0.00    -0.089 HD
ENDBRANCH   1   7
BRANCH   1  11
ATOM     11  C   UNL     1      37.682 -25.752 -12.953  0.00  0.00    -0.001 C 
BRANCH  11  12
ATOM     12  C   UNL     1      39.034 -25.064 -13.163  0.00  0.00    +0.108 C 
BRANCH  12  14
ATOM     13  O   UNL     1      39.530 -26.745 -14.854  0.00  0.00    -0.250 OA
ATOM     14  C   UNL     1      39.826 -25.706 -14.279  0.00  0.00    +0.314 C 
BRANCH  14  15
ATOM     15  O   UNL     1      40.933 -24.978 -14.584  0.00  0.00    -0.480 OA
ATOM     16  H   UNL     1      41.769 -25.396 -14.634  0.00  0.00    +0.295 HD
ENDBRANCH  14  15
ENDBRANCH  12  14
ENDBRANCH  11  12
ENDBRANCH   1  11
TORSDOF 6
ENDMDL
MODEL 7
REMARK VINA RESULT:      -5.1      7.575      8.550
REMARK  Name = 445883
REMARK  6 active torsions:
REMARK  status: ('A' for Active; 'I' for Inactive)
REMARK    1  A    between atoms: C_1  and  C_4
REMARK    2  A    between atoms: C_1  and  N_7
REMARK    3  A    between atoms: C_1  and  C_11
REMARK    4  A    between atoms: C_11  and  C_12
REMARK    5  A    between atoms: C_12  and  C_14
REMARK    6  A    between atoms: C_14  and  O_15
REMARK                            x       y       z     vdW  Elec       q    Type
REMARK                         _______ _______ _______ _____ _____    ______ ____
ROOT
ATOM      1  C   UNL     1      30.620 -23.266 -14.283  0.00  0.00    +0.013 C 
ENDROOT
BRANCH   1   4
ATOM      2  O   UNL     1      31.722 -25.090 -13.165  0.00  0.00    -0.278 OA
ATOM      3  N   UNL     1      29.892 -25.597 -14.453  0.00  0.00    -0.330 N 
ATOM      4  C   UNL     1      30.810 -24.727 -13.907  0.00  0.00    +0.199 C 
ATOM      5  H   UNL     1      29.949 -26.560 -14.255  0.00  0.00    +0.145 HD
ATOM      6  H   UNL     1      29.180 -25.255 -15.039  0.00  0.00    +0.145 HD
ENDBRANCH   1   4
BRANCH   1   7
ATOM      7  N   UNL     1      31.933 -22.625 -14.197  0.00  0.00    +0.387 N 
ATOM      8  H   UNL     1      32.411 -22.942 -13.354  0.00  0.00    -0.089 HD
ATOM      9  H   UNL     1      31.815 -21.613 -14.163  0.00  0.00    -0.089 HD
ATOM     10  H   UNL     1      32.487 -22.875 -15.017  0.00  0.00    -0.089 HD
ENDBRANCH   1   7
BRANCH   1  11
ATOM     11  C   UNL     1      30.014 -23.065 -15.678  0.00  0.00    -0.001 C 
BRANCH  11  12
ATOM     12  C   UNL     1      28.602 -22.477 -15.617  0.00  0.00    +0.108 C 
BRANCH  12  14
ATOM     13  O   UNL     1      27.766 -23.733 -17.528  0.00  0.00    -0.250 OA
ATOM     14  C   UNL     1      27.849 -22.679 -16.912  0.00  0.00    +0.314 C 
BRANCH  14  15
ATOM     15  O   UNL     1      27.257 -21.528 -17.327  0.00  0.00    -0.480 OA
ATOM     16  H   UNL     1      27.657 -21.012 -17.998  0.00  0.00    +0.295 HD
ENDBRANCH  14  15
ENDBRANCH  12  14
ENDBRANCH  11  12
ENDBRANCH   1  11
TORSDOF 6
ENDMDL
MODEL 8
REMARK VINA RESULT:      -5.0      1.843      3.904
REMARK  Name = 445883
REMARK  6 active torsions:
REMARK  status: ('A' for Active; 'I' for Inactive)
REMARK    1  A    between atoms: C_1  and  C_4
REMARK    2  A    between atoms: C_1  and  N_7
REMARK    3  A    between atoms: C_1  and  C_11
REMARK    4  A    between atoms: C_11  and  C_12
REMARK    5  A    between atoms: C_12  and  C_14
REMARK    6  A    between atoms: C_14  and  O_15
REMARK                            x       y       z     vdW  Elec       q    Type
REMARK                         _______ _______ _______ _____ _____    ______ ____
ROOT
ATOM      1  C   UNL     1      36.675 -23.793 -12.390  0.00  0.00    +0.013 C 
ENDROOT
BRANCH   1   4
ATOM      2  O   UNL     1      35.372 -25.084 -10.832  0.00  0.00    -0.278 OA
ATOM      3  N   UNL     1      34.477 -24.733 -12.915  0.00  0.00    -0.330 N 
ATOM      4  C   UNL     1      35.458 -24.597 -11.959  0.00  0.00    +0.199 C 
ATOM      5  H   UNL     1      33.658 -25.241 -12.710  0.00  0.00    +0.145 HD
ATOM      6  H   UNL     1      34.594 -24.323 -13.801  0.00  0.00    +0.145 HD
ENDBRANCH   1   4
BRANCH   1   7
ATOM      7  N   UNL     1      37.159 -23.078 -11.209  0.00  0.00    +0.387 N 
ATOM      8  H   UNL     1      36.690 -22.175 -11.143  0.00  0.00    -0.089 HD
ATOM      9  H   UNL     1      38.165 -22.935 -11.287  0.00  0.00    -0.089 HD
ATOM     10  H   UNL     1      36.958 -23.628 -10.373  0.00  0.00    -0.089 HD
ENDBRANCH   1   7
BRANCH   1  11
ATOM     11  C   UNL     1      37.794 -24.649 -12.996  0.00  0.00    -0.001 C 
BRANCH  11  12
ATOM     12  C   UNL     1      37.571 -24.925 -14.485  0.00  0.00    +0.108 C 
BRANCH  12  14
ATOM     13  O   UNL     1      38.164 -27.269 -14.771  0.00  0.00    -0.250 OA
ATOM     14  C   UNL     1      37.314 -26.390 -14.756  0.00  0.00    +0.314 C 
BRANCH  14  15
ATOM     15  O   UNL     1      35.995 -26.628 -14.984  0.00  0.00    -0.480 OA
ATOM     16  H   UNL     1      35.345 -26.157 -14.502  0.00  0.00    +0.295 HD
ENDBRANCH  14  15
ENDBRANCH  12  14
ENDBRANCH  11  12
ENDBRANCH   1  11
TORSDOF 6
ENDMDL
MODEL 9
REMARK VINA RESULT:      -5.0     11.839     12.819
REMARK  Name = 445883
REMARK  6 active torsions:
REMARK  status: ('A' for Active; 'I' for Inactive)
REMARK    1  A    between atoms: C_1  and  C_4
REMARK    2  A    between atoms: C_1  and  N_7
REMARK    3  A    between atoms: C_1  and  C_11
REMARK    4  A    between atoms: C_11  and  C_12
REMARK    5  A    between atoms: C_12  and  C_14
REMARK    6  A    between atoms: C_14  and  O_15
REMARK                            x       y       z     vdW  Elec       q    Type
REMARK                         _______ _______ _______ _____ _____    ______ ____
ROOT
ATOM      1  C   UNL     1      34.543 -18.426 -21.665  0.00  0.00    +0.013 C 
ENDROOT
BRANCH   1   4
ATOM      2  O   UNL     1      35.266 -20.142 -20.139  0.00  0.00    -0.278 OA
ATOM      3  N   UNL     1      33.064 -20.164 -20.782  0.00  0.00    -0.330 N 
ATOM      4  C   UNL     1      34.342 -19.654 -20.789  0.00  0.00    +0.199 C 
ATOM      5  H   UNL     1      32.854 -20.959 -20.238  0.00  0.00    +0.145 HD
ATOM      6  H   UNL     1      32.359 -19.735 -21.318  0.00  0.00    +0.145 HD
ENDBRANCH   1   4
BRANCH   1   7
ATOM      7  N   UNL     1      35.176 -17.403 -20.832  0.00  0.00    +0.387 N 
ATOM      8  H   UNL     1      34.459 -16.795 -20.437  0.00  0.00    -0.089 HD
ATOM      9  H   UNL     1      35.817 -16.851 -21.401  0.00  0.00    -0.089 HD
ATOM     10  H   UNL     1      35.695 -17.852 -20.076  0.00  0.00    -0.089 HD
ENDBRANCH   1   7
BRANCH   1  11
ATOM     11  C   UNL     1      35.387 -18.697 -22.917  0.00  0.00    -0.001 C 
BRANCH  11  12
ATOM     12  C   UNL     1      34.621 -18.394 -24.208  0.00  0.00    +0.108 C 
BRANCH  12  14
ATOM     13  O   UNL     1      34.622 -16.593 -25.847  0.00  0.00    -0.250 OA
ATOM     14  C   UNL     1      34.942 -17.018 -24.745  0.00  0.00    +0.314 C 
BRANCH  14  15
ATOM     15  O   UNL     1      35.644 -16.284 -23.842  0.00  0.00    -0.480 OA
ATOM     16  H   UNL     1      35.876 -16.657 -23.015  0.00  0.00    +0.295 HD
ENDBRANCH  14  15
ENDBRANCH  12  14
ENDBRANCH  11  12
ENDBRANCH   1  11
TORSDOF 6
ENDMDL
