MODEL 1
REMARK VINA RESULT:     -11.0      0.000      0.000
REMARK  Name = 135564558
REMARK  4 active torsions:
REMARK  status: ('A' for Active; 'I' for Inactive)
REMARK    1  A    between atoms: N_2  and  C_27
REMARK    2  A    between atoms: C_6  and  C_13
REMARK    3  A    between atoms: N_12  and  C_19
REMARK    4  A    between atoms: C_19  and  C_22
REMARK                            x       y       z     vdW  Elec       q    Type
REMARK                         _______ _______ _______ _____ _____    ______ ____
ROOT
ATOM      1  O   UNL     1      38.119 -22.042 -15.932  0.00  0.00    -0.274 OA
ATOM      2  N   UNL     1      33.936 -23.640 -15.212  0.00  0.00    -0.189 N 
ATOM      3  N   UNL     1      36.567 -21.979 -17.670  0.00  0.00    -0.262 N 
ATOM      4  N   UNL     1      34.317 -22.788 -17.437  0.00  0.00    -0.378 NA
ATOM      5  N   UNL     1      34.578 -23.815 -14.039  0.00  0.00    -0.178 NA
ATOM      6  C   UNL     1      35.273 -22.246 -18.143  0.00  0.00    +0.161 C 
ATOM      7  C   UNL     1      34.715 -23.072 -16.174  0.00  0.00    +0.194 C 
ATOM      8  C   UNL     1      35.942 -22.863 -15.590  0.00  0.00    +0.187 C 
ATOM      9  C   UNL     1      36.996 -22.264 -16.368  0.00  0.00    +0.241 C 
ATOM     10  C   UNL     1      35.806 -23.337 -14.279  0.00  0.00    +0.109 C 
ATOM     11  H   UNL     1      37.210 -21.566 -18.291  0.00  0.00    +0.157 HD
ENDROOT
BRANCH   6  13
ATOM     12  N   UNL     1      35.682 -19.672 -20.254  0.00  0.00    +0.397 N 
ATOM     13  C   UNL     1      35.049 -21.851 -19.570  0.00  0.00    +0.044 C 
ATOM     14  C   UNL     1      33.826 -20.932 -19.690  0.00  0.00    -0.015 C 
ATOM     15  C   UNL     1      36.222 -21.028 -20.110  0.00  0.00    -0.067 C 
ATOM     16  C   UNL     1      34.286 -19.845 -20.657  0.00  0.00    -0.075 C 
ATOM     17  C   UNL     1      32.577 -21.655 -20.172  0.00  0.00    -0.002 C 
ATOM     18  H   UNL     1      35.751 -19.152 -19.379  0.00  0.00    -0.078 HD
BRANCH  12  19
ATOM     19  C   UNL     1      36.441 -18.867 -21.201  0.00  0.00    +0.025 C 
BRANCH  19  22
ATOM     20  N   UNL     1      35.252 -16.854 -20.550  0.00  0.00    -0.199 NA
ATOM     21  N   UNL     1      35.593 -17.340 -22.886  0.00  0.00    -0.221 NA
ATOM     22  C   UNL     1      35.713 -17.602 -21.571  0.00  0.00    -0.014 C 
ATOM     23  C   UNL     1      34.605 -15.729 -20.917  0.00  0.00    +0.107 C 
ATOM     24  C   UNL     1      34.935 -16.200 -23.182  0.00  0.00    +0.164 C 
ATOM     25  C   UNL     1      34.414 -15.346 -22.230  0.00  0.00    +0.022 C 
ENDBRANCH  19  22
ENDBRANCH  12  19
ENDBRANCH   6  13
BRANCH   2  27
ATOM     26  O   UNL     1      29.738 -24.036 -14.475  0.00  0.00    -0.354 OA
ATOM     27  C   UNL     1      32.488 -24.071 -15.342  0.00  0.00    +0.104 C 
ATOM     28  C   UNL     1      31.998 -24.854 -14.115  0.00  0.00    +0.054 C 
ATOM     29  C   UNL     1      31.548 -22.886 -15.617  0.00  0.00    +0.054 C 
ATOM     30  C   UNL     1      30.522 -25.209 -14.263  0.00  0.00    +0.144 C 
ATOM     31  C   UNL     1      30.099 -23.356 -15.677  0.00  0.00    +0.144 C 
ENDBRANCH   2  27
TORSDOF 4
ENDMDL
MODEL 2
REMARK VINA RESULT:     -10.4      5.420     11.691
REMARK  Name = 135564558
REMARK  4 active torsions:
REMARK  status: ('A' for Active; 'I' for Inactive)
REMARK    1  A    between atoms: N_2  and  C_27
REMARK    2  A    between atoms: C_6  and  C_13
REMARK    3  A    between atoms: N_12  and  C_19
REMARK    4  A    between atoms: C_19  and  C_22
REMARK                            x       y       z     vdW  Elec       q    Type
REMARK                         _______ _______ _______ _____ _____    ______ ____
ROOT
ATOM      1  O   UNL     1      33.296 -15.933 -26.533  0.00  0.00    -0.274 OA
ATOM      2  N   UNL     1      33.690 -11.741 -24.850  0.00  0.00    -0.189 N 
ATOM      3  N   UNL     1      33.919 -15.661 -24.303  0.00  0.00    -0.262 N 
ATOM      4  N   UNL     1      34.166 -13.504 -23.274  0.00  0.00    -0.378 NA
ATOM      5  N   UNL     1      33.324 -11.562 -26.136  0.00  0.00    -0.178 NA
ATOM      6  C   UNL     1      34.206 -14.809 -23.226  0.00  0.00    +0.161 C 
ATOM      7  C   UNL     1      33.813 -13.051 -24.500  0.00  0.00    +0.194 C 
ATOM      8  C   UNL     1      33.509 -13.772 -25.631  0.00  0.00    +0.187 C 
ATOM      9  C   UNL     1      33.551 -15.210 -25.577  0.00  0.00    +0.241 C 
ATOM     10  C   UNL     1      33.216 -12.811 -26.608  0.00  0.00    +0.109 C 
ATOM     11  H   UNL     1      33.979 -16.632 -24.154  0.00  0.00    +0.157 HD
ENDROOT
BRANCH   6  13
ATOM     12  N   UNL     1      34.703 -17.889 -21.994  0.00  0.00    +0.397 N 
ATOM     13  C   UNL     1      34.574 -15.523 -21.962  0.00  0.00    +0.044 C 
ATOM     14  C   UNL     1      33.333 -16.152 -21.316  0.00  0.00    -0.015 C 
ATOM     15  C   UNL     1      35.519 -16.695 -22.241  0.00  0.00    -0.067 C 
ATOM     16  C   UNL     1      33.813 -17.536 -20.888  0.00  0.00    -0.075 C 
ATOM     17  C   UNL     1      32.781 -15.338 -20.156  0.00  0.00    -0.002 C 
ATOM     18  H   UNL     1      34.171 -18.150 -22.825  0.00  0.00    -0.078 HD
BRANCH  12  19
ATOM     19  C   UNL     1      35.508 -19.067 -21.709  0.00  0.00    +0.025 C 
BRANCH  19  22
ATOM     20  N   UNL     1      35.539 -20.708 -19.921  0.00  0.00    -0.199 NA
ATOM     21  N   UNL     1      33.454 -20.143 -20.991  0.00  0.00    -0.221 NA
ATOM     22  C   UNL     1      34.785 -20.038 -20.814  0.00  0.00    -0.014 C 
ATOM     23  C   UNL     1      34.859 -21.569 -19.136  0.00  0.00    +0.107 C 
ATOM     24  C   UNL     1      32.839 -21.022 -20.173  0.00  0.00    +0.164 C 
ATOM     25  C   UNL     1      33.496 -21.770 -19.217  0.00  0.00    +0.022 C 
ENDBRANCH  19  22
ENDBRANCH  12  19
ENDBRANCH   6  13
BRANCH   2  27
ATOM     26  O   UNL     1      33.621  -7.725 -23.367  0.00  0.00    -0.354 OA
ATOM     27  C   UNL     1      33.917 -10.531 -23.964  0.00  0.00    +0.104 C 
ATOM     28  C   UNL     1      34.751  -9.444 -24.660  0.00  0.00    +0.054 C 
ATOM     29  C   UNL     1      32.601  -9.929 -23.447  0.00  0.00    +0.054 C 
ATOM     30  C   UNL     1      34.899  -8.225 -23.756  0.00  0.00    +0.144 C 
ATOM     31  C   UNL     1      32.874  -8.682 -22.614  0.00  0.00    +0.144 C 
ENDBRANCH   2  27
TORSDOF 4
ENDMDL
MODEL 3
REMARK VINA RESULT:      -9.6      6.875     12.512
REMARK  Name = 135564558
REMARK  4 active torsions:
REMARK  status: ('A' for Active; 'I' for Inactive)
REMARK    1  A    between atoms: N_2  and  C_27
REMARK    2  A    between atoms: C_6  and  C_13
REMARK    3  A    between atoms: N_12  and  C_19
REMARK    4  A    between atoms: C_19  and  C_22
REMARK                            x       y       z     vdW  Elec       q    Type
REMARK                         _______ _______ _______ _____ _____    ______ ____
ROOT
ATOM      1  O   UNL     1      35.751 -10.670 -26.321  0.00  0.00    -0.274 OA
ATOM      2  N   UNL     1      33.341  -8.706 -23.019  0.00  0.00    -0.189 N 
ATOM      3  N   UNL     1      34.282 -11.971 -25.063  0.00  0.00    -0.262 N 
ATOM      4  N   UNL     1      32.941 -11.071 -23.285  0.00  0.00    -0.378 NA
ATOM      5  N   UNL     1      34.079  -7.708 -23.547  0.00  0.00    -0.178 NA
ATOM      6  C   UNL     1      33.338 -12.067 -24.029  0.00  0.00    +0.161 C 
ATOM      7  C   UNL     1      33.553  -9.910 -23.620  0.00  0.00    +0.194 C 
ATOM      8  C   UNL     1      34.487  -9.681 -24.602  0.00  0.00    +0.187 C 
ATOM      9  C   UNL     1      34.924 -10.779 -25.425  0.00  0.00    +0.241 C 
ATOM     10  C   UNL     1      34.779  -8.313 -24.516  0.00  0.00    +0.109 C 
ATOM     11  H   UNL     1      34.507 -12.789 -25.562  0.00  0.00    +0.157 HD
ENDROOT
BRANCH   6  13
ATOM     12  N   UNL     1      33.838 -14.865 -22.248  0.00  0.00    +0.397 N 
ATOM     13  C   UNL     1      32.788 -13.446 -23.829  0.00  0.00    +0.044 C 
ATOM     14  C   UNL     1      33.675 -14.487 -24.525  0.00  0.00    -0.015 C 
ATOM     15  C   UNL     1      32.796 -13.838 -22.349  0.00  0.00    -0.067 C 
ATOM     16  C   UNL     1      33.774 -15.615 -23.503  0.00  0.00    -0.075 C 
ATOM     17  C   UNL     1      33.118 -14.953 -25.862  0.00  0.00    -0.002 C 
ATOM     18  H   UNL     1      34.759 -14.445 -22.118  0.00  0.00    -0.078 HD
BRANCH  12  19
ATOM     19  C   UNL     1      33.672 -15.717 -21.080  0.00  0.00    +0.025 C 
BRANCH  19  22
ATOM     20  N   UNL     1      33.413 -18.130 -21.098  0.00  0.00    -0.199 NA
ATOM     21  N   UNL     1      35.537 -17.150 -21.680  0.00  0.00    -0.221 NA
ATOM     22  C   UNL     1      34.246 -17.091 -21.300  0.00  0.00    -0.014 C 
ATOM     23  C   UNL     1      33.959 -19.345 -21.304  0.00  0.00    +0.107 C 
ATOM     24  C   UNL     1      36.018 -18.396 -21.868  0.00  0.00    +0.164 C 
ATOM     25  C   UNL     1      35.269 -19.542 -21.694  0.00  0.00    +0.022 C 
ENDBRANCH  19  22
ENDBRANCH  12  19
ENDBRANCH   6  13
BRANCH   2  27
ATOM     26  O   UNL     1      31.875  -7.874 -19.084  0.00  0.00    -0.354 OA
ATOM     27  C   UNL     1      32.398  -8.410 -21.869  0.00  0.00    +0.104 C 
ATOM     28  C   UNL     1      32.420  -9.510 -20.796  0.00  0.00    +0.054 C 
ATOM     29  C   UNL     1      32.676  -7.043 -21.223  0.00  0.00    +0.054 C 
ATOM     30  C   UNL     1      31.507  -9.139 -19.633  0.00  0.00    +0.144 C 
ATOM     31  C   UNL     1      31.748  -6.816 -20.035  0.00  0.00    +0.144 C 
ENDBRANCH   2  27
TORSDOF 4
ENDMDL
MODEL 4
REMARK VINA RESULT:      -9.6      7.181     13.127
REMARK  Name = 135564558
REMARK  4 active torsions:
REMARK  status: ('A' for Active; 'I' for Inactive)
REMARK    1  A    between atoms: N_2  and  C_27
REMARK    2  A    between atoms: C_6  and  C_13
REMARK    3  A    between atoms: N_12  and  C_19
REMARK    4  A    between atoms: C_19  and  C_22
REMARK                            x       y       z     vdW  Elec       q    Type
REMARK                         _______ _______ _______ _____ _____    ______ ____
ROOT
ATOM      1  O   UNL     1      31.413 -10.786 -18.389  0.00  0.00    -0.274 OA
ATOM      2  N   UNL     1      32.321  -8.169 -21.979  0.00  0.00    -0.189 N 
ATOM      3  N   UNL     1      31.827 -11.793 -20.450  0.00  0.00    -0.262 N 
ATOM      4  N   UNL     1      32.322 -10.537 -22.437  0.00  0.00    -0.378 NA
ATOM      5  N   UNL     1      32.132  -7.304 -20.962  0.00  0.00    -0.178 NA
ATOM      6  C   UNL     1      32.134 -11.669 -21.814  0.00  0.00    +0.161 C 
ATOM      7  C   UNL     1      32.184  -9.472 -21.612  0.00  0.00    +0.194 C 
ATOM      8  C   UNL     1      31.887  -9.455 -20.270  0.00  0.00    +0.187 C 
ATOM      9  C   UNL     1      31.681 -10.704 -19.581  0.00  0.00    +0.241 C 
ATOM     10  C   UNL     1      31.866  -8.100 -19.918  0.00  0.00    +0.109 C 
ATOM     11  H   UNL     1      31.707 -12.699 -20.083  0.00  0.00    +0.157 HD
ENDROOT
BRANCH   6  13
ATOM     12  N   UNL     1      33.349 -14.777 -21.469  0.00  0.00    +0.397 N 
ATOM     13  C   UNL     1      32.240 -12.976 -22.538  0.00  0.00    +0.044 C 
ATOM     14  C   UNL     1      33.655 -13.167 -23.102  0.00  0.00    -0.015 C 
ATOM     15  C   UNL     1      32.025 -14.157 -21.588  0.00  0.00    -0.067 C 
ATOM     16  C   UNL     1      33.975 -14.624 -22.782  0.00  0.00    -0.075 C 
ATOM     17  C   UNL     1      33.755 -12.856 -24.588  0.00  0.00    -0.002 C 
ATOM     18  H   UNL     1      33.904 -14.324 -20.742  0.00  0.00    -0.078 HD
BRANCH  12  19
ATOM     19  C   UNL     1      33.279 -16.167 -21.042  0.00  0.00    +0.025 C 
BRANCH  19  22
ATOM     20  N   UNL     1      35.294 -17.512 -20.909  0.00  0.00    -0.199 NA
ATOM     21  N   UNL     1      34.211 -17.187 -23.037  0.00  0.00    -0.221 NA
ATOM     22  C   UNL     1      34.332 -17.012 -21.708  0.00  0.00    -0.014 C 
ATOM     23  C   UNL     1      36.221 -18.264 -21.538  0.00  0.00    +0.107 C 
ATOM     24  C   UNL     1      35.171 -17.949 -23.601  0.00  0.00    +0.164 C 
ATOM     25  C   UNL     1      36.211 -18.519 -22.895  0.00  0.00    +0.022 C 
ENDBRANCH  19  22
ENDBRANCH  12  19
ENDBRANCH   6  13
BRANCH   2  27
ATOM     26  O   UNL     1      33.648  -5.583 -25.123  0.00  0.00    -0.354 OA
ATOM     27  C   UNL     1      32.649  -7.636 -23.361  0.00  0.00    +0.104 C 
ATOM     28  C   UNL     1      31.837  -6.379 -23.712  0.00  0.00    +0.054 C 
ATOM     29  C   UNL     1      34.150  -7.356 -23.538  0.00  0.00    +0.054 C 
ATOM     30  C   UNL     1      32.246  -5.845 -25.080  0.00  0.00    +0.144 C 
ATOM     31  C   UNL     1      34.423  -6.764 -24.917  0.00  0.00    +0.144 C 
ENDBRANCH   2  27
TORSDOF 4
ENDMDL
MODEL 5
REMARK VINA RESULT:      -9.6      8.305     14.431
REMARK  Name = 135564558
REMARK  4 active torsions:
REMARK  status: ('A' for Active; 'I' for Inactive)
REMARK    1  A    between atoms: N_2  and  C_27
REMARK    2  A    between atoms: C_6  and  C_13
REMARK    3  A    between atoms: N_12  and  C_19
REMARK    4  A    between atoms: C_19  and  C_22
REMARK                            x       y       z     vdW  Elec       q    Type
REMARK                         _______ _______ _______ _____ _____    ______ ____
ROOT
ATOM      1  O   UNL     1      32.228  -9.325 -18.998  0.00  0.00    -0.274 OA
ATOM      2  N   UNL     1      32.150  -6.655 -22.663  0.00  0.00    -0.189 N 
ATOM      3  N   UNL     1      32.215 -10.304 -21.114  0.00  0.00    -0.262 N 
ATOM      4  N   UNL     1      32.175  -9.019 -23.143  0.00  0.00    -0.378 NA
ATOM      5  N   UNL     1      32.151  -5.804 -21.617  0.00  0.00    -0.178 NA
ATOM      6  C   UNL     1      32.196 -10.161 -22.509  0.00  0.00    +0.161 C 
ATOM      7  C   UNL     1      32.171  -7.965 -22.293  0.00  0.00    +0.194 C 
ATOM      8  C   UNL     1      32.187  -7.967 -20.918  0.00  0.00    +0.187 C 
ATOM      9  C   UNL     1      32.213  -9.226 -20.219  0.00  0.00    +0.241 C 
ATOM     10  C   UNL     1      32.174  -6.615 -20.551  0.00  0.00    +0.109 C 
ATOM     11  H   UNL     1      32.231 -11.216 -20.741  0.00  0.00    +0.157 HD
ENDROOT
BRANCH   6  13
ATOM     12  N   UNL     1      32.861 -13.424 -22.108  0.00  0.00    +0.397 N 
ATOM     13  C   UNL     1      32.205 -11.459 -23.258  0.00  0.00    +0.044 C 
ATOM     14  C   UNL     1      33.639 -11.860 -23.625  0.00  0.00    -0.015 C 
ATOM     15  C   UNL     1      31.678 -12.605 -22.389  0.00  0.00    -0.067 C 
ATOM     16  C   UNL     1      33.685 -13.353 -23.315  0.00  0.00    -0.075 C 
ATOM     17  C   UNL     1      33.998 -11.549 -25.070  0.00  0.00    -0.002 C 
ATOM     18  H   UNL     1      33.369 -13.073 -21.295  0.00  0.00    -0.078 HD
BRANCH  12  19
ATOM     19  C   UNL     1      32.520 -14.792 -21.744  0.00  0.00    +0.025 C 
BRANCH  19  22
ATOM     20  N   UNL     1      33.853 -16.038 -23.344  0.00  0.00    -0.199 NA
ATOM     21  N   UNL     1      34.327 -16.225 -20.988  0.00  0.00    -0.221 NA
ATOM     22  C   UNL     1      33.642 -15.749 -22.046  0.00  0.00    -0.014 C 
ATOM     23  C   UNL     1      34.865 -16.898 -23.578  0.00  0.00    +0.107 C 
ATOM     24  C   UNL     1      35.325 -17.080 -21.295  0.00  0.00    +0.164 C 
ATOM     25  C   UNL     1      35.643 -17.457 -22.584  0.00  0.00    +0.022 C 
ENDBRANCH  19  22
ENDBRANCH  12  19
ENDBRANCH   6  13
BRANCH   2  27
ATOM     26  O   UNL     1      32.932  -4.181 -26.068  0.00  0.00    -0.354 OA
ATOM     27  C   UNL     1      32.124  -6.103 -24.075  0.00  0.00    +0.104 C 
ATOM     28  C   UNL     1      31.544  -4.681 -24.137  0.00  0.00    +0.054 C 
ATOM     29  C   UNL     1      33.510  -6.132 -24.739  0.00  0.00    +0.054 C 
ATOM     30  C   UNL     1      31.597  -4.145 -25.564  0.00  0.00    +0.144 C 
ATOM     31  C   UNL     1      33.449  -5.510 -26.130  0.00  0.00    +0.144 C 
ENDBRANCH   2  27
TORSDOF 4
ENDMDL
MODEL 6
REMARK VINA RESULT:      -9.4      5.759      9.954
REMARK  Name = 135564558
REMARK  4 active torsions:
REMARK  status: ('A' for Active; 'I' for Inactive)
REMARK    1  A    between atoms: N_2  and  C_27
REMARK    2  A    between atoms: C_6  and  C_13
REMARK    3  A    between atoms: N_12  and  C_19
REMARK    4  A    between atoms: C_19  and  C_22
REMARK                            x       y       z     vdW  Elec       q    Type
REMARK                         _______ _______ _______ _____ _____    ______ ____
ROOT
ATOM      1  O   UNL     1      33.134 -15.434 -27.113  0.00  0.00    -0.274 OA
ATOM      2  N   UNL     1      34.557 -17.847 -23.548  0.00  0.00    -0.189 N 
ATOM      3  N   UNL     1      33.511 -14.346 -25.086  0.00  0.00    -0.262 N 
ATOM      4  N   UNL     1      34.266 -15.492 -23.115  0.00  0.00    -0.378 NA
ATOM      5  N   UNL     1      34.434 -18.747 -24.546  0.00  0.00    -0.178 NA
ATOM      6  C   UNL     1      33.900 -14.405 -23.739  0.00  0.00    +0.161 C 
ATOM      7  C   UNL     1      34.230 -16.580 -23.921  0.00  0.00    +0.194 C 
ATOM      8  C   UNL     1      33.872 -16.658 -25.246  0.00  0.00    +0.187 C 
ATOM      9  C   UNL     1      33.469 -15.459 -25.936  0.00  0.00    +0.241 C 
ATOM     10  C   UNL     1      34.014 -18.010 -25.583  0.00  0.00    +0.109 C 
ATOM     11  H   UNL     1      33.254 -13.471 -25.456  0.00  0.00    +0.157 HD
ENDROOT
BRANCH   6  13
ATOM     12  N   UNL     1      31.761 -12.121 -22.531  0.00  0.00    +0.397 N 
ATOM     13  C   UNL     1      33.867 -13.084 -23.034  0.00  0.00    +0.044 C 
ATOM     14  C   UNL     1      33.526 -11.957 -24.017  0.00  0.00    -0.015 C 
ATOM     15  C   UNL     1      32.758 -13.044 -21.979  0.00  0.00    -0.067 C 
ATOM     16  C   UNL     1      32.525 -11.100 -23.248  0.00  0.00    -0.075 C 
ATOM     17  C   UNL     1      34.746 -11.168 -24.472  0.00  0.00    -0.002 C 
ATOM     18  H   UNL     1      31.116 -12.605 -23.157  0.00  0.00    -0.078 HD
BRANCH  12  19
ATOM     19  C   UNL     1      30.896 -11.554 -21.506  0.00  0.00    +0.025 C 
BRANCH  19  22
ATOM     20  N   UNL     1      31.826 -10.172 -19.742  0.00  0.00    -0.199 NA
ATOM     21  N   UNL     1      31.383  -9.210 -21.907  0.00  0.00    -0.221 NA
ATOM     22  C   UNL     1      31.402 -10.223 -21.019  0.00  0.00    -0.014 C 
ATOM     23  C   UNL     1      32.271  -8.965 -19.338  0.00  0.00    +0.107 C 
ATOM     24  C   UNL     1      31.842  -8.032 -21.437  0.00  0.00    +0.164 C 
ATOM     25  C   UNL     1      32.303  -7.848 -20.149  0.00  0.00    +0.022 C 
ENDBRANCH  19  22
ENDBRANCH  12  19
ENDBRANCH   6  13
BRANCH   2  27
ATOM     26  O   UNL     1      36.176 -20.278 -20.417  0.00  0.00    -0.354 OA
ATOM     27  C   UNL     1      35.020 -18.309 -22.180  0.00  0.00    +0.104 C 
ATOM     28  C   UNL     1      34.237 -19.532 -21.678  0.00  0.00    +0.054 C 
ATOM     29  C   UNL     1      36.529 -18.602 -22.142  0.00  0.00    +0.054 C 
ATOM     30  C   UNL     1      34.780 -19.997 -20.331  0.00  0.00    +0.144 C 
ATOM     31  C   UNL     1      36.937 -19.122 -20.768  0.00  0.00    +0.144 C 
ENDBRANCH   2  27
TORSDOF 4
ENDMDL
MODEL 7
REMARK VINA RESULT:      -9.2     11.685     17.375
REMARK  Name = 135564558
REMARK  4 active torsions:
REMARK  status: ('A' for Active; 'I' for Inactive)
REMARK    1  A    between atoms: N_2  and  C_27
REMARK    2  A    between atoms: C_6  and  C_13
REMARK    3  A    between atoms: N_12  and  C_19
REMARK    4  A    between atoms: C_19  and  C_22
REMARK                            x       y       z     vdW  Elec       q    Type
REMARK                         _______ _______ _______ _____ _____    ______ ____
ROOT
ATOM      1  O   UNL     1      30.153  -4.544 -22.094  0.00  0.00    -0.274 OA
ATOM      2  N   UNL     1      32.371  -4.518 -26.049  0.00  0.00    -0.189 N 
ATOM      3  N   UNL     1      31.733  -6.205 -22.518  0.00  0.00    -0.262 N 
ATOM      4  N   UNL     1      32.984  -6.319 -24.566  0.00  0.00    -0.378 NA
ATOM      5  N   UNL     1      31.546  -3.453 -26.110  0.00  0.00    -0.178 NA
ATOM      6  C   UNL     1      32.681  -6.776 -23.381  0.00  0.00    +0.161 C 
ATOM      7  C   UNL     1      32.270  -5.212 -24.882  0.00  0.00    +0.194 C 
ATOM      8  C   UNL     1      31.320  -4.558 -24.136  0.00  0.00    +0.187 C 
ATOM      9  C   UNL     1      30.986  -5.061 -22.828  0.00  0.00    +0.241 C 
ATOM     10  C   UNL     1      30.905  -3.484 -24.934  0.00  0.00    +0.109 C 
ATOM     11  H   UNL     1      31.584  -6.633 -21.645  0.00  0.00    +0.157 HD
ENDROOT
BRANCH   6  13
ATOM     12  N   UNL     1      33.701  -9.846 -24.268  0.00  0.00    +0.397 N 
ATOM     13  C   UNL     1      33.354  -7.995 -22.829  0.00  0.00    +0.044 C 
ATOM     14  C   UNL     1      32.327  -9.103 -22.561  0.00  0.00    -0.015 C 
ATOM     15  C   UNL     1      34.335  -8.594 -23.840  0.00  0.00    -0.067 C 
ATOM     16  C   UNL     1      33.012 -10.362 -23.085  0.00  0.00    -0.075 C 
ATOM     17  C   UNL     1      31.934  -9.216 -21.096  0.00  0.00    -0.002 C 
ATOM     18  H   UNL     1      33.046  -9.685 -25.035  0.00  0.00    -0.078 HD
BRANCH  12  19
ATOM     19  C   UNL     1      34.656 -10.797 -24.818  0.00  0.00    +0.025 C 
BRANCH  19  22
ATOM     20  N   UNL     1      33.754 -13.004 -24.368  0.00  0.00    -0.199 NA
ATOM     21  N   UNL     1      33.675 -12.112 -26.606  0.00  0.00    -0.221 NA
ATOM     22  C   UNL     1      33.983 -12.056 -25.296  0.00  0.00    -0.014 C 
ATOM     23  C   UNL     1      33.150 -14.118 -24.831  0.00  0.00    +0.107 C 
ATOM     24  C   UNL     1      33.073 -13.254 -27.000  0.00  0.00    +0.164 C 
ATOM     25  C   UNL     1      32.783 -14.301 -26.149  0.00  0.00    +0.022 C 
ENDBRANCH  19  22
ENDBRANCH  12  19
ENDBRANCH   6  13
BRANCH   2  27
ATOM     26  O   UNL     1      35.009  -4.008 -29.383  0.00  0.00    -0.354 OA
ATOM     27  C   UNL     1      33.281  -4.825 -27.223  0.00  0.00    +0.104 C 
ATOM     28  C   UNL     1      32.741  -4.261 -28.546  0.00  0.00    +0.054 C 
ATOM     29  C   UNL     1      34.719  -4.333 -26.992  0.00  0.00    +0.054 C 
ATOM     30  C   UNL     1      33.719  -4.539 -29.683  0.00  0.00    +0.144 C 
ATOM     31  C   UNL     1      35.581  -4.606 -28.219  0.00  0.00    +0.144 C 
ENDBRANCH   2  27
TORSDOF 4
ENDMDL
MODEL 8
REMARK VINA RESULT:      -9.2      7.214     11.768
REMARK  Name = 135564558
REMARK  4 active torsions:
REMARK  status: ('A' for Active; 'I' for Inactive)
REMARK    1  A    between atoms: N_2  and  C_27
REMARK    2  A    between atoms: C_6  and  C_13
REMARK    3  A    between atoms: N_12  and  C_19
REMARK    4  A    between atoms: C_19  and  C_22
REMARK                            x       y       z     vdW  Elec       q    Type
REMARK                         _______ _______ _______ _____ _____    ______ ____
ROOT
ATOM      1  O   UNL     1      32.266 -13.551 -27.519  0.00  0.00    -0.274 OA
ATOM      2  N   UNL     1      34.265 -16.153 -24.389  0.00  0.00    -0.189 N 
ATOM      3  N   UNL     1      33.091 -12.558 -25.578  0.00  0.00    -0.262 N 
ATOM      4  N   UNL     1      34.173 -13.807 -23.835  0.00  0.00    -0.378 NA
ATOM      5  N   UNL     1      33.905 -17.008 -25.368  0.00  0.00    -0.178 NA
ATOM      6  C   UNL     1      33.738 -12.684 -24.340  0.00  0.00    +0.161 C 
ATOM      7  C   UNL     1      33.928 -14.860 -24.650  0.00  0.00    +0.194 C 
ATOM      8  C   UNL     1      33.308 -14.874 -25.877  0.00  0.00    +0.187 C 
ATOM      9  C   UNL     1      32.830 -13.635 -26.435  0.00  0.00    +0.241 C 
ATOM     10  C   UNL     1      33.319 -16.217 -26.276  0.00  0.00    +0.109 C 
ATOM     11  H   UNL     1      32.805 -11.660 -25.862  0.00  0.00    +0.157 HD
ENDROOT
BRANCH   6  13
ATOM     12  N   UNL     1      32.061  -9.910 -23.478  0.00  0.00    +0.397 N 
ATOM     13  C   UNL     1      33.907 -11.390 -23.603  0.00  0.00    +0.044 C 
ATOM     14  C   UNL     1      34.066 -10.225 -24.589  0.00  0.00    -0.015 C 
ATOM     15  C   UNL     1      32.660 -11.052 -22.781  0.00  0.00    -0.067 C 
ATOM     16  C   UNL     1      33.186  -9.130 -23.994  0.00  0.00    -0.075 C 
ATOM     17  C   UNL     1      35.511  -9.784 -24.769  0.00  0.00    -0.002 C 
ATOM     18  H   UNL     1      31.449 -10.218 -24.235  0.00  0.00    -0.078 HD
BRANCH  12  19
ATOM     19  C   UNL     1      31.186  -9.126 -22.618  0.00  0.00    +0.025 C 
BRANCH  19  22
ATOM     20  N   UNL     1      30.891  -7.231 -24.105  0.00  0.00    -0.199 NA
ATOM     21  N   UNL     1      31.808  -6.892 -21.902  0.00  0.00    -0.221 NA
ATOM     22  C   UNL     1      31.303  -7.651 -22.893  0.00  0.00    -0.014 C 
ATOM     23  C   UNL     1      31.010  -5.905 -24.318  0.00  0.00    +0.107 C 
ATOM     24  C   UNL     1      31.899  -5.575 -22.183  0.00  0.00    +0.164 C 
ATOM     25  C   UNL     1      31.512  -5.019 -23.385  0.00  0.00    +0.022 C 
ENDBRANCH  19  22
ENDBRANCH  12  19
ENDBRANCH   6  13
BRANCH   2  27
ATOM     26  O   UNL     1      35.083 -18.362 -20.814  0.00  0.00    -0.354 OA
ATOM     27  C   UNL     1      34.973 -16.684 -23.157  0.00  0.00    +0.104 C 
ATOM     28  C   UNL     1      34.223 -16.344 -21.859  0.00  0.00    +0.054 C 
ATOM     29  C   UNL     1      35.224 -18.198 -23.234  0.00  0.00    +0.054 C 
ATOM     30  C   UNL     1      34.937 -16.951 -20.656  0.00  0.00    +0.144 C 
ATOM     31  C   UNL     1      35.878 -18.697 -21.951  0.00  0.00    +0.144 C 
ENDBRANCH   2  27
TORSDOF 4
ENDMDL
MODEL 9
REMARK VINA RESULT:      -9.1      5.753      9.836
REMARK  Name = 135564558
REMARK  4 active torsions:
REMARK  status: ('A' for Active; 'I' for Inactive)
REMARK    1  A    between atoms: N_2  and  C_27
REMARK    2  A    between atoms: C_6  and  C_13
REMARK    3  A    between atoms: N_12  and  C_19
REMARK    4  A    between atoms: C_19  and  C_22
REMARK                            x       y       z     vdW  Elec       q    Type
REMARK                         _______ _______ _______ _____ _____    ______ ____
ROOT
ATOM      1  O   UNL     1      33.486 -14.555 -26.604  0.00  0.00    -0.274 OA
ATOM      2  N   UNL     1      34.769 -17.436 -23.346  0.00  0.00    -0.189 N 
ATOM      3  N   UNL     1      32.761 -14.190 -24.419  0.00  0.00    -0.262 N 
ATOM      4  N   UNL     1      33.360 -15.629 -22.591  0.00  0.00    -0.378 NA
ATOM      5  N   UNL     1      35.340 -17.912 -24.471  0.00  0.00    -0.178 NA
ATOM      6  C   UNL     1      32.742 -14.584 -23.072  0.00  0.00    +0.161 C 
ATOM      7  C   UNL     1      34.034 -16.308 -23.549  0.00  0.00    +0.194 C 
ATOM      8  C   UNL     1      34.134 -16.032 -24.893  0.00  0.00    +0.187 C 
ATOM      9  C   UNL     1      33.454 -14.878 -25.423  0.00  0.00    +0.241 C 
ATOM     10  C   UNL     1      34.947 -17.046 -25.414  0.00  0.00    +0.109 C 
ATOM     11  H   UNL     1      32.259 -13.382 -24.673  0.00  0.00    +0.157 HD
ENDROOT
BRANCH   6  13
ATOM     12  N   UNL     1      32.394 -11.364 -22.200  0.00  0.00    +0.397 N 
ATOM     13  C   UNL     1      31.934 -13.689 -22.184  0.00  0.00    +0.044 C 
ATOM     14  C   UNL     1      32.746 -13.278 -20.949  0.00  0.00    -0.015 C 
ATOM     15  C   UNL     1      31.585 -12.375 -22.889  0.00  0.00    -0.067 C 
ATOM     16  C   UNL     1      32.447 -11.790 -20.801  0.00  0.00    -0.075 C 
ATOM     17  C   UNL     1      32.388 -14.075 -19.703  0.00  0.00    -0.002 C 
ATOM     18  H   UNL     1      33.330 -11.304 -22.602  0.00  0.00    -0.078 HD
BRANCH  12  19
ATOM     19  C   UNL     1      31.859 -10.019 -22.354  0.00  0.00    +0.025 C 
BRANCH  19  22
ATOM     20  N   UNL     1      33.910  -9.649 -23.598  0.00  0.00    -0.199 NA
ATOM     21  N   UNL     1      32.626  -7.764 -22.819  0.00  0.00    -0.221 NA
ATOM     22  C   UNL     1      32.866  -9.081 -22.965  0.00  0.00    -0.014 C 
ATOM     23  C   UNL     1      34.792  -8.781 -24.132  0.00  0.00    +0.107 C 
ATOM     24  C   UNL     1      33.548  -6.952 -23.377  0.00  0.00    +0.164 C 
ATOM     25  C   UNL     1      34.663  -7.408 -24.052  0.00  0.00    +0.022 C 
ENDBRANCH  19  22
ENDBRANCH  12  19
ENDBRANCH   6  13
BRANCH   2  27
ATOM     26  O   UNL     1      35.702 -20.507 -20.513  0.00  0.00    -0.354 OA
ATOM     27  C   UNL     1      34.985 -18.163 -22.033  0.00  0.00    +0.104 C 
ATOM     28  C   UNL     1      34.039 -19.362 -21.865  0.00  0.00    +0.054 C 
ATOM     29  C   UNL     1      36.442 -18.617 -21.849  0.00  0.00    +0.054 C 
ATOM     30  C   UNL     1      34.336 -20.098 -20.562  0.00  0.00    +0.144 C 
ATOM     31  C   UNL     1      36.599 -19.397 -20.549  0.00  0.00    +0.144 C 
ENDBRANCH   2  27
TORSDOF 4
ENDMDL
