MODEL 1
REMARK VINA RESULT:      -8.4      0.000      0.000
REMARK  Name = 4886
REMARK  9 active torsions:
REMARK  status: ('A' for Active; 'I' for Inactive)
REMARK    1  A    between atoms: O_1  and  C_2
REMARK    2  A    between atoms: O_1  and  C_13
REMARK    3  A    between atoms: C_5  and  O_8
REMARK    4  A    between atoms: O_8  and  C_9
REMARK    5  A    between atoms: C_9  and  C_10
REMARK    6  A    between atoms: C_10  and  C_11
REMARK    7  A    between atoms: C_13  and  C_14
REMARK    8  A    between atoms: C_14  and  C_15
REMARK    9  A    between atoms: C_15  and  N_17
REMARK                            x       y       z     vdW  Elec       q    Type
REMARK                         _______ _______ _______ _____ _____    ______ ____
ROOT
ATOM      1  O   UNL     1      35.067 -22.938 -17.738  0.00  0.00    -0.476 OA
ENDROOT
BRANCH   1   2
ATOM      2  C   UNL     1      34.824 -22.027 -18.734  0.00  0.00    +0.139 C 
ATOM      3  C   UNL     1      33.514 -21.758 -19.127  0.00  0.00    +0.040 C 
ATOM      4  C   UNL     1      35.887 -21.371 -19.354  0.00  0.00    +0.040 C 
ATOM      5  C   UNL     1      34.328 -20.175 -20.760  0.00  0.00    +0.139 C 
ATOM      6  C   UNL     1      33.266 -20.831 -20.140  0.00  0.00    +0.040 C 
ATOM      7  C   UNL     1      35.640 -20.445 -20.367  0.00  0.00    +0.040 C 
BRANCH   5   8
ATOM      8  O   UNL     1      34.087 -19.272 -21.749  0.00  0.00    -0.475 OA
BRANCH   8   9
ATOM      9  C   UNL     1      34.402 -17.908 -21.473  0.00  0.00    +0.205 C 
BRANCH   9  10
ATOM     10  C   UNL     1      35.243 -17.356 -22.616  0.00  0.00    +0.047 C 
BRANCH  10  11
ATOM     11  C   UNL     1      35.110 -18.208 -23.875  0.00  0.00    +0.004 C 
ATOM     12  C   UNL     1      34.747 -17.362 -25.085  0.00  0.00    +0.000 C 
ENDBRANCH  10  11
ENDBRANCH   9  10
ENDBRANCH   8   9
ENDBRANCH   5   8
ENDBRANCH   1   2
BRANCH   1  13
ATOM     13  C   UNL     1      33.973 -23.276 -16.897  0.00  0.00    +0.203 C 
BRANCH  13  14
ATOM     14  C   UNL     1      34.502 -23.599 -15.506  0.00  0.00    +0.025 C 
BRANCH  14  15
ATOM     15  C   UNL     1      35.974 -23.229 -15.368  0.00  0.00    -0.073 C 
BRANCH  15  17
ATOM     16  O   UNL     1      38.059 -26.707 -14.287  0.00  0.00    -0.358 OA
ATOM     17  N   UNL     1      36.808 -24.427 -15.443  0.00  0.00    +0.390 N 
ATOM     18  C   UNL     1      36.037 -25.623 -15.076  0.00  0.00    -0.045 C 
ATOM     19  C   UNL     1      37.984 -24.299 -14.571  0.00  0.00    -0.045 C 
ATOM     20  C   UNL     1      36.930 -26.858 -15.149  0.00  0.00    +0.119 C 
ATOM     21  C   UNL     1      38.832 -25.565 -14.657  0.00  0.00    +0.119 C 
ATOM     22  H   UNL     1      37.126 -24.527 -16.407  0.00  0.00    -0.079 HD
ENDBRANCH  15  17
ENDBRANCH  14  15
ENDBRANCH  13  14
ENDBRANCH   1  13
TORSDOF 9
ENDMDL
MODEL 2
REMARK VINA RESULT:      -8.4      4.074      9.336
REMARK  Name = 4886
REMARK  9 active torsions:
REMARK  status: ('A' for Active; 'I' for Inactive)
REMARK    1  A    between atoms: O_1  and  C_2
REMARK    2  A    between atoms: O_1  and  C_13
REMARK    3  A    between atoms: C_5  and  O_8
REMARK    4  A    between atoms: O_8  and  C_9
REMARK    5  A    between atoms: C_9  and  C_10
REMARK    6  A    between atoms: C_10  and  C_11
REMARK    7  A    between atoms: C_13  and  C_14
REMARK    8  A    between atoms: C_14  and  C_15
REMARK    9  A    between atoms: C_15  and  N_17
REMARK                            x       y       z     vdW  Elec       q    Type
REMARK                         _______ _______ _______ _____ _____    ______ ____
ROOT
ATOM      1  O   UNL     1      35.419 -18.684 -22.005  0.00  0.00    -0.476 OA
ENDROOT
BRANCH   1   2
ATOM      2  C   UNL     1      34.763 -19.560 -21.180  0.00  0.00    +0.139 C 
ATOM      3  C   UNL     1      33.375 -19.493 -21.057  0.00  0.00    +0.040 C 
ATOM      4  C   UNL     1      35.482 -20.517 -20.464  0.00  0.00    +0.040 C 
ATOM      5  C   UNL     1      33.425 -21.342 -19.501  0.00  0.00    +0.139 C 
ATOM      6  C   UNL     1      32.706 -20.385 -20.218  0.00  0.00    +0.040 C 
ATOM      7  C   UNL     1      34.814 -21.407 -19.625  0.00  0.00    +0.040 C 
BRANCH   5   8
ATOM      8  O   UNL     1      32.773 -22.211 -18.682  0.00  0.00    -0.475 OA
BRANCH   8   9
ATOM      9  C   UNL     1      33.570 -23.165 -17.982  0.00  0.00    +0.205 C 
BRANCH   9  10
ATOM     10  C   UNL     1      33.085 -23.249 -16.542  0.00  0.00    +0.047 C 
BRANCH  10  11
ATOM     11  C   UNL     1      31.567 -23.127 -16.451  0.00  0.00    +0.004 C 
ATOM     12  C   UNL     1      31.112 -22.894 -15.019  0.00  0.00    +0.000 C 
ENDBRANCH  10  11
ENDBRANCH   9  10
ENDBRANCH   8   9
ENDBRANCH   5   8
ENDBRANCH   1   2
BRANCH   1  13
ATOM     13  C   UNL     1      35.187 -18.819 -23.400  0.00  0.00    +0.203 C 
BRANCH  13  14
ATOM     14  C   UNL     1      34.916 -17.442 -23.991  0.00  0.00    +0.025 C 
BRANCH  14  15
ATOM     15  C   UNL     1      35.258 -16.333 -23.002  0.00  0.00    -0.073 C 
BRANCH  15  17
ATOM     16  O   UNL     1      32.620 -13.811 -20.930  0.00  0.00    -0.358 OA
ATOM     17  N   UNL     1      34.038 -15.779 -22.419  0.00  0.00    +0.390 N 
ATOM     18  C   UNL     1      33.745 -14.453 -22.981  0.00  0.00    -0.045 C 
ATOM     19  C   UNL     1      34.152 -15.691 -20.957  0.00  0.00    -0.045 C 
ATOM     20  C   UNL     1      32.475 -13.891 -22.348  0.00  0.00    +0.119 C 
ATOM     21  C   UNL     1      32.873 -15.101 -20.371  0.00  0.00    +0.119 C 
ATOM     22  H   UNL     1      33.269 -16.408 -22.648  0.00  0.00    -0.079 HD
ENDBRANCH  15  17
ENDBRANCH  14  15
ENDBRANCH  13  14
ENDBRANCH   1  13
TORSDOF 9
ENDMDL
MODEL 3
REMARK VINA RESULT:      -8.3      1.167      1.960
REMARK  Name = 4886
REMARK  9 active torsions:
REMARK  status: ('A' for Active; 'I' for Inactive)
REMARK    1  A    between atoms: O_1  and  C_2
REMARK    2  A    between atoms: O_1  and  C_13
REMARK    3  A    between atoms: C_5  and  O_8
REMARK    4  A    between atoms: O_8  and  C_9
REMARK    5  A    between atoms: C_9  and  C_10
REMARK    6  A    between atoms: C_10  and  C_11
REMARK    7  A    between atoms: C_13  and  C_14
REMARK    8  A    between atoms: C_14  and  C_15
REMARK    9  A    between atoms: C_15  and  N_17
REMARK                            x       y       z     vdW  Elec       q    Type
REMARK                         _______ _______ _______ _____ _____    ______ ____
ROOT
ATOM      1  O   UNL     1      34.618 -23.072 -17.986  0.00  0.00    -0.476 OA
ENDROOT
BRANCH   1   2
ATOM      2  C   UNL     1      34.636 -22.050 -18.900  0.00  0.00    +0.139 C 
ATOM      3  C   UNL     1      35.853 -21.541 -19.352  0.00  0.00    +0.040 C 
ATOM      4  C   UNL     1      33.437 -21.520 -19.377  0.00  0.00    +0.040 C 
ATOM      5  C   UNL     1      34.673 -19.971 -20.760  0.00  0.00    +0.139 C 
ATOM      6  C   UNL     1      35.871 -20.501 -20.283  0.00  0.00    +0.040 C 
ATOM      7  C   UNL     1      33.455 -20.481 -20.306  0.00  0.00    +0.040 C 
BRANCH   5   8
ATOM      8  O   UNL     1      34.691 -18.957 -21.667  0.00  0.00    -0.475 OA
BRANCH   8   9
ATOM      9  C   UNL     1      35.352 -17.752 -21.280  0.00  0.00    +0.205 C 
BRANCH   9  10
ATOM     10  C   UNL     1      34.477 -16.567 -21.664  0.00  0.00    +0.047 C 
BRANCH  10  11
ATOM     11  C   UNL     1      34.420 -15.525 -20.551  0.00  0.00    +0.004 C 
ATOM     12  C   UNL     1      33.199 -14.629 -20.689  0.00  0.00    +0.000 C 
ENDBRANCH  10  11
ENDBRANCH   9  10
ENDBRANCH   8   9
ENDBRANCH   5   8
ENDBRANCH   1   2
BRANCH   1  13
ATOM     13  C   UNL     1      33.429 -23.232 -17.225  0.00  0.00    +0.203 C 
BRANCH  13  14
ATOM     14  C   UNL     1      33.803 -23.460 -15.767  0.00  0.00    +0.025 C 
BRANCH  14  15
ATOM     15  C   UNL     1      35.185 -22.898 -15.451  0.00  0.00    -0.073 C 
BRANCH  15  17
ATOM     16  O   UNL     1      37.811 -25.950 -14.265  0.00  0.00    -0.358 OA
ATOM     17  N   UNL     1      36.187 -23.962 -15.493  0.00  0.00    +0.390 N 
ATOM     18  C   UNL     1      35.621 -25.232 -15.021  0.00  0.00    -0.045 C 
ATOM     19  C   UNL     1      37.362 -23.604 -14.687  0.00  0.00    -0.045 C 
ATOM     20  C   UNL     1      36.687 -26.323 -15.063  0.00  0.00    +0.119 C 
ATOM     21  C   UNL     1      38.388 -24.732 -14.738  0.00  0.00    +0.119 C 
ATOM     22  H   UNL     1      36.480 -24.076 -16.463  0.00  0.00    -0.079 HD
ENDBRANCH  15  17
ENDBRANCH  14  15
ENDBRANCH  13  14
ENDBRANCH   1  13
TORSDOF 9
ENDMDL
MODEL 4
REMARK VINA RESULT:      -8.3      1.449      1.948
REMARK  Name = 4886
REMARK  9 active torsions:
REMARK  status: ('A' for Active; 'I' for Inactive)
REMARK    1  A    between atoms: O_1  and  C_2
REMARK    2  A    between atoms: O_1  and  C_13
REMARK    3  A    between atoms: C_5  and  O_8
REMARK    4  A    between atoms: O_8  and  C_9
REMARK    5  A    between atoms: C_9  and  C_10
REMARK    6  A    between atoms: C_10  and  C_11
REMARK    7  A    between atoms: C_13  and  C_14
REMARK    8  A    between atoms: C_14  and  C_15
REMARK    9  A    between atoms: C_15  and  N_17
REMARK                            x       y       z     vdW  Elec       q    Type
REMARK                         _______ _______ _______ _____ _____    ______ ____
ROOT
ATOM      1  O   UNL     1      34.866 -23.117 -17.717  0.00  0.00    -0.476 OA
ENDROOT
BRANCH   1   2
ATOM      2  C   UNL     1      34.713 -22.152 -18.678  0.00  0.00    +0.139 C 
ATOM      3  C   UNL     1      35.836 -21.543 -19.239  0.00  0.00    +0.040 C 
ATOM      4  C   UNL     1      33.436 -21.778 -19.095  0.00  0.00    +0.040 C 
ATOM      5  C   UNL     1      34.403 -20.186 -20.634  0.00  0.00    +0.139 C 
ATOM      6  C   UNL     1      35.681 -20.560 -20.217  0.00  0.00    +0.040 C 
ATOM      7  C   UNL     1      33.280 -20.796 -20.072  0.00  0.00    +0.040 C 
BRANCH   5   8
ATOM      8  O   UNL     1      34.251 -19.227 -21.587  0.00  0.00    -0.475 OA
BRANCH   8   9
ATOM      9  C   UNL     1      34.993 -18.020 -21.418  0.00  0.00    +0.205 C 
BRANCH   9  10
ATOM     10  C   UNL     1      35.367 -17.476 -22.789  0.00  0.00    +0.047 C 
BRANCH  10  11
ATOM     11  C   UNL     1      35.139 -18.511 -23.887  0.00  0.00    +0.004 C 
ATOM     12  C   UNL     1      34.461 -17.895 -25.101  0.00  0.00    +0.000 C 
ENDBRANCH  10  11
ENDBRANCH   9  10
ENDBRANCH   8   9
ENDBRANCH   5   8
ENDBRANCH   1   2
BRANCH   1  13
ATOM     13  C   UNL     1      33.823 -23.241 -16.760  0.00  0.00    +0.203 C 
BRANCH  13  14
ATOM     14  C   UNL     1      34.433 -23.243 -15.365  0.00  0.00    +0.025 C 
BRANCH  14  15
ATOM     15  C   UNL     1      35.867 -23.760 -15.382  0.00  0.00    -0.073 C 
BRANCH  15  17
ATOM     16  O   UNL     1      36.220 -25.626 -11.639  0.00  0.00    -0.358 OA
ATOM     17  N   UNL     1      36.309 -24.077 -14.025  0.00  0.00    +0.390 N 
ATOM     18  C   UNL     1      36.882 -25.428 -13.965  0.00  0.00    -0.045 C 
ATOM     19  C   UNL     1      35.195 -23.960 -13.074  0.00  0.00    -0.045 C 
ATOM     20  C   UNL     1      37.324 -25.741 -12.538  0.00  0.00    +0.119 C 
ATOM     21  C   UNL     1      35.677 -24.305 -11.668  0.00  0.00    +0.119 C 
ATOM     22  H   UNL     1      37.030 -23.404 -13.767  0.00  0.00    -0.079 HD
ENDBRANCH  15  17
ENDBRANCH  14  15
ENDBRANCH  13  14
ENDBRANCH   1  13
TORSDOF 9
ENDMDL
MODEL 5
REMARK VINA RESULT:      -8.2      2.915      4.425
REMARK  Name = 4886
REMARK  9 active torsions:
REMARK  status: ('A' for Active; 'I' for Inactive)
REMARK    1  A    between atoms: O_1  and  C_2
REMARK    2  A    between atoms: O_1  and  C_13
REMARK    3  A    between atoms: C_5  and  O_8
REMARK    4  A    between atoms: O_8  and  C_9
REMARK    5  A    between atoms: C_9  and  C_10
REMARK    6  A    between atoms: C_10  and  C_11
REMARK    7  A    between atoms: C_13  and  C_14
REMARK    8  A    between atoms: C_14  and  C_15
REMARK    9  A    between atoms: C_15  and  N_17
REMARK                            x       y       z     vdW  Elec       q    Type
REMARK                         _______ _______ _______ _____ _____    ______ ____
ROOT
ATOM      1  O   UNL     1      34.648 -22.840 -18.531  0.00  0.00    -0.476 OA
ENDROOT
BRANCH   1   2
ATOM      2  C   UNL     1      34.627 -21.746 -19.357  0.00  0.00    +0.139 C 
ATOM      3  C   UNL     1      35.824 -21.185 -19.801  0.00  0.00    +0.040 C 
ATOM      4  C   UNL     1      33.409 -21.193 -19.752  0.00  0.00    +0.040 C 
ATOM      5  C   UNL     1      34.585 -19.519 -21.037  0.00  0.00    +0.139 C 
ATOM      6  C   UNL     1      35.803 -20.071 -20.642  0.00  0.00    +0.040 C 
ATOM      7  C   UNL     1      33.387 -20.080 -20.591  0.00  0.00    +0.040 C 
BRANCH   5   8
ATOM      8  O   UNL     1      34.564 -18.432 -21.856  0.00  0.00    -0.475 OA
BRANCH   8   9
ATOM      9  C   UNL     1      35.453 -18.443 -22.972  0.00  0.00    +0.205 C 
BRANCH   9  10
ATOM     10  C   UNL     1      34.648 -18.701 -24.238  0.00  0.00    +0.047 C 
BRANCH  10  11
ATOM     11  C   UNL     1      34.664 -17.493 -25.171  0.00  0.00    +0.004 C 
ATOM     12  C   UNL     1      34.308 -16.213 -24.431  0.00  0.00    +0.000 C 
ENDBRANCH  10  11
ENDBRANCH   9  10
ENDBRANCH   8   9
ENDBRANCH   5   8
ENDBRANCH   1   2
BRANCH   1  13
ATOM     13  C   UNL     1      33.447 -23.142 -17.835  0.00  0.00    +0.203 C 
BRANCH  13  14
ATOM     14  C   UNL     1      33.788 -23.493 -16.393  0.00  0.00    +0.025 C 
BRANCH  14  15
ATOM     15  C   UNL     1      32.679 -23.071 -15.437  0.00  0.00    -0.073 C 
BRANCH  15  17
ATOM     16  O   UNL     1      28.814 -24.662 -15.052  0.00  0.00    -0.358 OA
ATOM     17  N   UNL     1      31.475 -23.866 -15.673  0.00  0.00    +0.390 N 
ATOM     18  C   UNL     1      30.325 -22.999 -15.966  0.00  0.00    -0.045 C 
ATOM     19  C   UNL     1      31.179 -24.719 -14.514  0.00  0.00    -0.045 C 
ATOM     20  C   UNL     1      29.079 -23.850 -16.197  0.00  0.00    +0.119 C 
ATOM     21  C   UNL     1      29.914 -25.531 -14.779  0.00  0.00    +0.119 C 
ATOM     22  H   UNL     1      31.649 -24.462 -16.481  0.00  0.00    -0.079 HD
ENDBRANCH  15  17
ENDBRANCH  14  15
ENDBRANCH  13  14
ENDBRANCH   1  13
TORSDOF 9
ENDMDL
MODEL 6
REMARK VINA RESULT:      -8.1      3.474     10.115
REMARK  Name = 4886
REMARK  9 active torsions:
REMARK  status: ('A' for Active; 'I' for Inactive)
REMARK    1  A    between atoms: O_1  and  C_2
REMARK    2  A    between atoms: O_1  and  C_13
REMARK    3  A    between atoms: C_5  and  O_8
REMARK    4  A    between atoms: O_8  and  C_9
REMARK    5  A    between atoms: C_9  and  C_10
REMARK    6  A    between atoms: C_10  and  C_11
REMARK    7  A    between atoms: C_13  and  C_14
REMARK    8  A    between atoms: C_14  and  C_15
REMARK    9  A    between atoms: C_15  and  N_17
REMARK                            x       y       z     vdW  Elec       q    Type
REMARK                         _______ _______ _______ _____ _____    ______ ____
ROOT
ATOM      1  O   UNL     1      34.355 -18.875 -21.959  0.00  0.00    -0.476 OA
ENDROOT
BRANCH   1   2
ATOM      2  C   UNL     1      34.428 -19.865 -21.013  0.00  0.00    +0.139 C 
ATOM      3  C   UNL     1      33.259 -20.394 -20.467  0.00  0.00    +0.040 C 
ATOM      4  C   UNL     1      35.670 -20.340 -20.595  0.00  0.00    +0.040 C 
ATOM      5  C   UNL     1      34.575 -21.876 -19.085  0.00  0.00    +0.139 C 
ATOM      6  C   UNL     1      33.332 -21.400 -19.503  0.00  0.00    +0.040 C 
ATOM      7  C   UNL     1      35.745 -21.346 -19.632  0.00  0.00    +0.040 C 
BRANCH   5   8
ATOM      8  O   UNL     1      34.647 -22.857 -18.145  0.00  0.00    -0.475 OA
BRANCH   8   9
ATOM      9  C   UNL     1      33.421 -23.274 -17.545  0.00  0.00    +0.205 C 
BRANCH   9  10
ATOM     10  C   UNL     1      33.609 -23.341 -16.037  0.00  0.00    +0.047 C 
BRANCH  10  11
ATOM     11  C   UNL     1      35.086 -23.327 -15.652  0.00  0.00    +0.004 C 
ATOM     12  C   UNL     1      35.526 -24.665 -15.081  0.00  0.00    +0.000 C 
ENDBRANCH  10  11
ENDBRANCH   9  10
ENDBRANCH   8   9
ENDBRANCH   5   8
ENDBRANCH   1   2
BRANCH   1  13
ATOM     13  C   UNL     1      34.850 -19.189 -23.254  0.00  0.00    +0.203 C 
BRANCH  13  14
ATOM     14  C   UNL     1      34.952 -17.905 -24.066  0.00  0.00    +0.025 C 
BRANCH  14  15
ATOM     15  C   UNL     1      34.785 -16.672 -23.185  0.00  0.00    -0.073 C 
BRANCH  15  17
ATOM     16  O   UNL     1      33.335 -13.516 -25.541  0.00  0.00    -0.358 OA
ATOM     17  N   UNL     1      33.880 -15.714 -23.819  0.00  0.00    +0.390 N 
ATOM     18  C   UNL     1      33.906 -15.859 -25.280  0.00  0.00    -0.045 C 
ATOM     19  C   UNL     1      34.231 -14.338 -23.443  0.00  0.00    -0.045 C 
ATOM     20  C   UNL     1      32.964 -14.842 -25.919  0.00  0.00    +0.119 C 
ATOM     21  C   UNL     1      33.281 -13.357 -24.124  0.00  0.00    +0.119 C 
ATOM     22  H   UNL     1      32.936 -15.911 -23.488  0.00  0.00    -0.079 HD
ENDBRANCH  15  17
ENDBRANCH  14  15
ENDBRANCH  13  14
ENDBRANCH   1  13
TORSDOF 9
ENDMDL
MODEL 7
REMARK VINA RESULT:      -8.1      6.889     12.319
REMARK  Name = 4886
REMARK  9 active torsions:
REMARK  status: ('A' for Active; 'I' for Inactive)
REMARK    1  A    between atoms: O_1  and  C_2
REMARK    2  A    between atoms: O_1  and  C_13
REMARK    3  A    between atoms: C_5  and  O_8
REMARK    4  A    between atoms: O_8  and  C_9
REMARK    5  A    between atoms: C_9  and  C_10
REMARK    6  A    between atoms: C_10  and  C_11
REMARK    7  A    between atoms: C_13  and  C_14
REMARK    8  A    between atoms: C_14  and  C_15
REMARK    9  A    between atoms: C_15  and  N_17
REMARK                            x       y       z     vdW  Elec       q    Type
REMARK                         _______ _______ _______ _____ _____    ______ ____
ROOT
ATOM      1  O   UNL     1      32.816 -12.745 -23.113  0.00  0.00    -0.476 OA
ENDROOT
BRANCH   1   2
ATOM      2  C   UNL     1      33.387 -13.841 -22.518  0.00  0.00    +0.139 C 
ATOM      3  C   UNL     1      34.292 -14.628 -23.230  0.00  0.00    +0.040 C 
ATOM      4  C   UNL     1      33.062 -14.169 -21.202  0.00  0.00    +0.040 C 
ATOM      5  C   UNL     1      34.548 -16.071 -21.310  0.00  0.00    +0.139 C 
ATOM      6  C   UNL     1      34.873 -15.743 -22.625  0.00  0.00    +0.040 C 
ATOM      7  C   UNL     1      33.642 -15.284 -20.597  0.00  0.00    +0.040 C 
BRANCH   5   8
ATOM      8  O   UNL     1      35.114 -17.159 -20.720  0.00  0.00    -0.475 OA
BRANCH   8   9
ATOM      9  C   UNL     1      35.690 -18.139 -21.582  0.00  0.00    +0.205 C 
BRANCH   9  10
ATOM     10  C   UNL     1      34.658 -19.225 -21.852  0.00  0.00    +0.047 C 
BRANCH  10  11
ATOM     11  C   UNL     1      34.366 -20.047 -20.600  0.00  0.00    +0.004 C 
ATOM     12  C   UNL     1      32.871 -20.218 -20.383  0.00  0.00    +0.000 C 
ENDBRANCH  10  11
ENDBRANCH   9  10
ENDBRANCH   8   9
ENDBRANCH   5   8
ENDBRANCH   1   2
BRANCH   1  13
ATOM     13  C   UNL     1      33.592 -12.071 -24.094  0.00  0.00    +0.203 C 
BRANCH  13  14
ATOM     14  C   UNL     1      33.489 -10.571 -23.858  0.00  0.00    +0.025 C 
BRANCH  14  15
ATOM     15  C   UNL     1      32.200 -10.207 -23.129  0.00  0.00    -0.073 C 
BRANCH  15  17
ATOM     16  O   UNL     1      31.808  -8.336 -19.392  0.00  0.00    -0.358 OA
ATOM     17  N   UNL     1      32.500  -9.709 -21.787  0.00  0.00    +0.390 N 
ATOM     18  C   UNL     1      31.594 -10.303 -20.795  0.00  0.00    -0.045 C 
ATOM     19  C   UNL     1      32.404  -8.243 -21.742  0.00  0.00    -0.045 C 
ATOM     20  C   UNL     1      31.917  -9.760 -19.406  0.00  0.00    +0.119 C 
ATOM     21  C   UNL     1      32.710  -7.748 -20.331  0.00  0.00    +0.119 C 
ATOM     22  H   UNL     1      33.456  -9.980 -21.560  0.00  0.00    -0.079 HD
ENDBRANCH  15  17
ENDBRANCH  14  15
ENDBRANCH  13  14
ENDBRANCH   1  13
TORSDOF 9
ENDMDL
MODEL 8
REMARK VINA RESULT:      -7.8      7.321     12.626
REMARK  Name = 4886
REMARK  9 active torsions:
REMARK  status: ('A' for Active; 'I' for Inactive)
REMARK    1  A    between atoms: O_1  and  C_2
REMARK    2  A    between atoms: O_1  and  C_13
REMARK    3  A    between atoms: C_5  and  O_8
REMARK    4  A    between atoms: O_8  and  C_9
REMARK    5  A    between atoms: C_9  and  C_10
REMARK    6  A    between atoms: C_10  and  C_11
REMARK    7  A    between atoms: C_13  and  C_14
REMARK    8  A    between atoms: C_14  and  C_15
REMARK    9  A    between atoms: C_15  and  N_17
REMARK                            x       y       z     vdW  Elec       q    Type
REMARK                         _______ _______ _______ _____ _____    ______ ____
ROOT
ATOM      1  O   UNL     1      32.008 -13.195 -21.841  0.00  0.00    -0.476 OA
ENDROOT
BRANCH   1   2
ATOM      2  C   UNL     1      32.928 -14.202 -21.980  0.00  0.00    +0.139 C 
ATOM      3  C   UNL     1      33.340 -14.598 -23.253  0.00  0.00    +0.040 C 
ATOM      4  C   UNL     1      33.451 -14.831 -20.851  0.00  0.00    +0.040 C 
ATOM      5  C   UNL     1      34.800 -16.251 -22.266  0.00  0.00    +0.139 C 
ATOM      6  C   UNL     1      34.277 -15.622 -23.395  0.00  0.00    +0.040 C 
ATOM      7  C   UNL     1      34.387 -15.855 -20.993  0.00  0.00    +0.040 C 
BRANCH   5   8
ATOM      8  O   UNL     1      35.713 -17.251 -22.404  0.00  0.00    -0.475 OA
BRANCH   8   9
ATOM      9  C   UNL     1      35.748 -18.244 -21.381  0.00  0.00    +0.205 C 
BRANCH   9  10
ATOM     10  C   UNL     1      34.835 -19.395 -21.782  0.00  0.00    +0.047 C 
BRANCH  10  11
ATOM     11  C   UNL     1      34.329 -20.163 -20.564  0.00  0.00    +0.004 C 
ATOM     12  C   UNL     1      32.812 -20.124 -20.472  0.00  0.00    +0.000 C 
ENDBRANCH  10  11
ENDBRANCH   9  10
ENDBRANCH   8   9
ENDBRANCH   5   8
ENDBRANCH   1   2
BRANCH   1  13
ATOM     13  C   UNL     1      31.902 -12.596 -20.557  0.00  0.00    +0.203 C 
BRANCH  13  14
ATOM     14  C   UNL     1      31.290 -11.210 -20.709  0.00  0.00    +0.025 C 
BRANCH  14  15
ATOM     15  C   UNL     1      31.697 -10.561 -22.027  0.00  0.00    -0.073 C 
BRANCH  15  17
ATOM     16  O   UNL     1      32.016  -6.506 -20.994  0.00  0.00    -0.358 OA
ATOM     17  N   UNL     1      32.249  -9.229 -21.787  0.00  0.00    +0.390 N 
ATOM     18  C   UNL     1      32.103  -8.850 -20.375  0.00  0.00    -0.045 C 
ATOM     19  C   UNL     1      31.596  -8.232 -22.646  0.00  0.00    -0.045 C 
ATOM     20  C   UNL     1      32.675  -7.452 -20.152  0.00  0.00    +0.119 C 
ATOM     21  C   UNL     1      32.180  -6.849 -22.370  0.00  0.00    +0.119 C 
ATOM     22  H   UNL     1      33.242  -9.256 -22.017  0.00  0.00    -0.079 HD
ENDBRANCH  15  17
ENDBRANCH  14  15
ENDBRANCH  13  14
ENDBRANCH   1  13
TORSDOF 9
ENDMDL
MODEL 9
REMARK VINA RESULT:      -7.8      8.441     11.295
REMARK  Name = 4886
REMARK  9 active torsions:
REMARK  status: ('A' for Active; 'I' for Inactive)
REMARK    1  A    between atoms: O_1  and  C_2
REMARK    2  A    between atoms: O_1  and  C_13
REMARK    3  A    between atoms: C_5  and  O_8
REMARK    4  A    between atoms: O_8  and  C_9
REMARK    5  A    between atoms: C_9  and  C_10
REMARK    6  A    between atoms: C_10  and  C_11
REMARK    7  A    between atoms: C_13  and  C_14
REMARK    8  A    between atoms: C_14  and  C_15
REMARK    9  A    between atoms: C_15  and  N_17
REMARK                            x       y       z     vdW  Elec       q    Type
REMARK                         _______ _______ _______ _____ _____    ______ ____
ROOT
ATOM      1  O   UNL     1      32.127 -14.156 -21.500  0.00  0.00    -0.476 OA
ENDROOT
BRANCH   1   2
ATOM      2  C   UNL     1      32.017 -12.790 -21.457  0.00  0.00    +0.139 C 
ATOM      3  C   UNL     1      31.689 -12.155 -20.259  0.00  0.00    +0.040 C 
ATOM      4  C   UNL     1      32.233 -12.036 -22.610  0.00  0.00    +0.040 C 
ATOM      5  C   UNL     1      31.793 -10.011 -21.368  0.00  0.00    +0.139 C 
ATOM      6  C   UNL     1      31.577 -10.765 -20.215  0.00  0.00    +0.040 C 
ATOM      7  C   UNL     1      32.121 -10.647 -22.566  0.00  0.00    +0.040 C 
BRANCH   5   8
ATOM      8  O   UNL     1      31.684  -8.655 -21.325  0.00  0.00    -0.475 OA
BRANCH   8   9
ATOM      9  C   UNL     1      31.947  -7.944 -22.534  0.00  0.00    +0.205 C 
BRANCH   9  10
ATOM     10  C   UNL     1      33.237  -7.154 -22.369  0.00  0.00    +0.047 C 
BRANCH  10  11
ATOM     11  C   UNL     1      34.349  -7.699 -23.262  0.00  0.00    +0.004 C 
ATOM     12  C   UNL     1      34.494  -6.879 -24.534  0.00  0.00    +0.000 C 
ENDBRANCH  10  11
ENDBRANCH   9  10
ENDBRANCH   8   9
ENDBRANCH   5   8
ENDBRANCH   1   2
BRANCH   1  13
ATOM     13  C   UNL     1      33.090 -14.750 -20.641  0.00  0.00    +0.203 C 
BRANCH  13  14
ATOM     14  C   UNL     1      34.428 -14.805 -21.365  0.00  0.00    +0.025 C 
BRANCH  14  15
ATOM     15  C   UNL     1      34.812 -16.237 -21.722  0.00  0.00    -0.073 C 
BRANCH  15  17
ATOM     16  O   UNL     1      34.579 -16.905 -25.859  0.00  0.00    -0.358 OA
ATOM     17  N   UNL     1      34.297 -16.585 -23.045  0.00  0.00    +0.390 N 
ATOM     18  C   UNL     1      35.050 -17.709 -23.619  0.00  0.00    -0.045 C 
ATOM     19  C   UNL     1      34.355 -15.428 -23.948  0.00  0.00    -0.045 C 
ATOM     20  C   UNL     1      34.503 -18.047 -25.004  0.00  0.00    +0.119 C 
ATOM     21  C   UNL     1      33.823 -15.818 -25.325  0.00  0.00    +0.119 C 
ATOM     22  H   UNL     1      33.323 -16.866 -22.937  0.00  0.00    -0.079 HD
ENDBRANCH  15  17
ENDBRANCH  14  15
ENDBRANCH  13  14
ENDBRANCH   1  13
TORSDOF 9
ENDMDL
