MODEL 1
REMARK VINA RESULT:      -9.6      0.000      0.000
REMARK  Name = 46937152
REMARK  3 active torsions:
REMARK  status: ('A' for Active; 'I' for Inactive)
REMARK    1  A    between atoms: N_1  and  C_18
REMARK    2  A    between atoms: C_15  and  O_16
REMARK    3  A    between atoms: C_18  and  C_25
REMARK                            x       y       z     vdW  Elec       q    Type
REMARK                         _______ _______ _______ _____ _____    ______ ____
ROOT
ATOM      1  N   UNL     1      34.940 -17.613 -21.184  0.00  0.00    -0.280 N 
ATOM      2  C   UNL     1      34.180 -16.675 -20.349  0.00  0.00    +0.052 C 
ATOM      3  C   UNL     1      32.774 -16.561 -20.893  0.00  0.00    +0.014 C 
ATOM      4  C   UNL     1      34.900 -18.960 -20.825  0.00  0.00    +0.052 C 
ATOM      5  C   UNL     1      34.903 -15.355 -20.216  0.00  0.00    +0.015 C 
ATOM      6  C   UNL     1      33.682 -19.623 -20.539  0.00  0.00    +0.017 C 
ATOM      7  C   UNL     1      32.259 -15.376 -21.274  0.00  0.00    +0.001 C 
ATOM      8  C   UNL     1      33.008 -14.076 -21.208  0.00  0.00    +0.000 C 
ATOM      9  C   UNL     1      31.959 -17.764 -20.932  0.00  0.00    +0.001 C 
ATOM     10  C   UNL     1      34.374 -14.188 -20.606  0.00  0.00    +0.001 C 
ATOM     11  C   UNL     1      32.337 -19.039 -20.752  0.00  0.00    +0.001 C 
ATOM     12  C   UNL     1      36.100 -19.697 -20.724  0.00  0.00    +0.018 C 
ATOM     13  C   UNL     1      33.714 -20.975 -20.138  0.00  0.00    +0.038 C 
ATOM     14  C   UNL     1      36.110 -21.033 -20.326  0.00  0.00    +0.038 C 
ATOM     15  C   UNL     1      34.916 -21.670 -20.026  0.00  0.00    +0.134 C 
ENDROOT
BRANCH  15  16
ATOM     16  O   UNL     1      34.916 -22.974 -19.636  0.00  0.00    -0.506 OA
ATOM     17  H   UNL     1      34.474 -23.618 -20.154  0.00  0.00    +0.292 HD
ENDBRANCH  15  16
BRANCH   1  18
ATOM     18  C   UNL     1      35.825 -17.178 -22.254  0.00  0.00    +0.152 C 
BRANCH  18  25
ATOM     19  N   UNL     1      34.815 -15.361 -23.528  0.00  0.00    -0.392 NA
ATOM     20  N   UNL     1      33.824 -17.120 -25.421  0.00  0.00    -0.200 NA
ATOM     21  N   UNL     1      32.887 -15.355 -26.591  0.00  0.00    -0.271 NA
ATOM     22  N   UNL     1      33.120 -13.099 -25.816  0.00  0.00    -0.310 NA
ATOM     23  N   UNL     1      34.322 -12.665 -23.828  0.00  0.00    -0.329 N 
ATOM     24  N   UNL     1      31.935 -13.568 -27.779  0.00  0.00    -0.283 N 
ATOM     25  C   UNL     1      35.028 -16.682 -23.428  0.00  0.00    +0.133 C 
ATOM     26  C   UNL     1      34.538 -17.551 -24.363  0.00  0.00    +0.193 C 
ATOM     27  C   UNL     1      34.100 -14.932 -24.587  0.00  0.00    +0.248 C 
ATOM     28  C   UNL     1      33.594 -15.807 -25.549  0.00  0.00    +0.131 C 
ATOM     29  C   UNL     1      33.826 -13.591 -24.782  0.00  0.00    +0.231 C 
ATOM     30  C   UNL     1      32.684 -14.027 -26.674  0.00  0.00    +0.207 C 
ATOM     31  H   UNL     1      34.145 -11.703 -23.937  0.00  0.00    +0.145 HD
ATOM     32  H   UNL     1      34.845 -12.985 -23.057  0.00  0.00    +0.145 HD
ATOM     33  H   UNL     1      31.590 -14.210 -28.441  0.00  0.00    +0.156 HD
ATOM     34  H   UNL     1      31.756 -12.606 -27.887  0.00  0.00    +0.156 HD
ENDBRANCH  18  25
ENDBRANCH   1  18
TORSDOF 3
ENDMDL
MODEL 2
REMARK VINA RESULT:      -9.3      5.132      8.522
REMARK  Name = 46937152
REMARK  3 active torsions:
REMARK  status: ('A' for Active; 'I' for Inactive)
REMARK    1  A    between atoms: N_1  and  C_18
REMARK    2  A    between atoms: C_15  and  O_16
REMARK    3  A    between atoms: C_18  and  C_25
REMARK                            x       y       z     vdW  Elec       q    Type
REMARK                         _______ _______ _______ _____ _____    ______ ____
ROOT
ATOM      1  N   UNL     1      33.113 -23.538 -16.186  0.00  0.00    -0.280 N 
ATOM      2  C   UNL     1      31.875 -23.141 -15.505  0.00  0.00    +0.052 C 
ATOM      3  C   UNL     1      31.299 -24.343 -14.791  0.00  0.00    +0.014 C 
ATOM      4  C   UNL     1      34.300 -23.432 -15.461  0.00  0.00    +0.052 C 
ATOM      5  C   UNL     1      30.917 -22.471 -16.462  0.00  0.00    +0.015 C 
ATOM      6  C   UNL     1      34.422 -23.941 -14.145  0.00  0.00    +0.017 C 
ATOM      7  C   UNL     1      30.056 -24.790 -15.052  0.00  0.00    +0.001 C 
ATOM      8  C   UNL     1      29.134 -24.165 -16.059  0.00  0.00    +0.000 C 
ATOM      9  C   UNL     1      32.105 -24.971 -13.757  0.00  0.00    +0.001 C 
ATOM     10  C   UNL     1      29.685 -22.936 -16.712  0.00  0.00    +0.001 C 
ATOM     11  C   UNL     1      33.401 -24.776 -13.469  0.00  0.00    +0.001 C 
ATOM     12  C   UNL     1      35.418 -22.788 -16.033  0.00  0.00    +0.018 C 
ATOM     13  C   UNL     1      35.635 -23.761 -13.450  0.00  0.00    +0.038 C 
ATOM     14  C   UNL     1      36.609 -22.620 -15.328  0.00  0.00    +0.038 C 
ATOM     15  C   UNL     1      36.715 -23.101 -14.032  0.00  0.00    +0.134 C 
ENDROOT
BRANCH  15  16
ATOM     16  O   UNL     1      37.873 -22.942 -13.336  0.00  0.00    -0.506 OA
ATOM     17  H   UNL     1      37.931 -23.238 -12.449  0.00  0.00    +0.292 HD
ENDBRANCH  15  16
BRANCH   1  18
ATOM     18  C   UNL     1      33.160 -23.889 -17.598  0.00  0.00    +0.152 C 
BRANCH  18  25
ATOM     19  N   UNL     1      34.704 -22.373 -18.722  0.00  0.00    -0.392 NA
ATOM     20  N   UNL     1      32.626 -20.792 -19.639  0.00  0.00    -0.200 NA
ATOM     21  N   UNL     1      34.138 -19.388 -20.689  0.00  0.00    -0.271 NA
ATOM     22  N   UNL     1      36.496 -19.807 -20.573  0.00  0.00    -0.310 NA
ATOM     23  N   UNL     1      37.292 -21.680 -19.371  0.00  0.00    -0.329 N 
ATOM     24  N   UNL     1      35.669 -17.961 -21.752  0.00  0.00    -0.283 N 
ATOM     25  C   UNL     1      33.427 -22.668 -18.435  0.00  0.00    +0.133 C 
ATOM     26  C   UNL     1      32.401 -21.887 -18.888  0.00  0.00    +0.193 C 
ATOM     27  C   UNL     1      34.927 -21.278 -19.474  0.00  0.00    +0.248 C 
ATOM     28  C   UNL     1      33.890 -20.471 -19.944  0.00  0.00    +0.131 C 
ATOM     29  C   UNL     1      36.206 -20.887 -19.826  0.00  0.00    +0.231 C 
ATOM     30  C   UNL     1      35.426 -19.108 -20.966  0.00  0.00    +0.207 C 
ATOM     31  H   UNL     1      38.215 -21.430 -19.604  0.00  0.00    +0.145 HD
ATOM     32  H   UNL     1      37.122 -22.479 -18.823  0.00  0.00    +0.145 HD
ATOM     33  H   UNL     1      34.916 -17.411 -22.068  0.00  0.00    +0.156 HD
ATOM     34  H   UNL     1      36.592 -17.711 -21.984  0.00  0.00    +0.156 HD
ENDBRANCH  18  25
ENDBRANCH   1  18
TORSDOF 3
ENDMDL
MODEL 3
REMARK VINA RESULT:      -8.8      8.312     11.913
REMARK  Name = 46937152
REMARK  3 active torsions:
REMARK  status: ('A' for Active; 'I' for Inactive)
REMARK    1  A    between atoms: N_1  and  C_18
REMARK    2  A    between atoms: C_15  and  O_16
REMARK    3  A    between atoms: C_18  and  C_25
REMARK                            x       y       z     vdW  Elec       q    Type
REMARK                         _______ _______ _______ _____ _____    ______ ____
ROOT
ATOM      1  N   UNL     1      33.547 -23.187 -15.590  0.00  0.00    -0.280 N 
ATOM      2  C   UNL     1      32.484 -24.197 -15.634  0.00  0.00    +0.052 C 
ATOM      3  C   UNL     1      31.145 -23.499 -15.710  0.00  0.00    +0.014 C 
ATOM      4  C   UNL     1      34.062 -22.752 -16.811  0.00  0.00    +0.052 C 
ATOM      5  C   UNL     1      32.611 -25.172 -14.487  0.00  0.00    +0.015 C 
ATOM      6  C   UNL     1      33.222 -22.358 -17.881  0.00  0.00    +0.017 C 
ATOM      7  C   UNL     1      30.188 -23.705 -14.784  0.00  0.00    +0.001 C 
ATOM      8  C   UNL     1      30.346 -24.619 -13.603  0.00  0.00    +0.000 C 
ATOM      9  C   UNL     1      30.887 -22.642 -16.855  0.00  0.00    +0.001 C 
ATOM     10  C   UNL     1      31.648 -25.357 -13.573  0.00  0.00    +0.001 C 
ATOM     11  C   UNL     1      31.752 -22.194 -17.779  0.00  0.00    +0.001 C 
ATOM     12  C   UNL     1      35.459 -22.710 -17.010  0.00  0.00    +0.018 C 
ATOM     13  C   UNL     1      33.805 -21.971 -19.105  0.00  0.00    +0.038 C 
ATOM     14  C   UNL     1      36.015 -22.325 -18.229  0.00  0.00    +0.038 C 
ATOM     15  C   UNL     1      35.187 -21.962 -19.280  0.00  0.00    +0.134 C 
ENDROOT
BRANCH  15  16
ATOM     16  O   UNL     1      35.721 -21.585 -20.473  0.00  0.00    -0.506 OA
ATOM     17  H   UNL     1      36.357 -22.129 -20.895  0.00  0.00    +0.292 HD
ENDBRANCH  15  16
BRANCH   1  18
ATOM     18  C   UNL     1      34.165 -22.745 -14.349  0.00  0.00    +0.152 C 
BRANCH  18  25
ATOM     19  N   UNL     1      35.739 -24.586 -14.627  0.00  0.00    -0.392 NA
ATOM     20  N   UNL     1      37.811 -23.096 -13.558  0.00  0.00    -0.200 NA
ATOM     21  N   UNL     1      39.262 -24.877 -13.848  0.00  0.00    -0.271 NA
ATOM     22  N   UNL     1      38.503 -26.944 -14.797  0.00  0.00    -0.310 NA
ATOM     23  N   UNL     1      36.242 -27.168 -15.450  0.00  0.00    -0.329 N 
ATOM     24  N   UNL     1      40.734 -26.682 -14.138  0.00  0.00    -0.283 N 
ATOM     25  C   UNL     1      35.546 -23.325 -14.213  0.00  0.00    +0.133 C 
ATOM     26  C   UNL     1      36.569 -22.588 -13.685  0.00  0.00    +0.193 C 
ATOM     27  C   UNL     1      36.981 -25.092 -14.500  0.00  0.00    +0.248 C 
ATOM     28  C   UNL     1      38.037 -24.352 -13.963  0.00  0.00    +0.131 C 
ATOM     29  C   UNL     1      37.285 -26.380 -14.897  0.00  0.00    +0.231 C 
ATOM     30  C   UNL     1      39.435 -26.144 -14.269  0.00  0.00    +0.207 C 
ATOM     31  H   UNL     1      36.425 -28.091 -15.742  0.00  0.00    +0.145 HD
ATOM     32  H   UNL     1      35.337 -26.793 -15.540  0.00  0.00    +0.145 HD
ATOM     33  H   UNL     1      41.457 -26.135 -13.755  0.00  0.00    +0.156 HD
ATOM     34  H   UNL     1      40.916 -27.605 -14.429  0.00  0.00    +0.156 HD
ENDBRANCH  18  25
ENDBRANCH   1  18
TORSDOF 3
ENDMDL
MODEL 4
REMARK VINA RESULT:      -8.6      5.186      8.493
REMARK  Name = 46937152
REMARK  3 active torsions:
REMARK  status: ('A' for Active; 'I' for Inactive)
REMARK    1  A    between atoms: N_1  and  C_18
REMARK    2  A    between atoms: C_15  and  O_16
REMARK    3  A    between atoms: C_18  and  C_25
REMARK                            x       y       z     vdW  Elec       q    Type
REMARK                         _______ _______ _______ _____ _____    ______ ____
ROOT
ATOM      1  N   UNL     1      32.929 -23.532 -16.139  0.00  0.00    -0.280 N 
ATOM      2  C   UNL     1      31.671 -23.081 -15.534  0.00  0.00    +0.052 C 
ATOM      3  C   UNL     1      31.004 -24.255 -14.853  0.00  0.00    +0.014 C 
ATOM      4  C   UNL     1      34.075 -23.472 -15.345  0.00  0.00    +0.052 C 
ATOM      5  C   UNL     1      30.801 -22.377 -16.548  0.00  0.00    +0.015 C 
ATOM      6  C   UNL     1      34.097 -23.979 -14.024  0.00  0.00    +0.017 C 
ATOM      7  C   UNL     1      29.761 -24.651 -15.186  0.00  0.00    +0.001 C 
ATOM      8  C   UNL     1      28.927 -23.993 -16.247  0.00  0.00    +0.000 C 
ATOM      9  C   UNL     1      31.720 -24.910 -13.771  0.00  0.00    +0.001 C 
ATOM     10  C   UNL     1      29.567 -22.791 -16.869  0.00  0.00    +0.001 C 
ATOM     11  C   UNL     1      33.004 -24.768 -13.407  0.00  0.00    +0.001 C 
ATOM     12  C   UNL     1      35.251 -22.878 -15.852  0.00  0.00    +0.018 C 
ATOM     13  C   UNL     1      35.274 -23.847 -13.258  0.00  0.00    +0.038 C 
ATOM     14  C   UNL     1      36.403 -22.756 -15.077  0.00  0.00    +0.038 C 
ATOM     15  C   UNL     1      36.413 -23.235 -13.776  0.00  0.00    +0.134 C 
ENDROOT
BRANCH  15  16
ATOM     16  O   UNL     1      37.534 -23.120 -13.013  0.00  0.00    -0.506 OA
ATOM     17  H   UNL     1      38.378 -23.244 -13.400  0.00  0.00    +0.292 HD
ENDBRANCH  15  16
BRANCH   1  18
ATOM     18  C   UNL     1      33.045 -23.891 -17.545  0.00  0.00    +0.152 C 
BRANCH  18  25
ATOM     19  N   UNL     1      33.204 -21.968 -19.036  0.00  0.00    -0.392 NA
ATOM     20  N   UNL     1      35.965 -21.938 -18.848  0.00  0.00    -0.200 NA
ATOM     21  N   UNL     1      36.056 -20.111 -20.268  0.00  0.00    -0.271 NA
ATOM     22  N   UNL     1      34.054 -19.150 -21.171  0.00  0.00    -0.310 NA
ATOM     23  N   UNL     1      31.955 -20.078 -20.606  0.00  0.00    -0.329 N 
ATOM     24  N   UNL     1      36.152 -18.260 -21.708  0.00  0.00    -0.283 N 
ATOM     25  C   UNL     1      33.860 -22.866 -18.284  0.00  0.00    +0.133 C 
ATOM     26  C   UNL     1      35.223 -22.851 -18.192  0.00  0.00    +0.193 C 
ATOM     27  C   UNL     1      33.948 -21.056 -19.692  0.00  0.00    +0.248 C 
ATOM     28  C   UNL     1      35.341 -21.028 -19.607  0.00  0.00    +0.131 C 
ATOM     29  C   UNL     1      33.370 -20.088 -20.491  0.00  0.00    +0.231 C 
ATOM     30  C   UNL     1      35.380 -19.219 -21.016  0.00  0.00    +0.207 C 
ATOM     31  H   UNL     1      31.512 -19.402 -21.168  0.00  0.00    +0.145 HD
ATOM     32  H   UNL     1      31.418 -20.747 -20.124  0.00  0.00    +0.145 HD
ATOM     33  H   UNL     1      37.133 -18.266 -21.628  0.00  0.00    +0.156 HD
ATOM     34  H   UNL     1      35.708 -17.585 -22.271  0.00  0.00    +0.156 HD
ENDBRANCH  18  25
ENDBRANCH   1  18
TORSDOF 3
ENDMDL
MODEL 5
REMARK VINA RESULT:      -8.2      3.244      6.955
REMARK  Name = 46937152
REMARK  3 active torsions:
REMARK  status: ('A' for Active; 'I' for Inactive)
REMARK    1  A    between atoms: N_1  and  C_18
REMARK    2  A    between atoms: C_15  and  O_16
REMARK    3  A    between atoms: C_18  and  C_25
REMARK                            x       y       z     vdW  Elec       q    Type
REMARK                         _______ _______ _______ _____ _____    ______ ____
ROOT
ATOM      1  N   UNL     1      33.058 -12.806 -22.484  0.00  0.00    -0.280 N 
ATOM      2  C   UNL     1      31.971 -11.865 -22.195  0.00  0.00    +0.052 C 
ATOM      3  C   UNL     1      32.490 -10.453 -22.350  0.00  0.00    +0.014 C 
ATOM      4  C   UNL     1      33.211 -13.215 -23.809  0.00  0.00    +0.052 C 
ATOM      5  C   UNL     1      31.344 -12.151 -20.851  0.00  0.00    +0.015 C 
ATOM      6  C   UNL     1      33.229 -12.290 -24.881  0.00  0.00    +0.017 C 
ATOM      7  C   UNL     1      32.437  -9.567 -21.336  0.00  0.00    +0.001 C 
ATOM      8  C   UNL     1      31.880  -9.879 -19.977  0.00  0.00    +0.000 C 
ATOM      9  C   UNL     1      32.991 -10.050 -23.653  0.00  0.00    +0.001 C 
ATOM     10  C   UNL     1      31.307 -11.257 -19.854  0.00  0.00    +0.001 C 
ATOM     11  C   UNL     1      33.268 -10.817 -24.719  0.00  0.00    +0.001 C 
ATOM     12  C   UNL     1      33.337 -14.588 -24.111  0.00  0.00    +0.018 C 
ATOM     13  C   UNL     1      33.342 -12.772 -26.201  0.00  0.00    +0.038 C 
ATOM     14  C   UNL     1      33.447 -15.044 -25.424  0.00  0.00    +0.038 C 
ATOM     15  C   UNL     1      33.442 -14.135 -26.471  0.00  0.00    +0.134 C 
ENDROOT
BRANCH  15  16
ATOM     16  O   UNL     1      33.549 -14.570 -27.756  0.00  0.00    -0.506 OA
ATOM     17  H   UNL     1      33.935 -15.405 -27.937  0.00  0.00    +0.292 HD
ENDBRANCH  15  16
BRANCH   1  18
ATOM     18  C   UNL     1      33.865 -13.424 -21.442  0.00  0.00    +0.152 C 
BRANCH  18  25
ATOM     19  N   UNL     1      34.339 -15.816 -21.413  0.00  0.00    -0.392 NA
ATOM     20  N   UNL     1      31.758 -16.408 -20.609  0.00  0.00    -0.200 NA
ATOM     21  N   UNL     1      32.265 -18.668 -20.597  0.00  0.00    -0.271 NA
ATOM     22  N   UNL     1      34.455 -19.443 -21.188  0.00  0.00    -0.310 NA
ATOM     23  N   UNL     1      36.124 -17.882 -21.791  0.00  0.00    -0.329 N 
ATOM     24  N   UNL     1      32.776 -20.959 -20.586  0.00  0.00    -0.283 N 
ATOM     25  C   UNL     1      33.433 -14.846 -21.214  0.00  0.00    +0.133 C 
ATOM     26  C   UNL     1      32.158 -15.139 -20.817  0.00  0.00    +0.193 C 
ATOM     27  C   UNL     1      33.937 -17.084 -21.204  0.00  0.00    +0.248 C 
ATOM     28  C   UNL     1      32.639 -17.399 -20.798  0.00  0.00    +0.131 C 
ATOM     29  C   UNL     1      34.793 -18.156 -21.380  0.00  0.00    +0.231 C 
ATOM     30  C   UNL     1      33.188 -19.626 -20.802  0.00  0.00    +0.207 C 
ATOM     31  H   UNL     1      36.759 -18.622 -21.926  0.00  0.00    +0.145 HD
ATOM     32  H   UNL     1      36.411 -16.953 -21.942  0.00  0.00    +0.145 HD
ATOM     33  H   UNL     1      31.853 -21.149 -20.301  0.00  0.00    +0.156 HD
ATOM     34  H   UNL     1      33.411 -21.699 -20.722  0.00  0.00    +0.156 HD
ENDBRANCH  18  25
ENDBRANCH   1  18
TORSDOF 3
ENDMDL
MODEL 6
REMARK VINA RESULT:      -8.0      7.353     10.578
REMARK  Name = 46937152
REMARK  3 active torsions:
REMARK  status: ('A' for Active; 'I' for Inactive)
REMARK    1  A    between atoms: N_1  and  C_18
REMARK    2  A    between atoms: C_15  and  O_16
REMARK    3  A    between atoms: C_18  and  C_25
REMARK                            x       y       z     vdW  Elec       q    Type
REMARK                         _______ _______ _______ _____ _____    ______ ____
ROOT
ATOM      1  N   UNL     1      34.741 -23.156 -16.401  0.00  0.00    -0.280 N 
ATOM      2  C   UNL     1      35.053 -22.741 -15.029  0.00  0.00    +0.052 C 
ATOM      3  C   UNL     1      36.306 -23.454 -14.572  0.00  0.00    +0.014 C 
ATOM      4  C   UNL     1      35.308 -22.411 -17.436  0.00  0.00    +0.052 C 
ATOM      5  C   UNL     1      33.863 -22.933 -14.118  0.00  0.00    +0.015 C 
ATOM      6  C   UNL     1      36.684 -22.080 -17.453  0.00  0.00    +0.017 C 
ATOM      7  C   UNL     1      36.313 -24.235 -13.475  0.00  0.00    +0.001 C 
ATOM      8  C   UNL     1      35.108 -24.483 -12.614  0.00  0.00    +0.000 C 
ATOM      9  C   UNL     1      37.532 -23.220 -15.317  0.00  0.00    +0.001 C 
ATOM     10  C   UNL     1      33.890 -23.720 -13.033  0.00  0.00    +0.001 C 
ATOM     11  C   UNL     1      37.690 -22.617 -16.505  0.00  0.00    +0.001 C 
ATOM     12  C   UNL     1      34.498 -21.951 -18.496  0.00  0.00    +0.018 C 
ATOM     13  C   UNL     1      37.186 -21.286 -18.505  0.00  0.00    +0.038 C 
ATOM     14  C   UNL     1      35.013 -21.166 -19.527  0.00  0.00    +0.038 C 
ATOM     15  C   UNL     1      36.358 -20.827 -19.527  0.00  0.00    +0.134 C 
ENDROOT
BRANCH  15  16
ATOM     16  O   UNL     1      36.870 -20.061 -20.528  0.00  0.00    -0.506 OA
ATOM     17  H   UNL     1      37.015 -20.434 -21.376  0.00  0.00    +0.292 HD
ENDBRANCH  15  16
BRANCH   1  18
ATOM     18  C   UNL     1      33.771 -24.196 -16.710  0.00  0.00    +0.152 C 
BRANCH  18  25
ATOM     19  N   UNL     1      31.458 -24.242 -15.941  0.00  0.00    -0.392 NA
ATOM     20  N   UNL     1      30.813 -22.025 -17.466  0.00  0.00    -0.200 NA
ATOM     21  N   UNL     1      28.629 -22.115 -16.700  0.00  0.00    -0.271 NA
ATOM     22  N   UNL     1      27.934 -23.811 -15.155  0.00  0.00    -0.310 NA
ATOM     23  N   UNL     1      29.497 -25.415 -14.400  0.00  0.00    -0.329 N 
ATOM     24  N   UNL     1      26.415 -22.206 -15.927  0.00  0.00    -0.283 N 
ATOM     25  C   UNL     1      32.377 -23.634 -16.707  0.00  0.00    +0.133 C 
ATOM     26  C   UNL     1      32.058 -22.539 -17.460  0.00  0.00    +0.193 C 
ATOM     27  C   UNL     1      30.213 -23.726 -15.948  0.00  0.00    +0.248 C 
ATOM     28  C   UNL     1      29.873 -22.608 -16.711  0.00  0.00    +0.131 C 
ATOM     29  C   UNL     1      29.195 -24.277 -15.193  0.00  0.00    +0.231 C 
ATOM     30  C   UNL     1      27.722 -22.739 -15.925  0.00  0.00    +0.207 C 
ATOM     31  H   UNL     1      28.794 -25.832 -13.850  0.00  0.00    +0.145 HD
ATOM     32  H   UNL     1      30.408 -25.787 -14.399  0.00  0.00    +0.145 HD
ATOM     33  H   UNL     1      26.205 -21.416 -16.477  0.00  0.00    +0.156 HD
ATOM     34  H   UNL     1      25.712 -22.624 -15.379  0.00  0.00    +0.156 HD
ENDBRANCH  18  25
ENDBRANCH   1  18
TORSDOF 3
ENDMDL
MODEL 7
REMARK VINA RESULT:      -7.7      7.892     11.209
REMARK  Name = 46937152
REMARK  3 active torsions:
REMARK  status: ('A' for Active; 'I' for Inactive)
REMARK    1  A    between atoms: N_1  and  C_18
REMARK    2  A    between atoms: C_15  and  O_16
REMARK    3  A    between atoms: C_18  and  C_25
REMARK                            x       y       z     vdW  Elec       q    Type
REMARK                         _______ _______ _______ _____ _____    ______ ____
ROOT
ATOM      1  N   UNL     1      35.411 -23.907 -14.955  0.00  0.00    -0.280 N 
ATOM      2  C   UNL     1      35.928 -23.399 -13.680  0.00  0.00    +0.052 C 
ATOM      3  C   UNL     1      37.313 -23.962 -13.452  0.00  0.00    +0.014 C 
ATOM      4  C   UNL     1      35.691 -23.160 -16.100  0.00  0.00    +0.052 C 
ATOM      5  C   UNL     1      34.958 -23.664 -12.553  0.00  0.00    +0.015 C 
ATOM      6  C   UNL     1      36.997 -22.696 -16.389  0.00  0.00    +0.017 C 
ATOM      7  C   UNL     1      37.608 -24.686 -12.355  0.00  0.00    +0.001 C 
ATOM      8  C   UNL     1      36.619 -25.010 -11.272  0.00  0.00    +0.000 C 
ATOM      9  C   UNL     1      38.346 -23.644 -14.424  0.00  0.00    +0.001 C 
ATOM     10  C   UNL     1      35.271 -24.391 -11.472  0.00  0.00    +0.001 C 
ATOM     11  C   UNL     1      38.214 -23.085 -15.637  0.00  0.00    +0.001 C 
ATOM     12  C   UNL     1      34.653 -22.833 -16.998  0.00  0.00    +0.018 C 
ATOM     13  C   UNL     1      37.206 -21.907 -17.539  0.00  0.00    +0.038 C 
ATOM     14  C   UNL     1      34.881 -22.051 -18.129  0.00  0.00    +0.038 C 
ATOM     15  C   UNL     1      36.157 -21.581 -18.396  0.00  0.00    +0.134 C 
ENDROOT
BRANCH  15  16
ATOM     16  O   UNL     1      36.389 -20.817 -19.498  0.00  0.00    -0.506 OA
ATOM     17  H   UNL     1      36.674 -21.219 -20.295  0.00  0.00    +0.292 HD
ENDBRANCH  15  16
BRANCH   1  18
ATOM     18  C   UNL     1      34.516 -25.052 -15.044  0.00  0.00    +0.152 C 
BRANCH  18  25
ATOM     19  N   UNL     1      32.583 -23.849 -15.919  0.00  0.00    -0.392 NA
ATOM     20  N   UNL     1      31.031 -24.584 -13.748  0.00  0.00    -0.200 NA
ATOM     21  N   UNL     1      29.228 -23.428 -14.628  0.00  0.00    -0.271 NA
ATOM     22  N   UNL     1      29.410 -22.260 -16.713  0.00  0.00    -0.310 NA
ATOM     23  N   UNL     1      31.459 -22.287 -17.892  0.00  0.00    -0.329 N 
ATOM     24  N   UNL     1      27.399 -22.255 -15.515  0.00  0.00    -0.283 N 
ATOM     25  C   UNL     1      33.083 -24.610 -14.932  0.00  0.00    +0.133 C 
ATOM     26  C   UNL     1      32.316 -24.973 -13.860  0.00  0.00    +0.193 C 
ATOM     27  C   UNL     1      31.298 -23.463 -15.805  0.00  0.00    +0.248 C 
ATOM     28  C   UNL     1      30.502 -23.825 -14.717  0.00  0.00    +0.131 C 
ATOM     29  C   UNL     1      30.687 -22.679 -16.767  0.00  0.00    +0.231 C 
ATOM     30  C   UNL     1      28.745 -22.666 -15.627  0.00  0.00    +0.207 C 
ATOM     31  H   UNL     1      31.055 -21.729 -18.595  0.00  0.00    +0.145 HD
ATOM     32  H   UNL     1      32.397 -22.574 -17.969  0.00  0.00    +0.145 HD
ATOM     33  H   UNL     1      26.864 -22.526 -14.735  0.00  0.00    +0.156 HD
ATOM     34  H   UNL     1      26.996 -21.695 -16.218  0.00  0.00    +0.156 HD
ENDBRANCH  18  25
ENDBRANCH   1  18
TORSDOF 3
ENDMDL
MODEL 8
REMARK VINA RESULT:      -7.4      7.114     10.860
REMARK  Name = 46937152
REMARK  3 active torsions:
REMARK  status: ('A' for Active; 'I' for Inactive)
REMARK    1  A    between atoms: N_1  and  C_18
REMARK    2  A    between atoms: C_15  and  O_16
REMARK    3  A    between atoms: C_18  and  C_25
REMARK                            x       y       z     vdW  Elec       q    Type
REMARK                         _______ _______ _______ _____ _____    ______ ____
ROOT
ATOM      1  N   UNL     1      32.165  -6.684 -23.874  0.00  0.00    -0.280 N 
ATOM      2  C   UNL     1      32.762  -6.328 -22.583  0.00  0.00    +0.052 C 
ATOM      3  C   UNL     1      33.889  -7.290 -22.279  0.00  0.00    +0.014 C 
ATOM      4  C   UNL     1      32.715  -6.095 -25.014  0.00  0.00    +0.052 C 
ATOM      5  C   UNL     1      31.711  -6.243 -21.501  0.00  0.00    +0.015 C 
ATOM      6  C   UNL     1      34.111  -6.073 -25.245  0.00  0.00    +0.017 C 
ATOM      7  C   UNL     1      33.895  -8.038 -21.159  0.00  0.00    +0.001 C 
ATOM      8  C   UNL     1      32.810  -8.004 -20.122  0.00  0.00    +0.000 C 
ATOM      9  C   UNL     1      35.010  -7.339 -23.203  0.00  0.00    +0.001 C 
ATOM     10  C   UNL     1      31.733  -7.001 -20.396  0.00  0.00    +0.001 C 
ATOM     11  C   UNL     1      35.111  -6.801 -24.429  0.00  0.00    +0.001 C 
ATOM     12  C   UNL     1      31.870  -5.486 -25.967  0.00  0.00    +0.018 C 
ATOM     13  C   UNL     1      34.606  -5.422 -26.394  0.00  0.00    +0.038 C 
ATOM     14  C   UNL     1      32.380  -4.847 -27.096  0.00  0.00    +0.038 C 
ATOM     15  C   UNL     1      33.749  -4.809 -27.306  0.00  0.00    +0.134 C 
ENDROOT
BRANCH  15  16
ATOM     16  O   UNL     1      34.256  -4.187 -28.406  0.00  0.00    -0.506 OA
ATOM     17  H   UNL     1      35.154  -4.310 -28.641  0.00  0.00    +0.292 HD
ENDBRANCH  15  16
BRANCH   1  18
ATOM     18  C   UNL     1      30.961  -7.493 -23.991  0.00  0.00    +0.152 C 
BRANCH  18  25
ATOM     19  N   UNL     1      32.313  -9.523 -23.978  0.00  0.00    -0.392 NA
ATOM     20  N   UNL     1      30.592 -10.765 -22.201  0.00  0.00    -0.200 NA
ATOM     21  N   UNL     1      31.915 -12.665 -22.226  0.00  0.00    -0.271 NA
ATOM     22  N   UNL     1      33.905 -12.765 -23.558  0.00  0.00    -0.310 NA
ATOM     23  N   UNL     1      34.530 -10.899 -24.867  0.00  0.00    -0.329 N 
ATOM     24  N   UNL     1      33.253 -14.594 -22.250  0.00  0.00    -0.283 N 
ATOM     25  C   UNL     1      31.220  -8.896 -23.514  0.00  0.00    +0.133 C 
ATOM     26  C   UNL     1      30.371  -9.509 -22.637  0.00  0.00    +0.193 C 
ATOM     27  C   UNL     1      32.532 -10.778 -23.540  0.00  0.00    +0.248 C 
ATOM     28  C   UNL     1      31.674 -11.418 -22.645  0.00  0.00    +0.131 C 
ATOM     29  C   UNL     1      33.629 -11.511 -23.956  0.00  0.00    +0.231 C 
ATOM     30  C   UNL     1      33.015 -13.277 -22.702  0.00  0.00    +0.207 C 
ATOM     31  H   UNL     1      35.321 -11.393 -25.183  0.00  0.00    +0.145 HD
ATOM     32  H   UNL     1      34.364  -9.981 -25.182  0.00  0.00    +0.145 HD
ATOM     33  H   UNL     1      32.628 -15.018 -21.618  0.00  0.00    +0.156 HD
ATOM     34  H   UNL     1      34.043 -15.088 -22.567  0.00  0.00    +0.156 HD
ENDBRANCH  18  25
ENDBRANCH   1  18
TORSDOF 3
ENDMDL
MODEL 9
REMARK VINA RESULT:      -7.3      6.090      9.466
REMARK  Name = 46937152
REMARK  3 active torsions:
REMARK  status: ('A' for Active; 'I' for Inactive)
REMARK    1  A    between atoms: N_1  and  C_18
REMARK    2  A    between atoms: C_15  and  O_16
REMARK    3  A    between atoms: C_18  and  C_25
REMARK                            x       y       z     vdW  Elec       q    Type
REMARK                         _______ _______ _______ _____ _____    ______ ____
ROOT
ATOM      1  N   UNL     1      32.890  -8.609 -22.755  0.00  0.00    -0.280 N 
ATOM      2  C   UNL     1      31.749  -9.170 -22.023  0.00  0.00    +0.052 C 
ATOM      3  C   UNL     1      31.804  -8.694 -20.588  0.00  0.00    +0.014 C 
ATOM      4  C   UNL     1      32.706  -7.368 -23.365  0.00  0.00    +0.052 C 
ATOM      5  C   UNL     1      31.689 -10.672 -22.175  0.00  0.00    +0.015 C 
ATOM      6  C   UNL     1      32.134  -6.272 -22.675  0.00  0.00    +0.017 C 
ATOM      7  C   UNL     1      31.853  -9.560 -19.558  0.00  0.00    +0.001 C 
ATOM      8  C   UNL     1      31.868 -11.053 -19.718  0.00  0.00    +0.000 C 
ATOM      9  C   UNL     1      31.732  -7.263 -20.344  0.00  0.00    +0.001 C 
ATOM     10  C   UNL     1      31.745 -11.517 -21.136  0.00  0.00    +0.001 C 
ATOM     11  C   UNL     1      31.839  -6.255 -21.223  0.00  0.00    +0.001 C 
ATOM     12  C   UNL     1      33.081  -7.186 -24.714  0.00  0.00    +0.018 C 
ATOM     13  C   UNL     1      31.935  -5.057 -23.363  0.00  0.00    +0.038 C 
ATOM     14  C   UNL     1      32.874  -5.976 -25.376  0.00  0.00    +0.038 C 
ATOM     15  C   UNL     1      32.293  -4.913 -24.701  0.00  0.00    +0.134 C 
ENDROOT
BRANCH  15  16
ATOM     16  O   UNL     1      32.087  -3.729 -25.340  0.00  0.00    -0.506 OA
ATOM     17  H   UNL     1      31.916  -2.953 -24.843  0.00  0.00    +0.292 HD
ENDBRANCH  15  16
BRANCH   1  18
ATOM     18  C   UNL     1      34.122  -9.349 -22.984  0.00  0.00    +0.152 C 
BRANCH  18  25
ATOM     19  N   UNL     1      33.966 -11.764 -23.288  0.00  0.00    -0.392 NA
ATOM     20  N   UNL     1      33.295 -11.474 -25.957  0.00  0.00    -0.200 NA
ATOM     21  N   UNL     1      33.159 -13.775 -26.187  0.00  0.00    -0.271 NA
ATOM     22  N   UNL     1      33.584 -15.227 -24.328  0.00  0.00    -0.310 NA
ATOM     23  N   UNL     1      34.149 -14.301 -22.228  0.00  0.00    -0.329 N 
ATOM     24  N   UNL     1      33.022 -16.106 -26.423  0.00  0.00    -0.283 N 
ATOM     25  C   UNL     1      33.863 -10.550 -23.851  0.00  0.00    +0.133 C 
ATOM     26  C   UNL     1      33.531 -10.407 -25.169  0.00  0.00    +0.193 C 
ATOM     27  C   UNL     1      33.729 -12.829 -24.077  0.00  0.00    +0.248 C 
ATOM     28  C   UNL     1      33.389 -12.700 -25.425  0.00  0.00    +0.131 C 
ATOM     29  C   UNL     1      33.808 -14.122 -23.594  0.00  0.00    +0.231 C 
ATOM     30  C   UNL     1      33.267 -14.983 -25.604  0.00  0.00    +0.207 C 
ATOM     31  H   UNL     1      34.214 -15.209 -21.852  0.00  0.00    +0.145 HD
ATOM     32  H   UNL     1      34.320 -13.518 -21.656  0.00  0.00    +0.145 HD
ATOM     33  H   UNL     1      32.785 -15.982 -27.371  0.00  0.00    +0.156 HD
ATOM     34  H   UNL     1      33.088 -17.013 -26.048  0.00  0.00    +0.156 HD
ENDBRANCH  18  25
ENDBRANCH   1  18
TORSDOF 3
ENDMDL
