MODEL 1
REMARK VINA RESULT:      -8.5      0.000      0.000
REMARK  Name = 71310
REMARK  2 active torsions:
REMARK  status: ('A' for Active; 'I' for Inactive)
REMARK    1  A    between atoms: C_1  and  C_12
REMARK    2  A    between atoms: C_1  and  C_17
REMARK                            x       y       z     vdW  Elec       q    Type
REMARK                         _______ _______ _______ _____ _____    ______ ____
ROOT
ATOM      1  C   UNL     1      35.069 -17.950 -22.723  0.00  0.00    +0.040 C 
ATOM      2  C   UNL     1      36.455 -18.535 -22.291  0.00  0.00    +0.032 C 
ATOM      3  C   UNL     1      34.061 -19.107 -22.415  0.00  0.00    +0.032 C 
ATOM      4  C   UNL     1      36.071 -19.476 -21.189  0.00  0.00    -0.026 C 
ATOM      5  C   UNL     1      34.713 -19.797 -21.256  0.00  0.00    -0.026 C 
ATOM      6  C   UNL     1      36.890 -20.033 -20.221  0.00  0.00    -0.005 C 
ATOM      7  C   UNL     1      34.142 -20.684 -20.358  0.00  0.00    -0.005 C 
ATOM      8  C   UNL     1      36.321 -20.918 -19.303  0.00  0.00    -0.000 C 
ATOM      9  C   UNL     1      34.956 -21.241 -19.371  0.00  0.00    -0.000 C 
ENDROOT
BRANCH   1  12
ATOM     10  N   UNL     1      34.440 -15.480 -22.568  0.00  0.00    -0.319 N 
ATOM     11  N   UNL     1      34.522 -15.016 -20.398  0.00  0.00    -0.315 N 
ATOM     12  C   UNL     1      34.798 -16.630 -21.942  0.00  0.00    +0.037 C 
ATOM     13  C   UNL     1      34.844 -16.333 -20.611  0.00  0.00    +0.069 C 
ATOM     14  C   UNL     1      34.283 -14.531 -21.596  0.00  0.00    +0.182 C 
ATOM     15  H   UNL     1      34.316 -15.353 -23.537  0.00  0.00    +0.148 HD
ATOM     16  H   UNL     1      34.477 -14.540 -19.537  0.00  0.00    +0.148 HD
ENDBRANCH   1  12
BRANCH   1  17
ATOM     17  C   UNL     1      35.034 -17.681 -24.241  0.00  0.00    +0.006 C 
ATOM     18  C   UNL     1      34.302 -18.784 -24.973  0.00  0.00    +0.000 C 
ENDBRANCH   1  17
TORSDOF 2
ENDMDL
MODEL 2
REMARK VINA RESULT:      -8.4      1.628      3.371
REMARK  Name = 71310
REMARK  2 active torsions:
REMARK  status: ('A' for Active; 'I' for Inactive)
REMARK    1  A    between atoms: C_1  and  C_12
REMARK    2  A    between atoms: C_1  and  C_17
REMARK                            x       y       z     vdW  Elec       q    Type
REMARK                         _______ _______ _______ _____ _____    ______ ____
ROOT
ATOM      1  C   UNL     1      34.815 -17.823 -21.688  0.00  0.00    +0.040 C 
ATOM      2  C   UNL     1      33.539 -18.324 -20.933  0.00  0.00    +0.032 C 
ATOM      3  C   UNL     1      35.991 -18.558 -20.963  0.00  0.00    +0.032 C 
ATOM      4  C   UNL     1      33.951 -19.695 -20.490  0.00  0.00    -0.026 C 
ATOM      5  C   UNL     1      35.342 -19.830 -20.511  0.00  0.00    -0.026 C 
ATOM      6  C   UNL     1      33.140 -20.733 -20.062  0.00  0.00    -0.005 C 
ATOM      7  C   UNL     1      35.954 -21.004 -20.104  0.00  0.00    -0.005 C 
ATOM      8  C   UNL     1      33.747 -21.925 -19.662  0.00  0.00    -0.000 C 
ATOM      9  C   UNL     1      35.145 -22.060 -19.683  0.00  0.00    -0.000 C 
ENDROOT
BRANCH   1  12
ATOM     10  N   UNL     1      34.463 -17.188 -24.136  0.00  0.00    -0.319 N 
ATOM     11  N   UNL     1      34.567 -19.115 -25.235  0.00  0.00    -0.315 N 
ATOM     12  C   UNL     1      34.682 -18.151 -23.205  0.00  0.00    +0.037 C 
ATOM     13  C   UNL     1      34.745 -19.328 -23.891  0.00  0.00    +0.069 C 
ATOM     14  C   UNL     1      34.400 -17.816 -25.349  0.00  0.00    +0.182 C 
ATOM     15  H   UNL     1      34.366 -16.222 -23.971  0.00  0.00    +0.148 HD
ATOM     16  H   UNL     1      34.566 -19.786 -25.955  0.00  0.00    +0.148 HD
ENDBRANCH   1  12
BRANCH   1  17
ATOM     17  C   UNL     1      35.010 -16.305 -21.492  0.00  0.00    +0.006 C 
ATOM     18  C   UNL     1      33.871 -15.710 -20.693  0.00  0.00    +0.000 C 
ENDBRANCH   1  17
TORSDOF 2
ENDMDL
MODEL 3
REMARK VINA RESULT:      -8.0      9.233     10.699
REMARK  Name = 71310
REMARK  2 active torsions:
REMARK  status: ('A' for Active; 'I' for Inactive)
REMARK    1  A    between atoms: C_1  and  C_12
REMARK    2  A    between atoms: C_1  and  C_17
REMARK                            x       y       z     vdW  Elec       q    Type
REMARK                         _______ _______ _______ _____ _____    ______ ____
ROOT
ATOM      1  C   UNL     1      33.121  -7.789 -22.670  0.00  0.00    +0.040 C 
ATOM      2  C   UNL     1      33.335  -7.981 -21.131  0.00  0.00    +0.032 C 
ATOM      3  C   UNL     1      32.665  -9.203 -23.164  0.00  0.00    +0.032 C 
ATOM      4  C   UNL     1      32.345  -9.058 -20.806  0.00  0.00    -0.026 C 
ATOM      5  C   UNL     1      31.961  -9.750 -21.959  0.00  0.00    -0.026 C 
ATOM      6  C   UNL     1      31.856  -9.419 -19.562  0.00  0.00    -0.005 C 
ATOM      7  C   UNL     1      31.081 -10.816 -21.894  0.00  0.00    -0.005 C 
ATOM      8  C   UNL     1      30.957 -10.485 -19.488  0.00  0.00    -0.000 C 
ATOM      9  C   UNL     1      30.572 -11.179 -20.646  0.00  0.00    -0.000 C 
ENDROOT
BRANCH   1  12
ATOM     10  N   UNL     1      31.883  -6.106 -24.137  0.00  0.00    -0.319 N 
ATOM     11  N   UNL     1      30.497  -5.064 -22.749  0.00  0.00    -0.315 N 
ATOM     12  C   UNL     1      32.083  -6.653 -22.912  0.00  0.00    +0.037 C 
ATOM     13  C   UNL     1      31.227  -6.006 -22.068  0.00  0.00    +0.069 C 
ATOM     14  C   UNL     1      30.915  -5.149 -23.992  0.00  0.00    +0.182 C 
ATOM     15  H   UNL     1      32.344  -6.349 -24.972  0.00  0.00    +0.148 HD
ATOM     16  H   UNL     1      29.811  -4.459 -22.386  0.00  0.00    +0.148 HD
ENDBRANCH   1  12
BRANCH   1  17
ATOM     17  C   UNL     1      34.451  -7.446 -23.372  0.00  0.00    +0.006 C 
ATOM     18  C   UNL     1      34.956  -8.620 -24.183  0.00  0.00    +0.000 C 
ENDBRANCH   1  17
TORSDOF 2
ENDMDL
MODEL 4
REMARK VINA RESULT:      -7.8      6.635      9.754
REMARK  Name = 71310
REMARK  2 active torsions:
REMARK  status: ('A' for Active; 'I' for Inactive)
REMARK    1  A    between atoms: C_1  and  C_12
REMARK    2  A    between atoms: C_1  and  C_17
REMARK                            x       y       z     vdW  Elec       q    Type
REMARK                         _______ _______ _______ _____ _____    ______ ____
ROOT
ATOM      1  C   UNL     1      36.196 -23.589 -14.343  0.00  0.00    +0.040 C 
ATOM      2  C   UNL     1      37.021 -22.520 -15.135  0.00  0.00    +0.032 C 
ATOM      3  C   UNL     1      34.738 -23.412 -14.884  0.00  0.00    +0.032 C 
ATOM      4  C   UNL     1      36.267 -22.432 -16.427  0.00  0.00    -0.026 C 
ATOM      5  C   UNL     1      34.973 -22.942 -16.287  0.00  0.00    -0.026 C 
ATOM      6  C   UNL     1      36.696 -21.898 -17.631  0.00  0.00    -0.005 C 
ATOM      7  C   UNL     1      34.079 -22.928 -17.344  0.00  0.00    -0.005 C 
ATOM      8  C   UNL     1      35.806 -21.891 -18.706  0.00  0.00    -0.000 C 
ATOM      9  C   UNL     1      34.507 -22.403 -18.565  0.00  0.00    -0.000 C 
ENDROOT
BRANCH   1  12
ATOM     10  N   UNL     1      36.076 -26.034 -15.068  0.00  0.00    -0.319 N 
ATOM     11  N   UNL     1      38.132 -26.814 -14.753  0.00  0.00    -0.315 N 
ATOM     12  C   UNL     1      36.810 -25.000 -14.583  0.00  0.00    +0.037 C 
ATOM     13  C   UNL     1      38.069 -25.490 -14.394  0.00  0.00    +0.069 C 
ATOM     14  C   UNL     1      36.916 -27.110 -15.154  0.00  0.00    +0.182 C 
ATOM     15  H   UNL     1      35.122 -26.014 -15.312  0.00  0.00    +0.148 HD
ATOM     16  H   UNL     1      38.915 -27.409 -14.718  0.00  0.00    +0.148 HD
ENDBRANCH   1  12
BRANCH   1  17
ATOM     17  C   UNL     1      36.186 -23.268 -12.834  0.00  0.00    +0.006 C 
ATOM     18  C   UNL     1      35.276 -24.215 -12.083  0.00  0.00    +0.000 C 
ENDBRANCH   1  17
TORSDOF 2
ENDMDL
MODEL 5
REMARK VINA RESULT:      -7.5      8.275      9.919
REMARK  Name = 71310
REMARK  2 active torsions:
REMARK  status: ('A' for Active; 'I' for Inactive)
REMARK    1  A    between atoms: C_1  and  C_12
REMARK    2  A    between atoms: C_1  and  C_17
REMARK                            x       y       z     vdW  Elec       q    Type
REMARK                         _______ _______ _______ _____ _____    ______ ____
ROOT
ATOM      1  C   UNL     1      32.118  -8.589 -23.184  0.00  0.00    +0.040 C 
ATOM      2  C   UNL     1      31.023  -9.675 -22.919  0.00  0.00    +0.032 C 
ATOM      3  C   UNL     1      32.351  -7.942 -21.778  0.00  0.00    +0.032 C 
ATOM      4  C   UNL     1      31.297 -10.061 -21.496  0.00  0.00    -0.026 C 
ATOM      5  C   UNL     1      32.054  -9.080 -20.849  0.00  0.00    -0.026 C 
ATOM      6  C   UNL     1      30.865 -11.190 -20.821  0.00  0.00    -0.005 C 
ATOM      7  C   UNL     1      32.395  -9.204 -19.513  0.00  0.00    -0.005 C 
ATOM      8  C   UNL     1      31.215 -11.331 -19.477  0.00  0.00    -0.000 C 
ATOM      9  C   UNL     1      31.975 -10.345 -18.827  0.00  0.00    -0.000 C 
ENDROOT
BRANCH   1  12
ATOM     10  N   UNL     1      33.347 -10.520 -24.316  0.00  0.00    -0.319 N 
ATOM     11  N   UNL     1      35.428  -9.787 -24.573  0.00  0.00    -0.315 N 
ATOM     12  C   UNL     1      33.378  -9.264 -23.803  0.00  0.00    +0.037 C 
ATOM     13  C   UNL     1      34.660  -8.824 -23.967  0.00  0.00    +0.069 C 
ATOM     14  C   UNL     1      34.608 -10.795 -24.770  0.00  0.00    +0.182 C 
ATOM     15  H   UNL     1      32.567 -11.119 -24.354  0.00  0.00    +0.148 HD
ATOM     16  H   UNL     1      36.382  -9.734 -24.808  0.00  0.00    +0.148 HD
ENDBRANCH   1  12
BRANCH   1  17
ATOM     17  C   UNL     1      31.588  -7.493 -24.130  0.00  0.00    +0.006 C 
ATOM     18  C   UNL     1      31.342  -6.201 -23.382  0.00  0.00    +0.000 C 
ENDBRANCH   1  17
TORSDOF 2
ENDMDL
MODEL 6
REMARK VINA RESULT:      -7.2      8.414     10.715
REMARK  Name = 71310
REMARK  2 active torsions:
REMARK  status: ('A' for Active; 'I' for Inactive)
REMARK    1  A    between atoms: C_1  and  C_12
REMARK    2  A    between atoms: C_1  and  C_17
REMARK                            x       y       z     vdW  Elec       q    Type
REMARK                         _______ _______ _______ _____ _____    ______ ____
ROOT
ATOM      1  C   UNL     1      36.048 -23.835 -13.637  0.00  0.00    +0.040 C 
ATOM      2  C   UNL     1      35.652 -23.010 -14.907  0.00  0.00    +0.032 C 
ATOM      3  C   UNL     1      34.723 -23.907 -12.808  0.00  0.00    +0.032 C 
ATOM      4  C   UNL     1      34.201 -23.354 -15.067  0.00  0.00    -0.026 C 
ATOM      5  C   UNL     1      33.675 -23.867 -13.878  0.00  0.00    -0.026 C 
ATOM      6  C   UNL     1      33.403 -23.182 -16.185  0.00  0.00    -0.005 C 
ATOM      7  C   UNL     1      32.339 -24.218 -13.780  0.00  0.00    -0.005 C 
ATOM      8  C   UNL     1      32.058 -23.546 -16.100  0.00  0.00    -0.000 C 
ATOM      9  C   UNL     1      31.529 -24.061 -14.906  0.00  0.00    -0.000 C 
ENDROOT
BRANCH   1  12
ATOM     10  N   UNL     1      36.584 -25.637 -15.365  0.00  0.00    -0.319 N 
ATOM     11  N   UNL     1      37.545 -27.264 -14.198  0.00  0.00    -0.315 N 
ATOM     12  C   UNL     1      36.615 -25.218 -14.074  0.00  0.00    +0.037 C 
ATOM     13  C   UNL     1      37.208 -26.224 -13.368  0.00  0.00    +0.069 C 
ATOM     14  C   UNL     1      37.156 -26.879 -15.393  0.00  0.00    +0.182 C 
ATOM     15  H   UNL     1      36.219 -25.142 -16.134  0.00  0.00    +0.148 HD
ATOM     16  H   UNL     1      37.983 -28.111 -13.953  0.00  0.00    +0.148 HD
ENDBRANCH   1  12
BRANCH   1  17
ATOM     17  C   UNL     1      37.095 -23.078 -12.794  0.00  0.00    +0.006 C 
ATOM     18  C   UNL     1      36.779 -23.175 -11.318  0.00  0.00    +0.000 C 
ENDBRANCH   1  17
TORSDOF 2
ENDMDL
MODEL 7
REMARK VINA RESULT:      -7.1      2.355      4.993
REMARK  Name = 71310
REMARK  2 active torsions:
REMARK  status: ('A' for Active; 'I' for Inactive)
REMARK    1  A    between atoms: C_1  and  C_12
REMARK    2  A    between atoms: C_1  and  C_17
REMARK                            x       y       z     vdW  Elec       q    Type
REMARK                         _______ _______ _______ _____ _____    ______ ____
ROOT
ATOM      1  C   UNL     1      35.561 -18.563 -21.684  0.00  0.00    +0.040 C 
ATOM      2  C   UNL     1      35.680 -18.772 -23.231  0.00  0.00    +0.032 C 
ATOM      3  C   UNL     1      35.438 -17.011 -21.524  0.00  0.00    +0.032 C 
ATOM      4  C   UNL     1      34.901 -17.609 -23.767  0.00  0.00    -0.026 C 
ATOM      5  C   UNL     1      34.760 -16.612 -22.798  0.00  0.00    -0.026 C 
ATOM      6  C   UNL     1      34.391 -17.441 -25.044  0.00  0.00    -0.005 C 
ATOM      7  C   UNL     1      34.107 -15.424 -23.083  0.00  0.00    -0.005 C 
ATOM      8  C   UNL     1      33.719 -16.253 -25.336  0.00  0.00    -0.000 C 
ATOM      9  C   UNL     1      33.578 -15.251 -24.363  0.00  0.00    -0.000 C 
ENDROOT
BRANCH   1  12
ATOM     10  N   UNL     1      34.491 -20.458 -20.348  0.00  0.00    -0.319 N 
ATOM     11  N   UNL     1      32.306 -20.179 -20.632  0.00  0.00    -0.315 N 
ATOM     12  C   UNL     1      34.342 -19.369 -21.144  0.00  0.00    +0.037 C 
ATOM     13  C   UNL     1      32.998 -19.208 -21.311  0.00  0.00    +0.069 C 
ATOM     14  C   UNL     1      33.234 -20.916 -20.063  0.00  0.00    +0.182 C 
ATOM     15  H   UNL     1      35.340 -20.845 -20.035  0.00  0.00    +0.148 HD
ATOM     16  H   UNL     1      31.329 -20.298 -20.582  0.00  0.00    +0.148 HD
ENDBRANCH   1  12
BRANCH   1  17
ATOM     17  C   UNL     1      36.850 -19.015 -20.967  0.00  0.00    +0.006 C 
ATOM     18  C   UNL     1      38.057 -18.850 -21.864  0.00  0.00    +0.000 C 
ENDBRANCH   1  17
TORSDOF 2
ENDMDL
MODEL 8
REMARK VINA RESULT:      -7.1      8.754     10.826
REMARK  Name = 71310
REMARK  2 active torsions:
REMARK  status: ('A' for Active; 'I' for Inactive)
REMARK    1  A    between atoms: C_1  and  C_12
REMARK    2  A    between atoms: C_1  and  C_17
REMARK                            x       y       z     vdW  Elec       q    Type
REMARK                         _______ _______ _______ _____ _____    ______ ____
ROOT
ATOM      1  C   UNL     1      33.130  -7.898 -22.585  0.00  0.00    +0.040 C 
ATOM      2  C   UNL     1      32.676  -9.396 -22.576  0.00  0.00    +0.032 C 
ATOM      3  C   UNL     1      34.587  -7.951 -23.153  0.00  0.00    +0.032 C 
ATOM      4  C   UNL     1      33.452  -9.968 -23.724  0.00  0.00    -0.026 C 
ATOM      5  C   UNL     1      34.534  -9.147 -24.054  0.00  0.00    -0.026 C 
ATOM      6  C   UNL     1      33.228 -11.158 -24.396  0.00  0.00    -0.005 C 
ATOM      7  C   UNL     1      35.416  -9.497 -25.062  0.00  0.00    -0.005 C 
ATOM      8  C   UNL     1      34.104 -11.513 -25.423  0.00  0.00    -0.000 C 
ATOM      9  C   UNL     1      35.191 -10.688 -25.754  0.00  0.00    -0.000 C 
ENDROOT
BRANCH   1  12
ATOM     10  N   UNL     1      32.375  -5.764 -23.767  0.00  0.00    -0.319 N 
ATOM     11  N   UNL     1      30.412  -6.286 -24.666  0.00  0.00    -0.315 N 
ATOM     12  C   UNL     1      32.132  -7.058 -23.438  0.00  0.00    +0.037 C 
ATOM     13  C   UNL     1      30.926  -7.367 -23.995  0.00  0.00    +0.069 C 
ATOM     14  C   UNL     1      31.308  -5.338 -24.510  0.00  0.00    +0.182 C 
ATOM     15  H   UNL     1      33.166  -5.233 -23.520  0.00  0.00    +0.148 HD
ATOM     16  H   UNL     1      29.560  -6.233 -25.157  0.00  0.00    +0.148 HD
ENDBRANCH   1  12
BRANCH   1  17
ATOM     17  C   UNL     1      33.199  -7.336 -21.150  0.00  0.00    +0.006 C 
ATOM     18  C   UNL     1      32.350  -8.155 -20.203  0.00  0.00    +0.000 C 
ENDBRANCH   1  17
TORSDOF 2
ENDMDL
MODEL 9
REMARK VINA RESULT:      -7.0      6.464     10.540
REMARK  Name = 71310
REMARK  2 active torsions:
REMARK  status: ('A' for Active; 'I' for Inactive)
REMARK    1  A    between atoms: C_1  and  C_12
REMARK    2  A    between atoms: C_1  and  C_17
REMARK                            x       y       z     vdW  Elec       q    Type
REMARK                         _______ _______ _______ _____ _____    ______ ____
ROOT
ATOM      1  C   UNL     1      31.646 -10.314 -22.039  0.00  0.00    +0.040 C 
ATOM      2  C   UNL     1      32.438  -9.133 -21.383  0.00  0.00    +0.032 C 
ATOM      3  C   UNL     1      30.533  -9.599 -22.875  0.00  0.00    +0.032 C 
ATOM      4  C   UNL     1      32.271  -8.040 -22.395  0.00  0.00    -0.026 C 
ATOM      5  C   UNL     1      31.193  -8.305 -23.244  0.00  0.00    -0.026 C 
ATOM      6  C   UNL     1      33.006  -6.873 -22.519  0.00  0.00    -0.005 C 
ATOM      7  C   UNL     1      30.825  -7.410 -24.235  0.00  0.00    -0.005 C 
ATOM      8  C   UNL     1      32.652  -5.971 -23.523  0.00  0.00    -0.000 C 
ATOM      9  C   UNL     1      31.569  -6.237 -24.376  0.00  0.00    -0.000 C 
ENDROOT
BRANCH   1  12
ATOM     10  N   UNL     1      32.636 -12.546 -22.786  0.00  0.00    -0.319 N 
ATOM     11  N   UNL     1      34.194 -11.999 -24.271  0.00  0.00    -0.315 N 
ATOM     12  C   UNL     1      32.622 -11.191 -22.877  0.00  0.00    +0.037 C 
ATOM     13  C   UNL     1      33.582 -10.868 -23.791  0.00  0.00    +0.069 C 
ATOM     14  C   UNL     1      33.601 -12.992 -23.646  0.00  0.00    +0.182 C 
ATOM     15  H   UNL     1      32.061 -13.102 -22.211  0.00  0.00    +0.148 HD
ATOM     16  H   UNL     1      34.917 -12.054 -24.937  0.00  0.00    +0.148 HD
ENDBRANCH   1  12
BRANCH   1  17
ATOM     17  C   UNL     1      30.953 -11.175 -20.964  0.00  0.00    +0.006 C 
ATOM     18  C   UNL     1      31.394 -10.770 -19.574  0.00  0.00    +0.000 C 
ENDBRANCH   1  17
TORSDOF 2
ENDMDL
