MODEL 1
REMARK VINA RESULT:      -7.9      0.000      0.000
REMARK  Name = 448258
REMARK  4 active torsions:
REMARK  status: ('A' for Active; 'I' for Inactive)
REMARK    1  A    between atoms: N_2  and  N_13
REMARK    2  A    between atoms: N_2  and  C_27
REMARK    3  A    between atoms: C_3  and  C_4
REMARK    4  A    between atoms: C_14  and  C_18
REMARK                            x       y       z     vdW  Elec       q    Type
REMARK                         _______ _______ _______ _____ _____    ______ ____
ROOT
ATOM      1  O   UNL     1      34.037 -24.816 -12.384  0.00  0.00    -0.268 OA
ATOM      2  N   UNL     1      34.925 -23.529 -14.102  0.00  0.00    -0.208 N 
ATOM      3  C   UNL     1      33.897 -24.157 -13.413  0.00  0.00    +0.264 C 
ENDROOT
BRANCH   3   4
ATOM      4  C   UNL     1      32.527 -24.018 -13.941  0.00  0.00    +0.054 C 
ATOM      5  C   UNL     1      31.873 -25.138 -14.425  0.00  0.00    +0.000 C 
ATOM      6  C   UNL     1      31.924 -22.772 -13.939  0.00  0.00    +0.000 C 
ATOM      7  C   UNL     1      30.576 -25.006 -14.924  0.00  0.00    -0.022 C 
ATOM      8  C   UNL     1      30.628 -22.641 -14.438  0.00  0.00    -0.022 C 
ATOM      9  C   UNL     1      29.954 -23.758 -14.930  0.00  0.00    -0.009 C 
ATOM     10  C   UNL     1      29.855 -26.201 -15.450  0.00  0.00    +0.031 C 
ATOM     11  C   UNL     1      29.962 -21.306 -14.442  0.00  0.00    +0.031 C 
ENDBRANCH   3   4
BRANCH   2  13
ATOM     12  O   UNL     1      34.820 -24.655 -16.639  0.00  0.00    -0.269 OA
ATOM     13  N   UNL     1      34.728 -22.794 -15.260  0.00  0.00    -0.227 N 
ATOM     14  C   UNL     1      34.686 -23.428 -16.503  0.00  0.00    +0.261 C 
ATOM     15  H   UNL     1      34.616 -21.817 -15.205  0.00  0.00    +0.173 HD
BRANCH  14  18
ATOM     16  O   UNL     1      36.332 -20.374 -19.885  0.00  0.00    -0.469 OA
ATOM     17  O   UNL     1      33.673 -20.208 -20.990  0.00  0.00    -0.468 OA
ATOM     18  C   UNL     1      34.463 -22.574 -17.662  0.00  0.00    +0.054 C 
ATOM     19  C   UNL     1      35.513 -21.872 -18.255  0.00  0.00    +0.020 C 
ATOM     20  C   UNL     1      35.264 -21.056 -19.360  0.00  0.00    +0.168 C 
ATOM     21  C   UNL     1      33.974 -20.966 -19.887  0.00  0.00    +0.172 C 
ATOM     22  C   UNL     1      33.169 -22.463 -18.173  0.00  0.00    +0.008 C 
ATOM     23  C   UNL     1      32.923 -21.658 -19.286  0.00  0.00    +0.040 C 
ATOM     24  C   UNL     1      35.914 -19.327 -20.766  0.00  0.00    +0.253 C 
ATOM     25  C   UNL     1      36.898 -21.983 -17.701  0.00  0.00    +0.034 C 
ATOM     26  C   UNL     1      34.847 -19.834 -21.716  0.00  0.00    +0.253 C 
ENDBRANCH  14  18
ENDBRANCH   2  13
BRANCH   2  27
ATOM     27  C   UNL     1      36.311 -23.576 -13.683  0.00  0.00    +0.079 C 
ATOM     28  C   UNL     1      37.136 -22.617 -14.550  0.00  0.00    +0.022 C 
ATOM     29  C   UNL     1      36.405 -23.156 -12.213  0.00  0.00    +0.022 C 
ATOM     30  C   UNL     1      36.843 -25.005 -13.849  0.00  0.00    +0.022 C 
ENDBRANCH   2  27
TORSDOF 4
ENDMDL
MODEL 2
REMARK VINA RESULT:      -7.4      0.877      2.490
REMARK  Name = 448258
REMARK  4 active torsions:
REMARK  status: ('A' for Active; 'I' for Inactive)
REMARK    1  A    between atoms: N_2  and  N_13
REMARK    2  A    between atoms: N_2  and  C_27
REMARK    3  A    between atoms: C_3  and  C_4
REMARK    4  A    between atoms: C_14  and  C_18
REMARK                            x       y       z     vdW  Elec       q    Type
REMARK                         _______ _______ _______ _____ _____    ______ ____
ROOT
ATOM      1  O   UNL     1      34.137 -24.959 -11.978  0.00  0.00    -0.268 OA
ATOM      2  N   UNL     1      35.241 -23.742 -13.621  0.00  0.00    -0.208 N 
ATOM      3  C   UNL     1      34.121 -24.291 -13.010  0.00  0.00    +0.264 C 
ENDROOT
BRANCH   3   4
ATOM      4  C   UNL     1      32.807 -24.049 -13.633  0.00  0.00    +0.054 C 
ATOM      5  C   UNL     1      32.292 -22.764 -13.647  0.00  0.00    +0.000 C 
ATOM      6  C   UNL     1      32.118 -25.110 -14.194  0.00  0.00    +0.000 C 
ATOM      7  C   UNL     1      31.049 -22.534 -14.237  0.00  0.00    -0.022 C 
ATOM      8  C   UNL     1      30.874 -24.881 -14.784  0.00  0.00    -0.022 C 
ATOM      9  C   UNL     1      30.340 -23.593 -14.806  0.00  0.00    -0.009 C 
ATOM     10  C   UNL     1      30.477 -21.157 -14.261  0.00  0.00    +0.031 C 
ATOM     11  C   UNL     1      30.118 -26.013 -15.393  0.00  0.00    +0.031 C 
ENDBRANCH   3   4
BRANCH   2  13
ATOM     12  O   UNL     1      35.312 -24.851 -16.167  0.00  0.00    -0.269 OA
ATOM     13  N   UNL     1      35.183 -22.994 -14.785  0.00  0.00    -0.227 N 
ATOM     14  C   UNL     1      35.224 -23.620 -16.032  0.00  0.00    +0.261 C 
ATOM     15  H   UNL     1      35.111 -22.014 -14.732  0.00  0.00    +0.173 HD
BRANCH  14  18
ATOM     16  O   UNL     1      32.665 -21.480 -19.546  0.00  0.00    -0.469 OA
ATOM     17  O   UNL     1      35.077 -20.220 -20.499  0.00  0.00    -0.468 OA
ATOM     18  C   UNL     1      35.145 -22.752 -17.200  0.00  0.00    +0.054 C 
ATOM     19  C   UNL     1      33.927 -22.501 -17.833  0.00  0.00    +0.020 C 
ATOM     20  C   UNL     1      33.887 -21.671 -18.954  0.00  0.00    +0.168 C 
ATOM     21  C   UNL     1      35.058 -21.070 -19.423  0.00  0.00    +0.172 C 
ATOM     22  C   UNL     1      36.319 -22.173 -17.685  0.00  0.00    +0.008 C 
ATOM     23  C   UNL     1      36.277 -21.332 -18.797  0.00  0.00    +0.040 C 
ATOM     24  C   UNL     1      32.788 -20.915 -20.854  0.00  0.00    +0.253 C 
ATOM     25  C   UNL     1      32.670 -23.130 -17.320  0.00  0.00    +0.034 C 
ATOM     26  C   UNL     1      33.767 -19.757 -20.836  0.00  0.00    +0.253 C 
ENDBRANCH  14  18
ENDBRANCH   2  13
BRANCH   2  27
ATOM     27  C   UNL     1      36.586 -23.895 -13.105  0.00  0.00    +0.079 C 
ATOM     28  C   UNL     1      36.938 -25.385 -13.041  0.00  0.00    +0.022 C 
ATOM     29  C   UNL     1      37.564 -23.170 -14.034  0.00  0.00    +0.022 C 
ATOM     30  C   UNL     1      36.660 -23.289 -11.698  0.00  0.00    +0.022 C 
ENDBRANCH   2  27
TORSDOF 4
ENDMDL
MODEL 3
REMARK VINA RESULT:      -7.3      2.255      6.415
REMARK  Name = 448258
REMARK  4 active torsions:
REMARK  status: ('A' for Active; 'I' for Inactive)
REMARK    1  A    between atoms: N_2  and  N_13
REMARK    2  A    between atoms: N_2  and  C_27
REMARK    3  A    between atoms: C_3  and  C_4
REMARK    4  A    between atoms: C_14  and  C_18
REMARK                            x       y       z     vdW  Elec       q    Type
REMARK                         _______ _______ _______ _____ _____    ______ ____
ROOT
ATOM      1  O   UNL     1      30.812 -22.045 -17.223  0.00  0.00    -0.268 OA
ATOM      2  N   UNL     1      32.163 -23.641 -16.209  0.00  0.00    -0.208 N 
ATOM      3  C   UNL     1      31.898 -22.610 -17.100  0.00  0.00    +0.264 C 
ENDROOT
BRANCH   3   4
ATOM      4  C   UNL     1      33.000 -22.142 -17.961  0.00  0.00    +0.054 C 
ATOM      5  C   UNL     1      32.704 -21.433 -19.113  0.00  0.00    +0.000 C 
ATOM      6  C   UNL     1      34.306 -22.418 -17.597  0.00  0.00    +0.000 C 
ATOM      7  C   UNL     1      33.747 -20.989 -19.926  0.00  0.00    -0.022 C 
ATOM      8  C   UNL     1      35.349 -21.975 -18.411  0.00  0.00    -0.022 C 
ATOM      9  C   UNL     1      35.070 -21.260 -19.575  0.00  0.00    -0.009 C 
ATOM     10  C   UNL     1      33.448 -20.225 -21.172  0.00  0.00    +0.031 C 
ATOM     11  C   UNL     1      36.764 -22.262 -18.034  0.00  0.00    +0.031 C 
ENDBRANCH   3   4
BRANCH   2  13
ATOM     12  O   UNL     1      33.951 -23.134 -14.145  0.00  0.00    -0.269 OA
ATOM     13  N   UNL     1      33.401 -24.253 -16.100  0.00  0.00    -0.227 N 
ATOM     14  C   UNL     1      34.249 -23.949 -15.033  0.00  0.00    +0.261 C 
ATOM     15  H   UNL     1      33.684 -24.907 -16.778  0.00  0.00    +0.173 HD
BRANCH  14  18
ATOM     16  O   UNL     1      39.087 -23.917 -14.766  0.00  0.00    -0.469 OA
ATOM     17  O   UNL     1      39.084 -26.798 -14.863  0.00  0.00    -0.468 OA
ATOM     18  C   UNL     1      35.525 -24.651 -14.996  0.00  0.00    +0.054 C 
ATOM     19  C   UNL     1      36.730 -23.955 -14.882  0.00  0.00    +0.020 C 
ATOM     20  C   UNL     1      37.936 -24.656 -14.857  0.00  0.00    +0.168 C 
ATOM     21  C   UNL     1      37.935 -26.052 -14.916  0.00  0.00    +0.172 C 
ATOM     22  C   UNL     1      35.527 -26.043 -15.082  0.00  0.00    +0.008 C 
ATOM     23  C   UNL     1      36.732 -26.746 -15.043  0.00  0.00    +0.040 C 
ATOM     24  C   UNL     1      40.245 -24.689 -15.095  0.00  0.00    +0.253 C 
ATOM     25  C   UNL     1      36.728 -22.461 -14.801  0.00  0.00    +0.034 C 
ATOM     26  C   UNL     1      40.196 -26.033 -14.392  0.00  0.00    +0.253 C 
ENDBRANCH  14  18
ENDBRANCH   2  13
BRANCH   2  27
ATOM     27  C   UNL     1      31.173 -24.184 -15.301  0.00  0.00    +0.079 C 
ATOM     28  C   UNL     1      31.814 -25.292 -14.457  0.00  0.00    +0.022 C 
ATOM     29  C   UNL     1      30.665 -23.064 -14.387  0.00  0.00    +0.022 C 
ATOM     30  C   UNL     1      30.007 -24.764 -16.110  0.00  0.00    +0.022 C 
ENDBRANCH   2  27
TORSDOF 4
ENDMDL
MODEL 4
REMARK VINA RESULT:      -6.9      8.029     13.297
REMARK  Name = 448258
REMARK  4 active torsions:
REMARK  status: ('A' for Active; 'I' for Inactive)
REMARK    1  A    between atoms: N_2  and  N_13
REMARK    2  A    between atoms: N_2  and  C_27
REMARK    3  A    between atoms: C_3  and  C_4
REMARK    4  A    between atoms: C_14  and  C_18
REMARK                            x       y       z     vdW  Elec       q    Type
REMARK                         _______ _______ _______ _____ _____    ______ ____
ROOT
ATOM      1  O   UNL     1      31.975  -9.523 -23.306  0.00  0.00    -0.268 OA
ATOM      2  N   UNL     1      32.559 -11.512 -22.255  0.00  0.00    -0.208 N 
ATOM      3  C   UNL     1      32.573 -10.598 -23.300  0.00  0.00    +0.264 C 
ENDROOT
BRANCH   3   4
ATOM      4  C   UNL     1      33.374 -10.927 -24.494  0.00  0.00    +0.054 C 
ATOM      5  C   UNL     1      34.523 -10.201 -24.759  0.00  0.00    +0.000 C 
ATOM      6  C   UNL     1      32.962 -11.957 -25.322  0.00  0.00    +0.000 C 
ATOM      7  C   UNL     1      35.281 -10.514 -25.887  0.00  0.00    -0.022 C 
ATOM      8  C   UNL     1      33.720 -12.269 -26.451  0.00  0.00    -0.022 C 
ATOM      9  C   UNL     1      34.880 -11.548 -26.734  0.00  0.00    -0.009 C 
ATOM     10  C   UNL     1      36.522  -9.742 -26.189  0.00  0.00    +0.031 C 
ATOM     11  C   UNL     1      33.292 -13.376 -27.355  0.00  0.00    +0.031 C 
ENDBRANCH   3   4
BRANCH   2  13
ATOM     12  O   UNL     1      31.571 -13.819 -23.445  0.00  0.00    -0.269 OA
ATOM     13  N   UNL     1      33.247 -12.714 -22.286  0.00  0.00    -0.227 N 
ATOM     14  C   UNL     1      32.687 -13.835 -22.902  0.00  0.00    +0.261 C 
ATOM     15  H   UNL     1      34.137 -12.778 -21.870  0.00  0.00    +0.173 HD
BRANCH  14  18
ATOM     16  O   UNL     1      34.019 -18.009 -20.834  0.00  0.00    -0.469 OA
ATOM     17  O   UNL     1      35.821 -18.492 -23.033  0.00  0.00    -0.468 OA
ATOM     18  C   UNL     1      33.490 -15.051 -22.895  0.00  0.00    +0.054 C 
ATOM     19  C   UNL     1      33.374 -15.987 -21.866  0.00  0.00    +0.020 C 
ATOM     20  C   UNL     1      34.162 -17.138 -21.883  0.00  0.00    +0.168 C 
ATOM     21  C   UNL     1      35.044 -17.366 -22.943  0.00  0.00    +0.172 C 
ATOM     22  C   UNL     1      34.390 -15.266 -23.938  0.00  0.00    +0.008 C 
ATOM     23  C   UNL     1      35.169 -16.424 -23.964  0.00  0.00    +0.040 C 
ATOM     24  C   UNL     1      35.094 -18.950 -20.772  0.00  0.00    +0.253 C 
ATOM     25  C   UNL     1      32.416 -15.750 -20.741  0.00  0.00    +0.034 C 
ATOM     26  C   UNL     1      35.371 -19.522 -22.149  0.00  0.00    +0.253 C 
ENDBRANCH  14  18
ENDBRANCH   2  13
BRANCH   2  27
ATOM     27  C   UNL     1      31.824 -11.304 -21.024  0.00  0.00    +0.079 C 
ATOM     28  C   UNL     1      32.158  -9.917 -20.463  0.00  0.00    +0.022 C 
ATOM     29  C   UNL     1      30.323 -11.398 -21.315  0.00  0.00    +0.022 C 
ATOM     30  C   UNL     1      32.225 -12.379 -20.007  0.00  0.00    +0.022 C 
ENDBRANCH   2  27
TORSDOF 4
ENDMDL
MODEL 5
REMARK VINA RESULT:      -6.9      8.055     13.262
REMARK  Name = 448258
REMARK  4 active torsions:
REMARK  status: ('A' for Active; 'I' for Inactive)
REMARK    1  A    between atoms: N_2  and  N_13
REMARK    2  A    between atoms: N_2  and  C_27
REMARK    3  A    between atoms: C_3  and  C_4
REMARK    4  A    between atoms: C_14  and  C_18
REMARK                            x       y       z     vdW  Elec       q    Type
REMARK                         _______ _______ _______ _____ _____    ______ ____
ROOT
ATOM      1  O   UNL     1      32.054  -9.475 -23.335  0.00  0.00    -0.268 OA
ATOM      2  N   UNL     1      32.590 -11.480 -22.289  0.00  0.00    -0.208 N 
ATOM      3  C   UNL     1      32.629 -10.563 -23.330  0.00  0.00    +0.264 C 
ENDROOT
BRANCH   3   4
ATOM      4  C   UNL     1      33.428 -10.905 -24.521  0.00  0.00    +0.054 C 
ATOM      5  C   UNL     1      33.007 -11.935 -25.345  0.00  0.00    +0.000 C 
ATOM      6  C   UNL     1      34.581 -10.188 -24.791  0.00  0.00    +0.000 C 
ATOM      7  C   UNL     1      33.762 -12.258 -26.472  0.00  0.00    -0.022 C 
ATOM      8  C   UNL     1      35.336 -10.512 -25.919  0.00  0.00    -0.022 C 
ATOM      9  C   UNL     1      34.927 -11.546 -26.760  0.00  0.00    -0.009 C 
ATOM     10  C   UNL     1      33.324 -13.365 -27.372  0.00  0.00    +0.031 C 
ATOM     11  C   UNL     1      36.581  -9.749 -26.226  0.00  0.00    +0.031 C 
ENDBRANCH   3   4
BRANCH   2  13
ATOM     12  O   UNL     1      31.588 -13.743 -23.550  0.00  0.00    -0.269 OA
ATOM     13  N   UNL     1      33.252 -12.696 -22.321  0.00  0.00    -0.227 N 
ATOM     14  C   UNL     1      32.687 -13.793 -22.974  0.00  0.00    +0.261 C 
ATOM     15  H   UNL     1      34.127 -12.787 -21.879  0.00  0.00    +0.173 HD
BRANCH  14  18
ATOM     16  O   UNL     1      34.007 -17.941 -20.847  0.00  0.00    -0.469 OA
ATOM     17  O   UNL     1      35.709 -18.523 -23.100  0.00  0.00    -0.468 OA
ATOM     18  C   UNL     1      33.462 -15.027 -22.965  0.00  0.00    +0.054 C 
ATOM     19  C   UNL     1      33.366 -15.932 -21.907  0.00  0.00    +0.020 C 
ATOM     20  C   UNL     1      34.128 -17.101 -21.924  0.00  0.00    +0.168 C 
ATOM     21  C   UNL     1      34.962 -17.378 -23.010  0.00  0.00    +0.172 C 
ATOM     22  C   UNL     1      34.316 -15.290 -24.037  0.00  0.00    +0.008 C 
ATOM     23  C   UNL     1      35.067 -16.466 -24.061  0.00  0.00    +0.040 C 
ATOM     24  C   UNL     1      35.063 -18.905 -20.801  0.00  0.00    +0.253 C 
ATOM     25  C   UNL     1      32.459 -15.644 -20.752  0.00  0.00    +0.034 C 
ATOM     26  C   UNL     1      35.273 -19.520 -22.171  0.00  0.00    +0.253 C 
ENDBRANCH  14  18
ENDBRANCH   2  13
BRANCH   2  27
ATOM     27  C   UNL     1      31.854 -11.260 -21.060  0.00  0.00    +0.079 C 
ATOM     28  C   UNL     1      32.204  -9.877 -20.500  0.00  0.00    +0.022 C 
ATOM     29  C   UNL     1      30.353 -11.336 -21.355  0.00  0.00    +0.022 C 
ATOM     30  C   UNL     1      32.238 -12.339 -20.040  0.00  0.00    +0.022 C 
ENDBRANCH   2  27
TORSDOF 4
ENDMDL
MODEL 6
REMARK VINA RESULT:      -6.7      2.279      6.406
REMARK  Name = 448258
REMARK  4 active torsions:
REMARK  status: ('A' for Active; 'I' for Inactive)
REMARK    1  A    between atoms: N_2  and  N_13
REMARK    2  A    between atoms: N_2  and  C_27
REMARK    3  A    between atoms: C_3  and  C_4
REMARK    4  A    between atoms: C_14  and  C_18
REMARK                            x       y       z     vdW  Elec       q    Type
REMARK                         _______ _______ _______ _____ _____    ______ ____
ROOT
ATOM      1  O   UNL     1      30.802 -22.302 -17.328  0.00  0.00    -0.268 OA
ATOM      2  N   UNL     1      32.533 -23.410 -16.245  0.00  0.00    -0.208 N 
ATOM      3  C   UNL     1      31.993 -22.591 -17.227  0.00  0.00    +0.264 C 
ENDROOT
BRANCH   3   4
ATOM      4  C   UNL     1      32.913 -22.007 -18.221  0.00  0.00    +0.054 C 
ATOM      5  C   UNL     1      34.261 -22.316 -18.157  0.00  0.00    +0.000 C 
ATOM      6  C   UNL     1      32.409 -21.165 -19.197  0.00  0.00    +0.000 C 
ATOM      7  C   UNL     1      35.131 -21.765 -19.098  0.00  0.00    -0.022 C 
ATOM      8  C   UNL     1      33.280 -20.613 -20.137  0.00  0.00    -0.022 C 
ATOM      9  C   UNL     1      34.641 -20.914 -20.089  0.00  0.00    -0.009 C 
ATOM     10  C   UNL     1      36.587 -22.086 -19.046  0.00  0.00    +0.031 C 
ATOM     11  C   UNL     1      32.754 -19.704 -21.197  0.00  0.00    +0.031 C 
ENDBRANCH   3   4
BRANCH   2  13
ATOM     12  O   UNL     1      34.275 -22.191 -14.459  0.00  0.00    -0.269 OA
ATOM     13  N   UNL     1      33.882 -23.713 -16.163  0.00  0.00    -0.227 N 
ATOM     14  C   UNL     1      34.699 -23.058 -15.239  0.00  0.00    +0.261 C 
ATOM     15  H   UNL     1      34.267 -24.395 -16.760  0.00  0.00    +0.173 HD
BRANCH  14  18
ATOM     16  O   UNL     1      38.279 -25.867 -13.575  0.00  0.00    -0.469 OA
ATOM     17  O   UNL     1      40.131 -24.479 -15.296  0.00  0.00    -0.468 OA
ATOM     18  C   UNL     1      36.102 -23.451 -15.218  0.00  0.00    +0.054 C 
ATOM     19  C   UNL     1      36.547 -24.498 -14.409  0.00  0.00    +0.020 C 
ATOM     20  C   UNL     1      37.899 -24.845 -14.406  0.00  0.00    +0.168 C 
ATOM     21  C   UNL     1      38.798 -24.164 -15.231  0.00  0.00    +0.172 C 
ATOM     22  C   UNL     1      37.006 -22.754 -16.021  0.00  0.00    +0.008 C 
ATOM     23  C   UNL     1      38.355 -23.109 -16.028  0.00  0.00    +0.040 C 
ATOM     24  C   UNL     1      39.697 -25.905 -13.391  0.00  0.00    +0.253 C 
ATOM     25  C   UNL     1      35.580 -25.238 -13.540  0.00  0.00    +0.034 C 
ATOM     26  C   UNL     1      40.404 -25.762 -14.724  0.00  0.00    +0.253 C 
ENDBRANCH  14  18
ENDBRANCH   2  13
BRANCH   2  27
ATOM     27  C   UNL     1      31.741 -24.035 -15.204  0.00  0.00    +0.079 C 
ATOM     28  C   UNL     1      32.600 -25.068 -14.466  0.00  0.00    +0.022 C 
ATOM     29  C   UNL     1      31.267 -22.959 -14.223  0.00  0.00    +0.022 C 
ATOM     30  C   UNL     1      30.531 -24.731 -15.837  0.00  0.00    +0.022 C 
ENDBRANCH   2  27
TORSDOF 4
ENDMDL
MODEL 7
REMARK VINA RESULT:      -6.5      2.222      6.754
REMARK  Name = 448258
REMARK  4 active torsions:
REMARK  status: ('A' for Active; 'I' for Inactive)
REMARK    1  A    between atoms: N_2  and  N_13
REMARK    2  A    between atoms: N_2  and  C_27
REMARK    3  A    between atoms: C_3  and  C_4
REMARK    4  A    between atoms: C_14  and  C_18
REMARK                            x       y       z     vdW  Elec       q    Type
REMARK                         _______ _______ _______ _____ _____    ______ ____
ROOT
ATOM      1  O   UNL     1      30.416 -22.854 -17.386  0.00  0.00    -0.268 OA
ATOM      2  N   UNL     1      31.511 -23.245 -15.374  0.00  0.00    -0.208 N 
ATOM      3  C   UNL     1      31.446 -22.893 -16.716  0.00  0.00    +0.264 C 
ENDROOT
BRANCH   3   4
ATOM      4  C   UNL     1      32.702 -22.523 -17.393  0.00  0.00    +0.054 C 
ATOM      5  C   UNL     1      32.647 -21.903 -18.630  0.00  0.00    +0.000 C 
ATOM      6  C   UNL     1      33.911 -22.803 -16.778  0.00  0.00    +0.000 C 
ATOM      7  C   UNL     1      33.835 -21.552 -19.270  0.00  0.00    -0.022 C 
ATOM      8  C   UNL     1      35.099 -22.453 -17.420  0.00  0.00    -0.022 C 
ATOM      9  C   UNL     1      35.062 -21.827 -18.665  0.00  0.00    -0.009 C 
ATOM     10  C   UNL     1      33.795 -20.882 -20.603  0.00  0.00    +0.031 C 
ATOM     11  C   UNL     1      36.411 -22.746 -16.771  0.00  0.00    +0.031 C 
ENDBRANCH   3   4
BRANCH   2  13
ATOM     12  O   UNL     1      32.768 -25.592 -14.583  0.00  0.00    -0.269 OA
ATOM     13  N   UNL     1      32.693 -23.276 -14.652  0.00  0.00    -0.227 N 
ATOM     14  C   UNL     1      33.268 -24.495 -14.288  0.00  0.00    +0.261 C 
ATOM     15  H   UNL     1      33.130 -22.432 -14.394  0.00  0.00    +0.173 HD
BRANCH  14  18
ATOM     16  O   UNL     1      37.998 -25.455 -13.859  0.00  0.00    -0.469 OA
ATOM     17  O   UNL     1      38.008 -24.125 -11.300  0.00  0.00    -0.468 OA
ATOM     18  C   UNL     1      34.516 -24.428 -13.540  0.00  0.00    +0.054 C 
ATOM     19  C   UNL     1      35.698 -24.964 -14.055  0.00  0.00    +0.020 C 
ATOM     20  C   UNL     1      36.875 -24.891 -13.309  0.00  0.00    +0.168 C 
ATOM     21  C   UNL     1      36.877 -24.257 -12.064  0.00  0.00    +0.172 C 
ATOM     22  C   UNL     1      34.513 -23.819 -12.284  0.00  0.00    +0.008 C 
ATOM     23  C   UNL     1      35.694 -23.734 -11.544  0.00  0.00    +0.040 C 
ATOM     24  C   UNL     1      39.035 -25.631 -12.889  0.00  0.00    +0.253 C 
ATOM     25  C   UNL     1      35.699 -25.627 -15.396  0.00  0.00    +0.034 C 
ATOM     26  C   UNL     1      39.195 -24.374 -12.057  0.00  0.00    +0.253 C 
ENDBRANCH  14  18
ENDBRANCH   2  13
BRANCH   2  27
ATOM     27  C   UNL     1      30.351 -23.615 -14.590  0.00  0.00    +0.079 C 
ATOM     28  C   UNL     1      30.725 -23.621 -13.103  0.00  0.00    +0.022 C 
ATOM     29  C   UNL     1      29.233 -22.598 -14.839  0.00  0.00    +0.022 C 
ATOM     30  C   UNL     1      29.882 -25.014 -15.008  0.00  0.00    +0.022 C 
ENDBRANCH   2  27
TORSDOF 4
ENDMDL
MODEL 8
REMARK VINA RESULT:      -6.2     12.767     16.687
REMARK  Name = 448258
REMARK  4 active torsions:
REMARK  status: ('A' for Active; 'I' for Inactive)
REMARK    1  A    between atoms: N_2  and  N_13
REMARK    2  A    between atoms: N_2  and  C_27
REMARK    3  A    between atoms: C_3  and  C_4
REMARK    4  A    between atoms: C_14  and  C_18
REMARK                            x       y       z     vdW  Elec       q    Type
REMARK                         _______ _______ _______ _____ _____    ______ ____
ROOT
ATOM      1  O   UNL     1      32.917 -12.852 -22.193  0.00  0.00    -0.268 OA
ATOM      2  N   UNL     1      32.266 -10.629 -22.370  0.00  0.00    -0.208 N 
ATOM      3  C   UNL     1      32.855 -11.800 -22.827  0.00  0.00    +0.264 C 
ENDROOT
BRANCH   3   4
ATOM      4  C   UNL     1      33.444 -11.794 -24.179  0.00  0.00    +0.054 C 
ATOM      5  C   UNL     1      34.397 -10.843 -24.497  0.00  0.00    +0.000 C 
ATOM      6  C   UNL     1      33.031 -12.742 -25.100  0.00  0.00    +0.000 C 
ATOM      7  C   UNL     1      34.954 -10.838 -25.776  0.00  0.00    -0.022 C 
ATOM      8  C   UNL     1      33.588 -12.737 -26.379  0.00  0.00    -0.022 C 
ATOM      9  C   UNL     1      34.550 -11.785 -26.717  0.00  0.00    -0.009 C 
ATOM     10  C   UNL     1      35.983  -9.820 -26.138  0.00  0.00    +0.031 C 
ATOM     11  C   UNL     1      33.157 -13.751 -27.385  0.00  0.00    +0.031 C 
ENDBRANCH   3   4
BRANCH   2  13
ATOM     12  O   UNL     1      34.082  -8.546 -22.087  0.00  0.00    -0.269 OA
ATOM     13  N   UNL     1      32.216  -9.462 -23.114  0.00  0.00    -0.227 N 
ATOM     14  C   UNL     1      33.164  -8.455 -22.918  0.00  0.00    +0.261 C 
ATOM     15  H   UNL     1      31.507  -9.341 -23.786  0.00  0.00    +0.173 HD
BRANCH  14  18
ATOM     16  O   UNL     1      30.838  -4.394 -24.171  0.00  0.00    -0.469 OA
ATOM     17  O   UNL     1      32.831  -3.911 -26.199  0.00  0.00    -0.468 OA
ATOM     18  C   UNL     1      33.037  -7.269 -23.755  0.00  0.00    +0.054 C 
ATOM     19  C   UNL     1      31.994  -6.361 -23.567  0.00  0.00    +0.020 C 
ATOM     20  C   UNL     1      31.896  -5.238 -24.390  0.00  0.00    +0.168 C 
ATOM     21  C   UNL     1      32.855  -5.011 -25.381  0.00  0.00    +0.172 C 
ATOM     22  C   UNL     1      33.979  -7.056 -24.762  0.00  0.00    +0.008 C 
ATOM     23  C   UNL     1      33.889  -5.926 -25.576  0.00  0.00    +0.040 C 
ATOM     24  C   UNL     1      30.640  -3.494 -25.265  0.00  0.00    +0.253 C 
ATOM     25  C   UNL     1      30.978  -6.596 -22.494  0.00  0.00    +0.034 C 
ATOM     26  C   UNL     1      31.963  -2.892 -25.697  0.00  0.00    +0.253 C 
ENDBRANCH  14  18
ENDBRANCH   2  13
BRANCH   2  27
ATOM     27  C   UNL     1      31.643 -10.505 -21.068  0.00  0.00    +0.079 C 
ATOM     28  C   UNL     1      31.621  -9.029 -20.655  0.00  0.00    +0.022 C 
ATOM     29  C   UNL     1      30.210 -11.043 -21.146  0.00  0.00    +0.022 C 
ATOM     30  C   UNL     1      32.446 -11.314 -20.042  0.00  0.00    +0.022 C 
ENDBRANCH   2  27
TORSDOF 4
ENDMDL
MODEL 9
REMARK VINA RESULT:      -6.2     12.726     16.608
REMARK  Name = 448258
REMARK  4 active torsions:
REMARK  status: ('A' for Active; 'I' for Inactive)
REMARK    1  A    between atoms: N_2  and  N_13
REMARK    2  A    between atoms: N_2  and  C_27
REMARK    3  A    between atoms: C_3  and  C_4
REMARK    4  A    between atoms: C_14  and  C_18
REMARK                            x       y       z     vdW  Elec       q    Type
REMARK                         _______ _______ _______ _____ _____    ______ ____
ROOT
ATOM      1  O   UNL     1      32.924 -12.865 -22.179  0.00  0.00    -0.268 OA
ATOM      2  N   UNL     1      32.267 -10.643 -22.354  0.00  0.00    -0.208 N 
ATOM      3  C   UNL     1      32.858 -11.813 -22.812  0.00  0.00    +0.264 C 
ENDROOT
BRANCH   3   4
ATOM      4  C   UNL     1      33.444 -11.806 -24.165  0.00  0.00    +0.054 C 
ATOM      5  C   UNL     1      33.029 -12.752 -25.087  0.00  0.00    +0.000 C 
ATOM      6  C   UNL     1      34.395 -10.852 -24.486  0.00  0.00    +0.000 C 
ATOM      7  C   UNL     1      33.583 -12.744 -26.367  0.00  0.00    -0.022 C 
ATOM      8  C   UNL     1      34.949 -10.845 -25.766  0.00  0.00    -0.022 C 
ATOM      9  C   UNL     1      34.542 -11.790 -26.707  0.00  0.00    -0.009 C 
ATOM     10  C   UNL     1      33.148 -13.755 -27.374  0.00  0.00    +0.031 C 
ATOM     11  C   UNL     1      35.974  -9.823 -26.130  0.00  0.00    +0.031 C 
ENDBRANCH   3   4
BRANCH   2  13
ATOM     12  O   UNL     1      34.078  -8.556 -22.074  0.00  0.00    -0.269 OA
ATOM     13  N   UNL     1      32.213  -9.476 -23.098  0.00  0.00    -0.227 N 
ATOM     14  C   UNL     1      33.158  -8.467 -22.903  0.00  0.00    +0.261 C 
ATOM     15  H   UNL     1      31.502  -9.357 -23.769  0.00  0.00    +0.173 HD
BRANCH  14  18
ATOM     16  O   UNL     1      30.826  -4.407 -24.148  0.00  0.00    -0.469 OA
ATOM     17  O   UNL     1      32.810  -3.924 -26.184  0.00  0.00    -0.468 OA
ATOM     18  C   UNL     1      33.027  -7.282 -23.740  0.00  0.00    +0.054 C 
ATOM     19  C   UNL     1      31.985  -6.373 -23.548  0.00  0.00    +0.020 C 
ATOM     20  C   UNL     1      31.883  -5.251 -24.371  0.00  0.00    +0.168 C 
ATOM     21  C   UNL     1      32.837  -5.024 -25.366  0.00  0.00    +0.172 C 
ATOM     22  C   UNL     1      33.965  -7.068 -24.751  0.00  0.00    +0.008 C 
ATOM     23  C   UNL     1      33.871  -5.939 -25.566  0.00  0.00    +0.040 C 
ATOM     24  C   UNL     1      30.622  -3.507 -25.240  0.00  0.00    +0.253 C 
ATOM     25  C   UNL     1      30.974  -6.608 -22.470  0.00  0.00    +0.034 C 
ATOM     26  C   UNL     1      31.943  -2.905 -25.678  0.00  0.00    +0.253 C 
ENDBRANCH  14  18
ENDBRANCH   2  13
BRANCH   2  27
ATOM     27  C   UNL     1      31.645 -10.521 -21.051  0.00  0.00    +0.079 C 
ATOM     28  C   UNL     1      31.668  -9.052 -20.615  0.00  0.00    +0.022 C 
ATOM     29  C   UNL     1      30.197 -11.014 -21.139  0.00  0.00    +0.022 C 
ATOM     30  C   UNL     1      32.422 -11.370 -20.038  0.00  0.00    +0.022 C 
ENDBRANCH   2  27
TORSDOF 4
ENDMDL
