MODEL 1
REMARK VINA RESULT:     -10.2      0.000      0.000
REMARK  Name = 5326979
REMARK  7 active torsions:
REMARK  status: ('A' for Active; 'I' for Inactive)
REMARK    1  A    between atoms: C_1  and  C_7
REMARK    2  A    between atoms: C_2  and  O_15
REMARK    3  A    between atoms: C_12  and  C_14
REMARK    4  A    between atoms: O_15  and  C_16
REMARK    5  A    between atoms: C_16  and  C_17
REMARK    6  A    between atoms: C_17  and  N_19
REMARK    7  A    between atoms: N_20  and  O_24
REMARK                            x       y       z     vdW  Elec       q    Type
REMARK                         _______ _______ _______ _____ _____    ______ ____
ROOT
ATOM      1  C   UNL     1      34.531 -18.759 -22.130  0.00  0.00    +0.000 C 
ATOM      2  C   UNL     1      34.684 -16.818 -24.115  0.00  0.00    +0.139 C 
ATOM      3  C   UNL     1      34.554 -17.408 -21.784  0.00  0.00    +0.003 C 
ATOM      4  C   UNL     1      34.585 -19.136 -23.473  0.00  0.00    +0.003 C 
ATOM      5  C   UNL     1      34.630 -16.435 -22.780  0.00  0.00    +0.037 C 
ATOM      6  C   UNL     1      34.662 -18.162 -24.468  0.00  0.00    +0.037 C 
ENDROOT
BRANCH   1   7
ATOM      7  C   UNL     1      34.452 -19.769 -21.099  0.00  0.00    +0.000 C 
ATOM      8  C   UNL     1      33.210 -20.159 -20.598  0.00  0.00    +0.001 C 
ATOM      9  C   UNL     1      35.618 -20.356 -20.604  0.00  0.00    +0.001 C 
ATOM     10  C   UNL     1      33.133 -21.135 -19.604  0.00  0.00    +0.010 C 
ATOM     11  C   UNL     1      35.541 -21.330 -19.610  0.00  0.00    +0.010 C 
ATOM     12  C   UNL     1      34.298 -21.720 -19.109  0.00  0.00    +0.068 C 
BRANCH  12  14
ATOM     13  N   UNL     1      34.155 -23.531 -17.263  0.00  0.00    -0.191 NA
ATOM     14  C   UNL     1      34.220 -22.719 -18.091  0.00  0.00    +0.100 C 
ENDBRANCH  12  14
ENDBRANCH   1   7
BRANCH   2  15
ATOM     15  O   UNL     1      34.759 -15.861 -25.093  0.00  0.00    -0.474 OA
BRANCH  15  16
ATOM     16  C   UNL     1      33.575 -15.611 -25.839  0.00  0.00    +0.227 C 
BRANCH  16  17
ATOM     17  C   UNL     1      32.824 -14.448 -25.218  0.00  0.00    +0.142 C 
BRANCH  17  19
ATOM     18  O   UNL     1      33.865 -12.610 -23.363  0.00  0.00    -0.250 OA
ATOM     19  N   UNL     1      33.426 -13.170 -25.574  0.00  0.00    -0.257 N 
ATOM     20  N   UNL     1      34.554 -11.188 -25.019  0.00  0.00    -0.181 N 
ATOM     21  C   UNL     1      33.502 -12.880 -27.004  0.00  0.00    +0.117 C 
ATOM     22  C   UNL     1      33.944 -12.339 -24.566  0.00  0.00    +0.326 C 
ATOM     23  H   UNL     1      34.621 -10.967 -25.976  0.00  0.00    +0.184 HD
BRANCH  20  24
ATOM     24  O   UNL     1      35.075 -10.351 -24.019  0.00  0.00    -0.294 OA
ATOM     25  H   UNL     1      34.977  -9.424 -24.288  0.00  0.00    +0.241 HD
ENDBRANCH  20  24
ENDBRANCH  17  19
ENDBRANCH  16  17
ENDBRANCH  15  16
ENDBRANCH   2  15
TORSDOF 7
ENDMDL
MODEL 2
REMARK VINA RESULT:     -10.2      1.276      2.082
REMARK  Name = 5326979
REMARK  7 active torsions:
REMARK  status: ('A' for Active; 'I' for Inactive)
REMARK    1  A    between atoms: C_1  and  C_7
REMARK    2  A    between atoms: C_2  and  O_15
REMARK    3  A    between atoms: C_12  and  C_14
REMARK    4  A    between atoms: O_15  and  C_16
REMARK    5  A    between atoms: C_16  and  C_17
REMARK    6  A    between atoms: C_17  and  N_19
REMARK    7  A    between atoms: N_20  and  O_24
REMARK                            x       y       z     vdW  Elec       q    Type
REMARK                         _______ _______ _______ _____ _____    ______ ____
ROOT
ATOM      1  C   UNL     1      35.015 -18.352 -22.827  0.00  0.00    +0.000 C 
ATOM      2  C   UNL     1      34.510 -16.677 -24.988  0.00  0.00    +0.139 C 
ATOM      3  C   UNL     1      34.571 -18.888 -24.035  0.00  0.00    +0.003 C 
ATOM      4  C   UNL     1      35.205 -16.975 -22.702  0.00  0.00    +0.003 C 
ATOM      5  C   UNL     1      34.319 -18.048 -25.119  0.00  0.00    +0.037 C 
ATOM      6  C   UNL     1      34.952 -16.135 -23.786  0.00  0.00    +0.037 C 
ENDROOT
BRANCH   1   7
ATOM      7  C   UNL     1      35.277 -19.223 -21.702  0.00  0.00    +0.000 C 
ATOM      8  C   UNL     1      36.562 -19.300 -21.165  0.00  0.00    +0.001 C 
ATOM      9  C   UNL     1      34.244 -19.983 -21.152  0.00  0.00    +0.001 C 
ATOM     10  C   UNL     1      36.816 -20.139 -20.079  0.00  0.00    +0.010 C 
ATOM     11  C   UNL     1      34.498 -20.822 -20.067  0.00  0.00    +0.010 C 
ATOM     12  C   UNL     1      35.784 -20.900 -19.530  0.00  0.00    +0.068 C 
BRANCH  12  14
ATOM     13  N   UNL     1      36.254 -22.458 -17.515  0.00  0.00    -0.191 NA
ATOM     14  C   UNL     1      36.043 -21.759 -18.419  0.00  0.00    +0.100 C 
ENDBRANCH  12  14
ENDBRANCH   1   7
BRANCH   2  15
ATOM     15  O   UNL     1      34.262 -15.852 -26.053  0.00  0.00    -0.474 OA
BRANCH  15  16
ATOM     16  C   UNL     1      33.009 -15.180 -26.066  0.00  0.00    +0.227 C 
BRANCH  16  17
ATOM     17  C   UNL     1      33.229 -13.706 -26.352  0.00  0.00    +0.142 C 
BRANCH  17  19
ATOM     18  O   UNL     1      34.746 -11.343 -26.217  0.00  0.00    -0.250 OA
ATOM     19  N   UNL     1      33.475 -12.953 -25.129  0.00  0.00    -0.257 N 
ATOM     20  N   UNL     1      34.334 -11.096 -23.979  0.00  0.00    -0.181 N 
ATOM     21  C   UNL     1      32.843 -13.481 -23.921  0.00  0.00    +0.117 C 
ATOM     22  C   UNL     1      34.223 -11.765 -25.181  0.00  0.00    +0.326 C 
ATOM     23  H   UNL     1      33.918 -11.428 -23.150  0.00  0.00    +0.184 HD
BRANCH  20  24
ATOM     24  O   UNL     1      35.080  -9.907 -24.020  0.00  0.00    -0.294 OA
ATOM     25  H   UNL     1      35.059  -9.543 -24.918  0.00  0.00    +0.241 HD
ENDBRANCH  20  24
ENDBRANCH  17  19
ENDBRANCH  16  17
ENDBRANCH  15  16
ENDBRANCH   2  15
TORSDOF 7
ENDMDL
MODEL 3
REMARK VINA RESULT:     -10.1      5.394     10.494
REMARK  Name = 5326979
REMARK  7 active torsions:
REMARK  status: ('A' for Active; 'I' for Inactive)
REMARK    1  A    between atoms: C_1  and  C_7
REMARK    2  A    between atoms: C_2  and  O_15
REMARK    3  A    between atoms: C_12  and  C_14
REMARK    4  A    between atoms: O_15  and  C_16
REMARK    5  A    between atoms: C_16  and  C_17
REMARK    6  A    between atoms: C_17  and  N_19
REMARK    7  A    between atoms: N_20  and  O_24
REMARK                            x       y       z     vdW  Elec       q    Type
REMARK                         _______ _______ _______ _____ _____    ______ ____
ROOT
ATOM      1  C   UNL     1      34.739 -20.121 -20.823  0.00  0.00    +0.000 C 
ATOM      2  C   UNL     1      34.867 -21.930 -18.715  0.00  0.00    +0.139 C 
ATOM      3  C   UNL     1      35.977 -20.501 -20.304  0.00  0.00    +0.003 C 
ATOM      4  C   UNL     1      33.565 -20.649 -20.283  0.00  0.00    +0.003 C 
ATOM      5  C   UNL     1      36.041 -21.408 -19.247  0.00  0.00    +0.037 C 
ATOM      6  C   UNL     1      33.629 -21.556 -19.226  0.00  0.00    +0.037 C 
ENDROOT
BRANCH   1   7
ATOM      7  C   UNL     1      34.671 -19.180 -21.918  0.00  0.00    +0.000 C 
ATOM      8  C   UNL     1      34.544 -17.815 -21.659  0.00  0.00    +0.001 C 
ATOM      9  C   UNL     1      34.736 -19.636 -23.236  0.00  0.00    +0.001 C 
ATOM     10  C   UNL     1      34.480 -16.907 -22.716  0.00  0.00    +0.010 C 
ATOM     11  C   UNL     1      34.671 -18.728 -24.292  0.00  0.00    +0.010 C 
ATOM     12  C   UNL     1      34.543 -17.363 -24.033  0.00  0.00    +0.068 C 
BRANCH  12  14
ATOM     13  N   UNL     1      34.425 -15.676 -25.995  0.00  0.00    -0.191 NA
ATOM     14  C   UNL     1      34.478 -16.433 -25.115  0.00  0.00    +0.100 C 
ENDBRANCH  12  14
ENDBRANCH   1   7
BRANCH   2  15
ATOM     15  O   UNL     1      34.931 -22.821 -17.676  0.00  0.00    -0.474 OA
BRANCH  15  16
ATOM     16  C   UNL     1      33.708 -23.421 -17.269  0.00  0.00    +0.227 C 
BRANCH  16  17
ATOM     17  C   UNL     1      33.588 -23.348 -15.758  0.00  0.00    +0.142 C 
BRANCH  17  19
ATOM     18  O   UNL     1      32.848 -24.574 -13.339  0.00  0.00    -0.250 OA
ATOM     19  N   UNL     1      32.212 -23.541 -15.319  0.00  0.00    -0.257 N 
ATOM     20  N   UNL     1      30.622 -24.209 -13.726  0.00  0.00    -0.181 N 
ATOM     21  C   UNL     1      31.182 -23.017 -16.212  0.00  0.00    +0.117 C 
ATOM     22  C   UNL     1      31.956 -24.140 -14.073  0.00  0.00    +0.326 C 
ATOM     23  H   UNL     1      29.907 -23.863 -14.308  0.00  0.00    +0.184 HD
BRANCH  20  24
ATOM     24  O   UNL     1      30.356 -24.806 -12.483  0.00  0.00    -0.294 OA
ATOM     25  H   UNL     1      31.105 -24.657 -11.886  0.00  0.00    +0.241 HD
ENDBRANCH  20  24
ENDBRANCH  17  19
ENDBRANCH  16  17
ENDBRANCH  15  16
ENDBRANCH   2  15
TORSDOF 7
ENDMDL
MODEL 4
REMARK VINA RESULT:     -10.1      5.408     10.893
REMARK  Name = 5326979
REMARK  7 active torsions:
REMARK  status: ('A' for Active; 'I' for Inactive)
REMARK    1  A    between atoms: C_1  and  C_7
REMARK    2  A    between atoms: C_2  and  O_15
REMARK    3  A    between atoms: C_12  and  C_14
REMARK    4  A    between atoms: O_15  and  C_16
REMARK    5  A    between atoms: C_16  and  C_17
REMARK    6  A    between atoms: C_17  and  N_19
REMARK    7  A    between atoms: N_20  and  O_24
REMARK                            x       y       z     vdW  Elec       q    Type
REMARK                         _______ _______ _______ _____ _____    ______ ____
ROOT
ATOM      1  C   UNL     1      34.610 -20.257 -20.764  0.00  0.00    +0.000 C 
ATOM      2  C   UNL     1      34.616 -22.093 -18.676  0.00  0.00    +0.139 C 
ATOM      3  C   UNL     1      33.404 -20.735 -20.253  0.00  0.00    +0.003 C 
ATOM      4  C   UNL     1      35.819 -20.699 -20.227  0.00  0.00    +0.003 C 
ATOM      5  C   UNL     1      33.407 -21.656 -19.205  0.00  0.00    +0.037 C 
ATOM      6  C   UNL     1      35.823 -21.620 -19.180  0.00  0.00    +0.037 C 
ENDROOT
BRANCH   1   7
ATOM      7  C   UNL     1      34.607 -19.302 -21.850  0.00  0.00    +0.000 C 
ATOM      8  C   UNL     1      34.559 -17.935 -21.578  0.00  0.00    +0.001 C 
ATOM      9  C   UNL     1      34.655 -19.748 -23.172  0.00  0.00    +0.001 C 
ATOM     10  C   UNL     1      34.558 -17.013 -22.625  0.00  0.00    +0.010 C 
ATOM     11  C   UNL     1      34.653 -18.826 -24.219  0.00  0.00    +0.010 C 
ATOM     12  C   UNL     1      34.605 -17.459 -23.946  0.00  0.00    +0.068 C 
BRANCH  12  14
ATOM     13  N   UNL     1      34.603 -15.748 -25.891  0.00  0.00    -0.191 NA
ATOM     14  C   UNL     1      34.604 -16.516 -25.018  0.00  0.00    +0.100 C 
ENDBRANCH  12  14
ENDBRANCH   1   7
BRANCH   2  15
ATOM     15  O   UNL     1      34.619 -22.997 -17.647  0.00  0.00    -0.474 OA
BRANCH  15  16
ATOM     16  C   UNL     1      35.526 -22.754 -16.581  0.00  0.00    +0.227 C 
BRANCH  16  17
ATOM     17  C   UNL     1      35.202 -23.678 -15.421  0.00  0.00    +0.142 C 
BRANCH  17  19
ATOM     18  O   UNL     1      36.086 -26.330 -15.714  0.00  0.00    -0.250 OA
ATOM     19  N   UNL     1      36.410 -24.216 -14.810  0.00  0.00    -0.257 N 
ATOM     20  N   UNL     1      37.973 -25.936 -14.480  0.00  0.00    -0.181 N 
ATOM     21  C   UNL     1      37.201 -23.268 -14.027  0.00  0.00    +0.117 C 
ATOM     22  C   UNL     1      36.776 -25.551 -15.048  0.00  0.00    +0.326 C 
ATOM     23  H   UNL     1      38.527 -25.318 -13.948  0.00  0.00    +0.184 HD
BRANCH  20  24
ATOM     24  O   UNL     1      38.348 -27.269 -14.712  0.00  0.00    -0.294 OA
ATOM     25  H   UNL     1      37.899 -27.847 -14.076  0.00  0.00    +0.241 HD
ENDBRANCH  20  24
ENDBRANCH  17  19
ENDBRANCH  16  17
ENDBRANCH  15  16
ENDBRANCH   2  15
TORSDOF 7
ENDMDL
MODEL 5
REMARK VINA RESULT:     -10.1      5.384     10.871
REMARK  Name = 5326979
REMARK  7 active torsions:
REMARK  status: ('A' for Active; 'I' for Inactive)
REMARK    1  A    between atoms: C_1  and  C_7
REMARK    2  A    between atoms: C_2  and  O_15
REMARK    3  A    between atoms: C_12  and  C_14
REMARK    4  A    between atoms: O_15  and  C_16
REMARK    5  A    between atoms: C_16  and  C_17
REMARK    6  A    between atoms: C_17  and  N_19
REMARK    7  A    between atoms: N_20  and  O_24
REMARK                            x       y       z     vdW  Elec       q    Type
REMARK                         _______ _______ _______ _____ _____    ______ ____
ROOT
ATOM      1  C   UNL     1      34.869 -20.210 -20.737  0.00  0.00    +0.000 C 
ATOM      2  C   UNL     1      35.041 -22.024 -18.636  0.00  0.00    +0.139 C 
ATOM      3  C   UNL     1      36.115 -20.563 -20.221  0.00  0.00    +0.003 C 
ATOM      4  C   UNL     1      33.708 -20.767 -20.198  0.00  0.00    +0.003 C 
ATOM      5  C   UNL     1      36.202 -21.473 -19.168  0.00  0.00    +0.037 C 
ATOM      6  C   UNL     1      33.794 -21.677 -19.145  0.00  0.00    +0.037 C 
ENDROOT
BRANCH   1   7
ATOM      7  C   UNL     1      34.778 -19.267 -21.829  0.00  0.00    +0.000 C 
ATOM      8  C   UNL     1      34.771 -19.724 -23.147  0.00  0.00    +0.001 C 
ATOM      9  C   UNL     1      34.695 -17.899 -21.565  0.00  0.00    +0.001 C 
ATOM     10  C   UNL     1      34.683 -18.814 -24.201  0.00  0.00    +0.010 C 
ATOM     11  C   UNL     1      34.607 -16.990 -22.619  0.00  0.00    +0.010 C 
ATOM     12  C   UNL     1      34.601 -17.447 -23.937  0.00  0.00    +0.068 C 
BRANCH  12  14
ATOM     13  N   UNL     1      34.437 -15.758 -25.894  0.00  0.00    -0.191 NA
ATOM     14  C   UNL     1      34.510 -16.516 -25.017  0.00  0.00    +0.100 C 
ENDBRANCH  12  14
ENDBRANCH   1   7
BRANCH   2  15
ATOM     15  O   UNL     1      35.127 -22.917 -17.601  0.00  0.00    -0.474 OA
BRANCH  15  16
ATOM     16  C   UNL     1      35.838 -22.494 -16.445  0.00  0.00    +0.227 C 
BRANCH  16  17
ATOM     17  C   UNL     1      35.356 -23.281 -15.240  0.00  0.00    +0.142 C 
BRANCH  17  19
ATOM     18  O   UNL     1      36.062 -25.950 -15.768  0.00  0.00    -0.250 OA
ATOM     19  N   UNL     1      36.450 -23.988 -14.588  0.00  0.00    -0.257 N 
ATOM     20  N   UNL     1      37.837 -25.864 -14.325  0.00  0.00    -0.181 N 
ATOM     21  C   UNL     1      37.227 -23.208 -13.627  0.00  0.00    +0.117 C 
ATOM     22  C   UNL     1      36.737 -25.315 -14.952  0.00  0.00    +0.326 C 
ATOM     23  H   UNL     1      38.378 -25.362 -13.674  0.00  0.00    +0.184 HD
BRANCH  20  24
ATOM     24  O   UNL     1      38.131 -27.190 -14.682  0.00  0.00    -0.294 OA
ATOM     25  H   UNL     1      38.625 -27.616 -13.964  0.00  0.00    +0.241 HD
ENDBRANCH  20  24
ENDBRANCH  17  19
ENDBRANCH  16  17
ENDBRANCH  15  16
ENDBRANCH   2  15
TORSDOF 7
ENDMDL
MODEL 6
REMARK VINA RESULT:      -9.6      6.515     11.717
REMARK  Name = 5326979
REMARK  7 active torsions:
REMARK  status: ('A' for Active; 'I' for Inactive)
REMARK    1  A    between atoms: C_1  and  C_7
REMARK    2  A    between atoms: C_2  and  O_15
REMARK    3  A    between atoms: C_12  and  C_14
REMARK    4  A    between atoms: O_15  and  C_16
REMARK    5  A    between atoms: C_16  and  C_17
REMARK    6  A    between atoms: C_17  and  N_19
REMARK    7  A    between atoms: N_20  and  O_24
REMARK                            x       y       z     vdW  Elec       q    Type
REMARK                         _______ _______ _______ _____ _____    ______ ____
ROOT
ATOM      1  C   UNL     1      34.733 -22.142 -18.088  0.00  0.00    +0.000 C 
ATOM      2  C   UNL     1      34.751 -23.708 -15.790  0.00  0.00    +0.139 C 
ATOM      3  C   UNL     1      35.879 -22.203 -17.296  0.00  0.00    +0.003 C 
ATOM      4  C   UNL     1      33.596 -22.867 -17.727  0.00  0.00    +0.003 C 
ATOM      5  C   UNL     1      35.888 -22.989 -16.143  0.00  0.00    +0.037 C 
ATOM      6  C   UNL     1      33.605 -23.652 -16.575  0.00  0.00    +0.037 C 
ENDROOT
BRANCH   1   7
ATOM      7  C   UNL     1      34.722 -21.328 -19.283  0.00  0.00    +0.000 C 
ATOM      8  C   UNL     1      35.924 -20.971 -19.894  0.00  0.00    +0.001 C 
ATOM      9  C   UNL     1      33.510 -20.902 -19.827  0.00  0.00    +0.001 C 
ATOM     10  C   UNL     1      35.914 -20.186 -21.048  0.00  0.00    +0.010 C 
ATOM     11  C   UNL     1      33.501 -20.117 -20.980  0.00  0.00    +0.010 C 
ATOM     12  C   UNL     1      34.703 -19.759 -21.591  0.00  0.00    +0.068 C 
BRANCH  12  14
ATOM     13  N   UNL     1      34.685 -18.302 -23.733  0.00  0.00    -0.191 NA
ATOM     14  C   UNL     1      34.693 -18.956 -22.772  0.00  0.00    +0.100 C 
ENDBRANCH  12  14
ENDBRANCH   1   7
BRANCH   2  15
ATOM     15  O   UNL     1      34.761 -24.479 -14.658  0.00  0.00    -0.474 OA
BRANCH  15  16
ATOM     16  C   UNL     1      35.682 -24.111 -13.639  0.00  0.00    +0.227 C 
BRANCH  16  17
ATOM     17  C   UNL     1      36.439 -25.343 -13.175  0.00  0.00    +0.142 C 
BRANCH  17  19
ATOM     18  O   UNL     1      39.034 -24.277 -13.005  0.00  0.00    -0.250 OA
ATOM     19  N   UNL     1      37.528 -25.676 -14.084  0.00  0.00    -0.257 N 
ATOM     20  N   UNL     1      39.772 -25.546 -14.761  0.00  0.00    -0.181 N 
ATOM     21  C   UNL     1      37.213 -26.660 -15.118  0.00  0.00    +0.117 C 
ATOM     22  C   UNL     1      38.798 -25.107 -13.888  0.00  0.00    +0.326 C 
ATOM     23  H   UNL     1      39.588 -26.209 -15.467  0.00  0.00    +0.184 HD
BRANCH  20  24
ATOM     24  O   UNL     1      41.044 -24.983 -14.574  0.00  0.00    -0.294 OA
ATOM     25  H   UNL     1      40.960 -24.024 -14.460  0.00  0.00    +0.241 HD
ENDBRANCH  20  24
ENDBRANCH  17  19
ENDBRANCH  16  17
ENDBRANCH  15  16
ENDBRANCH   2  15
TORSDOF 7
ENDMDL
MODEL 7
REMARK VINA RESULT:      -9.6      1.663      2.194
REMARK  Name = 5326979
REMARK  7 active torsions:
REMARK  status: ('A' for Active; 'I' for Inactive)
REMARK    1  A    between atoms: C_1  and  C_7
REMARK    2  A    between atoms: C_2  and  O_15
REMARK    3  A    between atoms: C_12  and  C_14
REMARK    4  A    between atoms: O_15  and  C_16
REMARK    5  A    between atoms: C_16  and  C_17
REMARK    6  A    between atoms: C_17  and  N_19
REMARK    7  A    between atoms: N_20  and  O_24
REMARK                            x       y       z     vdW  Elec       q    Type
REMARK                         _______ _______ _______ _____ _____    ______ ____
ROOT
ATOM      1  C   UNL     1      34.570 -18.985 -21.668  0.00  0.00    +0.000 C 
ATOM      2  C   UNL     1      34.723 -16.975 -23.584  0.00  0.00    +0.139 C 
ATOM      3  C   UNL     1      34.651 -19.316 -23.020  0.00  0.00    +0.003 C 
ATOM      4  C   UNL     1      34.566 -17.645 -21.277  0.00  0.00    +0.003 C 
ATOM      5  C   UNL     1      34.728 -18.308 -23.981  0.00  0.00    +0.037 C 
ATOM      6  C   UNL     1      34.642 -16.637 -22.237  0.00  0.00    +0.037 C 
ENDROOT
BRANCH   1   7
ATOM      7  C   UNL     1      34.490 -20.029 -20.671  0.00  0.00    +0.000 C 
ATOM      8  C   UNL     1      33.246 -20.479 -20.230  0.00  0.00    +0.001 C 
ATOM      9  C   UNL     1      35.658 -20.588 -20.150  0.00  0.00    +0.001 C 
ATOM     10  C   UNL     1      33.168 -21.488 -19.269  0.00  0.00    +0.010 C 
ATOM     11  C   UNL     1      35.580 -21.595 -19.188  0.00  0.00    +0.010 C 
ATOM     12  C   UNL     1      34.335 -22.046 -18.748  0.00  0.00    +0.068 C 
BRANCH  12  14
ATOM     13  N   UNL     1      34.191 -23.918 -16.964  0.00  0.00    -0.191 NA
ATOM     14  C   UNL     1      34.256 -23.078 -17.764  0.00  0.00    +0.100 C 
ENDBRANCH  12  14
ENDBRANCH   1   7
BRANCH   2  15
ATOM     15  O   UNL     1      34.798 -15.986 -24.528  0.00  0.00    -0.474 OA
BRANCH  15  16
ATOM     16  C   UNL     1      33.819 -14.957 -24.459  0.00  0.00    +0.227 C 
BRANCH  16  17
ATOM     17  C   UNL     1      34.235 -13.934 -23.418  0.00  0.00    +0.142 C 
BRANCH  17  19
ATOM     18  O   UNL     1      32.064 -13.769 -21.640  0.00  0.00    -0.250 OA
ATOM     19  N   UNL     1      33.300 -12.817 -23.360  0.00  0.00    -0.257 N 
ATOM     20  N   UNL     1      31.484 -11.687 -22.394  0.00  0.00    -0.181 N 
ATOM     21  C   UNL     1      33.567 -11.717 -24.284  0.00  0.00    +0.117 C 
ATOM     22  C   UNL     1      32.266 -12.824 -22.409  0.00  0.00    +0.326 C 
ATOM     23  H   UNL     1      31.641 -10.930 -23.004  0.00  0.00    +0.184 HD
BRANCH  20  24
ATOM     24  O   UNL     1      30.447 -11.684 -21.447  0.00  0.00    -0.294 OA
ATOM     25  H   UNL     1      30.785 -11.355 -20.599  0.00  0.00    +0.241 HD
ENDBRANCH  20  24
ENDBRANCH  17  19
ENDBRANCH  16  17
ENDBRANCH  15  16
ENDBRANCH   2  15
TORSDOF 7
ENDMDL
MODEL 8
REMARK VINA RESULT:      -9.6      1.848      2.473
REMARK  Name = 5326979
REMARK  7 active torsions:
REMARK  status: ('A' for Active; 'I' for Inactive)
REMARK    1  A    between atoms: C_1  and  C_7
REMARK    2  A    between atoms: C_2  and  O_15
REMARK    3  A    between atoms: C_12  and  C_14
REMARK    4  A    between atoms: O_15  and  C_16
REMARK    5  A    between atoms: C_16  and  C_17
REMARK    6  A    between atoms: C_17  and  N_19
REMARK    7  A    between atoms: N_20  and  O_24
REMARK                            x       y       z     vdW  Elec       q    Type
REMARK                         _______ _______ _______ _____ _____    ______ ____
ROOT
ATOM      1  C   UNL     1      34.309 -18.014 -21.775  0.00  0.00    +0.000 C 
ATOM      2  C   UNL     1      34.489 -15.683 -23.279  0.00  0.00    +0.139 C 
ATOM      3  C   UNL     1      33.904 -16.798 -21.226  0.00  0.00    +0.003 C 
ATOM      4  C   UNL     1      34.805 -18.061 -23.079  0.00  0.00    +0.003 C 
ATOM      5  C   UNL     1      33.994 -15.629 -21.981  0.00  0.00    +0.037 C 
ATOM      6  C   UNL     1      34.895 -16.891 -23.833  0.00  0.00    +0.037 C 
ENDROOT
BRANCH   1   7
ATOM      7  C   UNL     1      34.217 -19.227 -20.993  0.00  0.00    +0.000 C 
ATOM      8  C   UNL     1      35.373 -19.936 -20.666  0.00  0.00    +0.001 C 
ATOM      9  C   UNL     1      32.971 -19.689 -20.565  0.00  0.00    +0.001 C 
ATOM     10  C   UNL     1      35.284 -21.106 -19.910  0.00  0.00    +0.010 C 
ATOM     11  C   UNL     1      32.883 -20.859 -19.811  0.00  0.00    +0.010 C 
ATOM     12  C   UNL     1      34.039 -21.568 -19.483  0.00  0.00    +0.068 C 
BRANCH  12  14
ATOM     13  N   UNL     1      33.875 -23.740 -18.081  0.00  0.00    -0.191 NA
ATOM     14  C   UNL     1      33.949 -22.765 -18.710  0.00  0.00    +0.100 C 
ENDBRANCH  12  14
ENDBRANCH   1   7
BRANCH   2  15
ATOM     15  O   UNL     1      34.578 -14.533 -24.019  0.00  0.00    -0.474 OA
BRANCH  15  16
ATOM     16  C   UNL     1      33.390 -13.764 -24.155  0.00  0.00    +0.227 C 
BRANCH  16  17
ATOM     17  C   UNL     1      33.723 -12.291 -24.008  0.00  0.00    +0.142 C 
BRANCH  17  19
ATOM     18  O   UNL     1      33.329  -9.509 -23.904  0.00  0.00    -0.250 OA
ATOM     19  N   UNL     1      32.804 -11.622 -23.096  0.00  0.00    -0.257 N 
ATOM     20  N   UNL     1      31.714  -9.704 -22.294  0.00  0.00    -0.181 N 
ATOM     21  C   UNL     1      32.032 -12.498 -22.217  0.00  0.00    +0.117 C 
ATOM     22  C   UNL     1      32.662 -10.225 -23.151  0.00  0.00    +0.326 C 
ATOM     23  H   UNL     1      31.179 -10.270 -21.691  0.00  0.00    +0.184 HD
BRANCH  20  24
ATOM     24  O   UNL     1      31.565  -8.308 -22.341  0.00  0.00    -0.294 OA
ATOM     25  H   UNL     1      32.418  -7.885 -22.160  0.00  0.00    +0.241 HD
ENDBRANCH  20  24
ENDBRANCH  17  19
ENDBRANCH  16  17
ENDBRANCH  15  16
ENDBRANCH   2  15
TORSDOF 7
ENDMDL
MODEL 9
REMARK VINA RESULT:      -9.6      4.927     10.436
REMARK  Name = 5326979
REMARK  7 active torsions:
REMARK  status: ('A' for Active; 'I' for Inactive)
REMARK    1  A    between atoms: C_1  and  C_7
REMARK    2  A    between atoms: C_2  and  O_15
REMARK    3  A    between atoms: C_12  and  C_14
REMARK    4  A    between atoms: O_15  and  C_16
REMARK    5  A    between atoms: C_16  and  C_17
REMARK    6  A    between atoms: C_17  and  N_19
REMARK    7  A    between atoms: N_20  and  O_24
REMARK                            x       y       z     vdW  Elec       q    Type
REMARK                         _______ _______ _______ _____ _____    ______ ____
ROOT
ATOM      1  C   UNL     1      34.505 -19.358 -20.833  0.00  0.00    +0.000 C 
ATOM      2  C   UNL     1      34.685 -21.758 -19.440  0.00  0.00    +0.139 C 
ATOM      3  C   UNL     1      35.755 -19.891 -20.521  0.00  0.00    +0.003 C 
ATOM      4  C   UNL     1      33.344 -20.029 -20.446  0.00  0.00    +0.003 C 
ATOM      5  C   UNL     1      35.845 -21.095 -19.823  0.00  0.00    +0.037 C 
ATOM      6  C   UNL     1      33.435 -21.232 -19.747  0.00  0.00    +0.037 C 
ENDROOT
BRANCH   1   7
ATOM      7  C   UNL     1      34.410 -18.110 -21.557  0.00  0.00    +0.000 C 
ATOM      8  C   UNL     1      34.765 -18.057 -22.906  0.00  0.00    +0.001 C 
ATOM      9  C   UNL     1      33.962 -16.958 -20.909  0.00  0.00    +0.001 C 
ATOM     10  C   UNL     1      34.672 -16.854 -23.605  0.00  0.00    +0.010 C 
ATOM     11  C   UNL     1      33.871 -15.755 -21.609  0.00  0.00    +0.010 C 
ATOM     12  C   UNL     1      34.226 -15.702 -22.957  0.00  0.00    +0.068 C 
BRANCH  12  14
ATOM     13  N   UNL     1      34.054 -13.468 -24.256  0.00  0.00    -0.191 NA
ATOM     14  C   UNL     1      34.131 -14.470 -23.673  0.00  0.00    +0.100 C 
ENDBRANCH  12  14
ENDBRANCH   1   7
BRANCH   2  15
ATOM     15  O   UNL     1      34.774 -22.940 -18.753  0.00  0.00    -0.474 OA
BRANCH  15  16
ATOM     16  C   UNL     1      33.946 -23.080 -17.606  0.00  0.00    +0.227 C 
BRANCH  16  17
ATOM     17  C   UNL     1      34.785 -22.902 -16.354  0.00  0.00    +0.142 C 
BRANCH  17  19
ATOM     18  O   UNL     1      32.485 -23.133 -14.753  0.00  0.00    -0.250 OA
ATOM     19  N   UNL     1      34.552 -23.975 -15.396  0.00  0.00    -0.257 N 
ATOM     20  N   UNL     1      33.203 -25.107 -13.844  0.00  0.00    -0.181 N 
ATOM     21  C   UNL     1      35.595 -24.995 -15.319  0.00  0.00    +0.117 C 
ATOM     22  C   UNL     1      33.350 -24.011 -14.669  0.00  0.00    +0.326 C 
ATOM     23  H   UNL     1      33.889 -25.810 -13.773  0.00  0.00    +0.184 HD
BRANCH  20  24
ATOM     24  O   UNL     1      32.005 -25.152 -13.112  0.00  0.00    -0.294 OA
ATOM     25  H   UNL     1      31.979 -25.964 -12.582  0.00  0.00    +0.241 HD
ENDBRANCH  20  24
ENDBRANCH  17  19
ENDBRANCH  16  17
ENDBRANCH  15  16
ENDBRANCH   2  15
TORSDOF 7
ENDMDL
