MODEL 1
REMARK VINA RESULT:      -9.2      0.000      0.000
REMARK  Name = 160531
REMARK  0 active torsions:
REMARK  status: ('A' for Active; 'I' for Inactive)
REMARK                            x       y       z     vdW  Elec       q    Type
REMARK                         _______ _______ _______ _____ _____    ______ ____
ROOT
ATOM      1  O   UNL     1      34.197 -24.117 -12.638  0.00  0.00    -0.296 OA
ATOM      2  O   UNL     1      34.113 -18.750 -21.462  0.00  0.00    -0.296 OA
ATOM      3  C   UNL     1      35.703 -22.722 -17.032  0.00  0.00    +0.005 C 
ATOM      4  C   UNL     1      34.282 -22.362 -17.580  0.00  0.00    +0.004 C 
ATOM      5  C   UNL     1      35.646 -22.796 -15.504  0.00  0.00    +0.007 C 
ATOM      6  C   UNL     1      34.653 -23.867 -15.014  0.00  0.00    +0.052 C 
ATOM      7  C   UNL     1      34.285 -22.311 -19.157  0.00  0.00    +0.016 C 
ATOM      8  C   UNL     1      33.172 -23.266 -16.967  0.00  0.00    +0.001 C 
ATOM      9  C   UNL     1      33.257 -23.425 -15.437  0.00  0.00    +0.007 C 
ATOM     10  C   UNL     1      36.919 -23.075 -14.712  0.00  0.00    +0.008 C 
ATOM     11  C   UNL     1      36.749 -21.700 -17.496  0.00  0.00    +0.025 C 
ATOM     12  C   UNL     1      35.465 -21.457 -19.645  0.00  0.00    -0.042 C 
ATOM     13  C   UNL     1      34.970 -23.796 -13.531  0.00  0.00    +0.150 C 
ATOM     14  C   UNL     1      36.387 -23.306 -13.291  0.00  0.00    +0.064 C 
ATOM     15  C   UNL     1      32.962 -21.689 -19.709  0.00  0.00    +0.011 C 
ATOM     16  C   UNL     1      34.947 -25.312 -15.458  0.00  0.00    +0.007 C 
ATOM     17  C   UNL     1      36.551 -21.207 -18.893  0.00  0.00    -0.034 C 
ATOM     18  C   UNL     1      34.431 -23.723 -19.771  0.00  0.00    +0.004 C 
ATOM     19  C   UNL     1      35.289 -20.784 -20.980  0.00  0.00    +0.086 C 
ATOM     20  C   UNL     1      33.030 -20.171 -19.860  0.00  0.00    +0.065 C 
ATOM     21  C   UNL     1      34.143 -19.803 -20.825  0.00  0.00    +0.155 C 
ENDROOT
TORSDOF 0
ENDMDL
MODEL 2
REMARK VINA RESULT:      -8.9      3.634      6.233
REMARK  Name = 160531
REMARK  0 active torsions:
REMARK  status: ('A' for Active; 'I' for Inactive)
REMARK                            x       y       z     vdW  Elec       q    Type
REMARK                         _______ _______ _______ _____ _____    ______ ____
ROOT
ATOM      1  O   UNL     1      29.368 -24.293 -15.045  0.00  0.00    -0.296 OA
ATOM      2  O   UNL     1      39.468 -26.450 -14.920  0.00  0.00    -0.296 OA
ATOM      3  C   UNL     1      34.131 -23.384 -15.140  0.00  0.00    +0.005 C 
ATOM      4  C   UNL     1      34.542 -24.598 -14.244  0.00  0.00    +0.004 C 
ATOM      5  C   UNL     1      32.714 -23.614 -15.674  0.00  0.00    +0.007 C 
ATOM      6  C   UNL     1      31.683 -23.747 -14.538  0.00  0.00    +0.052 C 
ATOM      7  C   UNL     1      35.985 -24.387 -13.641  0.00  0.00    +0.016 C 
ATOM      8  C   UNL     1      33.448 -24.946 -13.191  0.00  0.00    +0.001 C 
ATOM      9  C   UNL     1      32.019 -25.014 -13.761  0.00  0.00    +0.007 C 
ATOM     10  C   UNL     1      32.092 -22.600 -16.628  0.00  0.00    +0.008 C 
ATOM     11  C   UNL     1      35.127 -23.184 -16.289  0.00  0.00    +0.025 C 
ATOM     12  C   UNL     1      36.956 -23.975 -14.756  0.00  0.00    -0.042 C 
ATOM     13  C   UNL     1      30.425 -23.782 -15.387  0.00  0.00    +0.150 C 
ATOM     14  C   UNL     1      30.632 -23.069 -16.713  0.00  0.00    +0.064 C 
ATOM     15  C   UNL     1      36.520 -25.696 -12.975  0.00  0.00    +0.011 C 
ATOM     16  C   UNL     1      31.548 -22.531 -13.604  0.00  0.00    +0.007 C 
ATOM     17  C   UNL     1      36.553 -23.435 -15.919  0.00  0.00    -0.034 C 
ATOM     18  C   UNL     1      35.993 -23.277 -12.563  0.00  0.00    +0.004 C 
ATOM     19  C   UNL     1      38.402 -24.334 -14.542  0.00  0.00    +0.086 C 
ATOM     20  C   UNL     1      37.279 -26.596 -13.948  0.00  0.00    +0.065 C 
ATOM     21  C   UNL     1      38.474 -25.849 -14.510  0.00  0.00    +0.155 C 
ENDROOT
TORSDOF 0
ENDMDL
MODEL 3
REMARK VINA RESULT:      -7.9      3.172      4.933
REMARK  Name = 160531
REMARK  0 active torsions:
REMARK  status: ('A' for Active; 'I' for Inactive)
REMARK                            x       y       z     vdW  Elec       q    Type
REMARK                         _______ _______ _______ _____ _____    ______ ____
ROOT
ATOM      1  O   UNL     1      37.888 -23.099 -13.376  0.00  0.00    -0.296 OA
ATOM      2  O   UNL     1      27.922 -21.686 -15.692  0.00  0.00    -0.296 OA
ATOM      3  C   UNL     1      33.785 -23.559 -15.920  0.00  0.00    +0.005 C 
ATOM      4  C   UNL     1      32.824 -23.455 -14.691  0.00  0.00    +0.004 C 
ATOM      5  C   UNL     1      35.162 -23.020 -15.526  0.00  0.00    +0.007 C 
ATOM      6  C   UNL     1      35.781 -23.813 -14.359  0.00  0.00    +0.052 C 
ATOM      7  C   UNL     1      31.399 -24.035 -15.042  0.00  0.00    +0.016 C 
ATOM      8  C   UNL     1      33.459 -24.047 -13.398  0.00  0.00    +0.001 C 
ATOM      9  C   UNL     1      34.904 -23.583 -13.134  0.00  0.00    +0.007 C 
ATOM     10  C   UNL     1      36.275 -22.954 -16.566  0.00  0.00    +0.008 C 
ATOM     11  C   UNL     1      33.221 -22.801 -17.129  0.00  0.00    +0.025 C 
ATOM     12  C   UNL     1      30.910 -23.439 -16.370  0.00  0.00    -0.042 C 
ATOM     13  C   UNL     1      37.150 -23.156 -14.350  0.00  0.00    +0.150 C 
ATOM     14  C   UNL     1      37.507 -22.603 -15.719  0.00  0.00    +0.064 C 
ATOM     15  C   UNL     1      30.355 -23.691 -13.930  0.00  0.00    +0.011 C 
ATOM     16  C   UNL     1      36.015 -25.313 -14.613  0.00  0.00    +0.007 C 
ATOM     17  C   UNL     1      31.738 -22.905 -17.284  0.00  0.00    -0.034 C 
ATOM     18  C   UNL     1      31.433 -25.574 -15.192  0.00  0.00    +0.004 C 
ATOM     19  C   UNL     1      29.418 -23.354 -16.550  0.00  0.00    +0.086 C 
ATOM     20  C   UNL     1      29.647 -22.358 -14.165  0.00  0.00    +0.065 C 
ATOM     21  C   UNL     1      28.906 -22.399 -15.489  0.00  0.00    +0.155 C 
ENDROOT
TORSDOF 0
ENDMDL
MODEL 4
REMARK VINA RESULT:      -7.3      8.245     11.694
REMARK  Name = 160531
REMARK  0 active torsions:
REMARK  status: ('A' for Active; 'I' for Inactive)
REMARK                            x       y       z     vdW  Elec       q    Type
REMARK                         _______ _______ _______ _____ _____    ______ ____
ROOT
ATOM      1  O   UNL     1      34.910 -16.836 -20.613  0.00  0.00    -0.296 OA
ATOM      2  O   UNL     1      32.568  -6.830 -21.645  0.00  0.00    -0.296 OA
ATOM      3  C   UNL     1      32.927 -12.898 -22.633  0.00  0.00    +0.005 C 
ATOM      4  C   UNL     1      32.715 -12.122 -21.292  0.00  0.00    +0.004 C 
ATOM      5  C   UNL     1      33.938 -14.025 -22.404  0.00  0.00    +0.007 C 
ATOM      6  C   UNL     1      33.456 -15.025 -21.337  0.00  0.00    +0.052 C 
ATOM      7  C   UNL     1      31.650 -10.971 -21.472  0.00  0.00    +0.016 C 
ATOM      8  C   UNL     1      32.430 -13.081 -20.098  0.00  0.00    +0.001 C 
ATOM      9  C   UNL     1      33.391 -14.282 -20.008  0.00  0.00    +0.007 C 
ATOM     10  C   UNL     1      34.369 -14.903 -23.574  0.00  0.00    +0.008 C 
ATOM     11  C   UNL     1      33.395 -11.955 -23.749  0.00  0.00    +0.025 C 
ATOM     12  C   UNL     1      31.990 -10.142 -22.719  0.00  0.00    -0.042 C 
ATOM     13  C   UNL     1      34.562 -16.055 -21.488  0.00  0.00    +0.150 C 
ATOM     14  C   UNL     1      35.165 -16.018 -22.882  0.00  0.00    +0.064 C 
ATOM     15  C   UNL     1      31.628 -10.017 -20.233  0.00  0.00    +0.011 C 
ATOM     16  C   UNL     1      32.134 -15.753 -21.643  0.00  0.00    +0.007 C 
ATOM     17  C   UNL     1      32.759 -10.603 -23.720  0.00  0.00    -0.034 C 
ATOM     18  C   UNL     1      30.223 -11.540 -21.650  0.00  0.00    +0.004 C 
ATOM     19  C   UNL     1      31.526  -8.710 -22.710  0.00  0.00    +0.086 C 
ATOM     20  C   UNL     1      32.608  -8.853 -20.356  0.00  0.00    +0.065 C 
ATOM     21  C   UNL     1      32.264  -8.021 -21.578  0.00  0.00    +0.155 C 
ENDROOT
TORSDOF 0
ENDMDL
MODEL 5
REMARK VINA RESULT:      -7.3      9.130     13.503
REMARK  Name = 160531
REMARK  0 active torsions:
REMARK  status: ('A' for Active; 'I' for Inactive)
REMARK                            x       y       z     vdW  Elec       q    Type
REMARK                         _______ _______ _______ _____ _____    ______ ____
ROOT
ATOM      1  O   UNL     1      33.896  -6.540 -23.580  0.00  0.00    -0.296 OA
ATOM      2  O   UNL     1      34.368 -16.416 -20.592  0.00  0.00    -0.296 OA
ATOM      3  C   UNL     1      32.217 -10.857 -22.142  0.00  0.00    +0.005 C 
ATOM      4  C   UNL     1      33.358 -11.699 -22.802  0.00  0.00    +0.004 C 
ATOM      5  C   UNL     1      32.669  -9.398 -22.036  0.00  0.00    +0.007 C 
ATOM      6  C   UNL     1      32.983  -8.789 -23.415  0.00  0.00    +0.052 C 
ATOM      7  C   UNL     1      32.921 -13.206 -22.965  0.00  0.00    +0.016 C 
ATOM      8  C   UNL     1      33.893 -11.038 -24.107  0.00  0.00    +0.001 C 
ATOM      9  C   UNL     1      34.188  -9.532 -23.979  0.00  0.00    +0.007 C 
ATOM     10  C   UNL     1      31.759  -8.370 -21.371  0.00  0.00    +0.008 C 
ATOM     11  C   UNL     1      31.841 -11.419 -20.765  0.00  0.00    +0.025 C 
ATOM     12  C   UNL     1      32.341 -13.723 -21.640  0.00  0.00    -0.042 C 
ATOM     13  C   UNL     1      33.214  -7.354 -22.973  0.00  0.00    +0.150 C 
ATOM     14  C   UNL     1      32.460  -7.043 -21.691  0.00  0.00    +0.064 C 
ATOM     15  C   UNL     1      34.133 -14.110 -23.362  0.00  0.00    +0.011 C 
ATOM     16  C   UNL     1      31.818  -8.757 -24.420  0.00  0.00    +0.007 C 
ATOM     17  C   UNL     1      31.860 -12.912 -20.683  0.00  0.00    -0.034 C 
ATOM     18  C   UNL     1      31.838 -13.368 -24.058  0.00  0.00    +0.004 C 
ATOM     19  C   UNL     1      32.460 -15.204 -21.397  0.00  0.00    +0.086 C 
ATOM     20  C   UNL     1      34.884 -14.669 -22.155  0.00  0.00    +0.065 C 
ATOM     21  C   UNL     1      33.943 -15.512 -21.313  0.00  0.00    +0.155 C 
ENDROOT
TORSDOF 0
ENDMDL
MODEL 6
REMARK VINA RESULT:      -7.2     15.172     19.532
REMARK  Name = 160531
REMARK  0 active torsions:
REMARK  status: ('A' for Active; 'I' for Inactive)
REMARK                            x       y       z     vdW  Elec       q    Type
REMARK                         _______ _______ _______ _____ _____    ______ ____
ROOT
ATOM      1  O   UNL     1      31.425  -1.963 -28.412  0.00  0.00    -0.296 OA
ATOM      2  O   UNL     1      32.055 -10.592 -22.771  0.00  0.00    -0.296 OA
ATOM      3  C   UNL     1      33.338  -5.101 -25.248  0.00  0.00    +0.005 C 
ATOM      4  C   UNL     1      31.971  -5.664 -24.737  0.00  0.00    +0.004 C 
ATOM      5  C   UNL     1      33.115  -4.380 -26.579  0.00  0.00    +0.007 C 
ATOM      6  C   UNL     1      32.129  -3.205 -26.443  0.00  0.00    +0.052 C 
ATOM      7  C   UNL     1      32.147  -6.386 -23.345  0.00  0.00    +0.016 C 
ATOM      8  C   UNL     1      30.846  -4.588 -24.767  0.00  0.00    +0.001 C 
ATOM      9  C   UNL     1      30.768  -3.789 -26.082  0.00  0.00    +0.007 C 
ATOM     10  C   UNL     1      34.305  -3.785 -27.326  0.00  0.00    +0.008 C 
ATOM     11  C   UNL     1      34.377  -6.220 -25.393  0.00  0.00    +0.025 C 
ATOM     12  C   UNL     1      33.329  -7.364 -23.414  0.00  0.00    -0.042 C 
ATOM     13  C   UNL     1      32.275  -2.633 -27.842  0.00  0.00    +0.150 C 
ATOM     14  C   UNL     1      33.631  -2.969 -28.438  0.00  0.00    +0.064 C 
ATOM     15  C   UNL     1      30.863  -7.188 -22.954  0.00  0.00    +0.011 C 
ATOM     16  C   UNL     1      32.541  -2.088 -25.466  0.00  0.00    +0.007 C 
ATOM     17  C   UNL     1      34.311  -7.265 -24.326  0.00  0.00    -0.034 C 
ATOM     18  C   UNL     1      32.429  -5.372 -22.211  0.00  0.00    +0.004 C 
ATOM     19  C   UNL     1      33.270  -8.544 -22.481  0.00  0.00    +0.086 C 
ATOM     20  C   UNL     1      30.873  -8.625 -23.472  0.00  0.00    +0.065 C 
ATOM     21  C   UNL     1      32.066  -9.367 -22.898  0.00  0.00    +0.155 C 
ENDROOT
TORSDOF 0
ENDMDL
MODEL 7
REMARK VINA RESULT:      -7.0     14.150     18.348
REMARK  Name = 160531
REMARK  0 active torsions:
REMARK  status: ('A' for Active; 'I' for Inactive)
REMARK                            x       y       z     vdW  Elec       q    Type
REMARK                         _______ _______ _______ _____ _____    ______ ____
ROOT
ATOM      1  O   UNL     1      29.522  -2.547 -25.162  0.00  0.00    -0.296 OA
ATOM      2  O   UNL     1      34.200 -11.748 -24.776  0.00  0.00    -0.296 OA
ATOM      3  C   UNL     1      33.198  -5.672 -24.666  0.00  0.00    +0.005 C 
ATOM      4  C   UNL     1      32.341  -6.830 -24.058  0.00  0.00    +0.004 C 
ATOM      5  C   UNL     1      32.268  -4.665 -25.347  0.00  0.00    +0.007 C 
ATOM      6  C   UNL     1      31.257  -4.052 -24.360  0.00  0.00    +0.052 C 
ATOM      7  C   UNL     1      33.258  -7.876 -23.312  0.00  0.00    +0.016 C 
ATOM      8  C   UNL     1      31.151  -6.294 -23.208  0.00  0.00    +0.001 C 
ATOM      9  C   UNL     1      30.341  -5.174 -23.887  0.00  0.00    +0.007 C 
ATOM     10  C   UNL     1      32.858  -3.462 -26.075  0.00  0.00    +0.008 C 
ATOM     11  C   UNL     1      34.241  -6.215 -25.652  0.00  0.00    +0.025 C 
ATOM     12  C   UNL     1      34.434  -8.271 -24.217  0.00  0.00    -0.042 C 
ATOM     13  C   UNL     1      30.644  -3.018 -25.288  0.00  0.00    +0.150 C 
ATOM     14  C   UNL     1      31.616  -2.613 -26.383  0.00  0.00    +0.064 C 
ATOM     15  C   UNL     1      32.462  -9.169 -22.941  0.00  0.00    +0.011 C 
ATOM     16  C   UNL     1      31.859  -3.276 -23.174  0.00  0.00    +0.007 C 
ATOM     17  C   UNL     1      34.858  -7.514 -25.244  0.00  0.00    -0.034 C 
ATOM     18  C   UNL     1      33.837  -7.290 -22.002  0.00  0.00    +0.004 C 
ATOM     19  C   UNL     1      35.020  -9.637 -23.984  0.00  0.00    +0.086 C 
ATOM     20  C   UNL     1      32.494 -10.228 -24.041  0.00  0.00    +0.065 C 
ATOM     21  C   UNL     1      33.930 -10.639 -24.312  0.00  0.00    +0.155 C 
ENDROOT
TORSDOF 0
ENDMDL
MODEL 8
REMARK VINA RESULT:      -7.0     15.787     19.635
REMARK  Name = 160531
REMARK  0 active torsions:
REMARK  status: ('A' for Active; 'I' for Inactive)
REMARK                            x       y       z     vdW  Elec       q    Type
REMARK                         _______ _______ _______ _____ _____    ______ ____
ROOT
ATOM      1  O   UNL     1      35.069  -2.886 -28.519  0.00  0.00    -0.296 OA
ATOM      2  O   UNL     1      32.655  -7.418 -19.558  0.00  0.00    -0.296 OA
ATOM      3  C   UNL     1      32.189  -4.698 -25.064  0.00  0.00    +0.005 C 
ATOM      4  C   UNL     1      33.192  -5.797 -24.581  0.00  0.00    +0.004 C 
ATOM      5  C   UNL     1      32.951  -3.647 -25.876  0.00  0.00    +0.007 C 
ATOM      6  C   UNL     1      33.632  -4.257 -27.115  0.00  0.00    +0.052 C 
ATOM      7  C   UNL     1      32.443  -6.923 -23.769  0.00  0.00    +0.016 C 
ATOM      8  C   UNL     1      34.084  -6.326 -25.743  0.00  0.00    +0.001 C 
ATOM      9  C   UNL     1      34.704  -5.221 -26.620  0.00  0.00    +0.007 C 
ATOM     10  C   UNL     1      32.212  -2.427 -26.416  0.00  0.00    +0.008 C 
ATOM     11  C   UNL     1      31.460  -4.055 -23.876  0.00  0.00    +0.025 C 
ATOM     12  C   UNL     1      31.538  -6.280 -22.707  0.00  0.00    -0.042 C 
ATOM     13  C   UNL     1      34.119  -2.968 -27.753  0.00  0.00    +0.150 C 
ATOM     14  C   UNL     1      33.254  -1.788 -27.345  0.00  0.00    +0.064 C 
ATOM     15  C   UNL     1      33.453  -7.874 -23.050  0.00  0.00    +0.011 C 
ATOM     16  C   UNL     1      32.697  -4.927 -28.137  0.00  0.00    +0.007 C 
ATOM     17  C   UNL     1      31.108  -5.009 -22.780  0.00  0.00    -0.034 C 
ATOM     18  C   UNL     1      31.555  -7.793 -24.691  0.00  0.00    +0.004 C 
ATOM     19  C   UNL     1      31.258  -7.111 -21.484  0.00  0.00    +0.086 C 
ATOM     20  C   UNL     1      33.832  -7.398 -21.649  0.00  0.00    +0.065 C 
ATOM     21  C   UNL     1      32.587  -7.316 -20.783  0.00  0.00    +0.155 C 
ENDROOT
TORSDOF 0
ENDMDL
MODEL 9
REMARK VINA RESULT:      -7.0      3.304      6.418
REMARK  Name = 160531
REMARK  0 active torsions:
REMARK  status: ('A' for Active; 'I' for Inactive)
REMARK                            x       y       z     vdW  Elec       q    Type
REMARK                         _______ _______ _______ _____ _____    ______ ____
ROOT
ATOM      1  O   UNL     1      29.828 -22.197 -17.196  0.00  0.00    -0.296 OA
ATOM      2  O   UNL     1      38.692 -23.062 -11.966  0.00  0.00    -0.296 OA
ATOM      3  C   UNL     1      33.062 -24.200 -14.187  0.00  0.00    +0.005 C 
ATOM      4  C   UNL     1      34.327 -23.649 -14.924  0.00  0.00    +0.004 C 
ATOM      5  C   UNL     1      31.836 -23.397 -14.630  0.00  0.00    +0.007 C 
ATOM      6  C   UNL     1      31.594 -23.500 -16.147  0.00  0.00    +0.052 C 
ATOM      7  C   UNL     1      35.612 -24.472 -14.525  0.00  0.00    +0.016 C 
ATOM      8  C   UNL     1      34.098 -23.514 -16.459  0.00  0.00    +0.001 C 
ATOM      9  C   UNL     1      32.773 -22.831 -16.845  0.00  0.00    +0.007 C 
ATOM     10  C   UNL     1      30.473 -23.696 -14.013  0.00  0.00    +0.008 C 
ATOM     11  C   UNL     1      33.240 -24.141 -12.664  0.00  0.00    +0.025 C 
ATOM     12  C   UNL     1      35.689 -24.604 -12.997  0.00  0.00    -0.042 C 
ATOM     13  C   UNL     1      30.264 -22.770 -16.207  0.00  0.00    +0.150 C 
ATOM     14  C   UNL     1      29.520 -22.869 -14.886  0.00  0.00    +0.064 C 
ATOM     15  C   UNL     1      36.916 -23.772 -15.029  0.00  0.00    +0.011 C 
ATOM     16  C   UNL     1      31.344 -24.916 -16.696  0.00  0.00    +0.007 C 
ATOM     17  C   UNL     1      34.622 -24.461 -12.193  0.00  0.00    -0.034 C 
ATOM     18  C   UNL     1      35.583 -25.897 -15.128  0.00  0.00    +0.004 C 
ATOM     19  C   UNL     1      37.067 -24.769 -12.414  0.00  0.00    +0.086 C 
ATOM     20  C   UNL     1      37.488 -22.776 -14.022  0.00  0.00    +0.065 C 
ATOM     21  C   UNL     1      37.828 -23.495 -12.729  0.00  0.00    +0.155 C 
ENDROOT
TORSDOF 0
ENDMDL
