MODEL 1
REMARK VINA RESULT:      -6.6      0.000      0.000
REMARK  Name = 681
REMARK  5 active torsions:
REMARK  status: ('A' for Active; 'I' for Inactive)
REMARK    1  A    between atoms: C_1  and  C_11
REMARK    2  A    between atoms: C_4  and  O_7
REMARK    3  A    between atoms: C_6  and  O_9
REMARK    4  A    between atoms: C_11  and  C_12
REMARK    5  A    between atoms: C_12  and  N_13
REMARK                            x       y       z     vdW  Elec       q    Type
REMARK                         _______ _______ _______ _____ _____    ______ ____
ROOT
ATOM      1  C   UNL     1      35.159 -19.529 -21.002  0.00  0.00    -0.021 C 
ATOM      2  C   UNL     1      35.712 -20.552 -20.231  0.00  0.00    +0.035 C 
ATOM      3  C   UNL     1      33.774 -19.384 -21.078  0.00  0.00    -0.001 C 
ATOM      4  C   UNL     1      34.880 -21.430 -19.537  0.00  0.00    +0.167 C 
ATOM      5  C   UNL     1      32.941 -20.262 -20.385  0.00  0.00    +0.039 C 
ATOM      6  C   UNL     1      33.494 -21.285 -19.614  0.00  0.00    +0.167 C 
ENDROOT
BRANCH   4   7
ATOM      7  O   UNL     1      35.431 -22.424 -18.787  0.00  0.00    -0.503 OA
ATOM      8  H   UNL     1      35.479 -22.337 -17.855  0.00  0.00    +0.292 HD
ENDBRANCH   4   7
BRANCH   6   9
ATOM      9  O   UNL     1      32.670 -22.136 -18.941  0.00  0.00    -0.503 OA
ATOM     10  H   UNL     1      32.823 -22.317 -18.034  0.00  0.00    +0.292 HD
ENDBRANCH   6   9
BRANCH   1  11
ATOM     11  C   UNL     1      36.049 -18.591 -21.744  0.00  0.00    +0.003 C 
BRANCH  11  12
ATOM     12  C   UNL     1      35.467 -18.202 -23.111  0.00  0.00    -0.081 C 
BRANCH  12  13
ATOM     13  N   UNL     1      35.636 -16.777 -23.379  0.00  0.00    +0.381 N 
ATOM     14  H   UNL     1      36.629 -16.565 -23.477  0.00  0.00    -0.089 HD
ATOM     15  H   UNL     1      35.249 -16.238 -22.605  0.00  0.00    -0.089 HD
ATOM     16  H   UNL     1      35.150 -16.533 -24.241  0.00  0.00    -0.089 HD
ENDBRANCH  12  13
ENDBRANCH  11  12
ENDBRANCH   1  11
TORSDOF 5
ENDMDL
MODEL 2
REMARK VINA RESULT:      -6.4      0.674      2.017
REMARK  Name = 681
REMARK  5 active torsions:
REMARK  status: ('A' for Active; 'I' for Inactive)
REMARK    1  A    between atoms: C_1  and  C_11
REMARK    2  A    between atoms: C_4  and  O_7
REMARK    3  A    between atoms: C_6  and  O_9
REMARK    4  A    between atoms: C_11  and  C_12
REMARK    5  A    between atoms: C_12  and  N_13
REMARK                            x       y       z     vdW  Elec       q    Type
REMARK                         _______ _______ _______ _____ _____    ______ ____
ROOT
ATOM      1  C   UNL     1      34.591 -19.792 -20.949  0.00  0.00    -0.021 C 
ATOM      2  C   UNL     1      33.485 -20.420 -20.376  0.00  0.00    +0.035 C 
ATOM      3  C   UNL     1      35.880 -20.166 -20.568  0.00  0.00    -0.001 C 
ATOM      4  C   UNL     1      33.667 -21.421 -19.423  0.00  0.00    +0.167 C 
ATOM      5  C   UNL     1      36.063 -21.167 -19.614  0.00  0.00    +0.039 C 
ATOM      6  C   UNL     1      34.957 -21.795 -19.041  0.00  0.00    +0.167 C 
ENDROOT
BRANCH   4   7
ATOM      7  O   UNL     1      32.579 -22.028 -18.871  0.00  0.00    -0.503 OA
ATOM      8  H   UNL     1      31.873 -22.311 -19.418  0.00  0.00    +0.292 HD
ENDBRANCH   4   7
BRANCH   6   9
ATOM      9  O   UNL     1      35.148 -22.772 -18.112  0.00  0.00    -0.503 OA
ATOM     10  H   UNL     1      34.874 -22.636 -17.226  0.00  0.00    +0.292 HD
ENDBRANCH   6   9
BRANCH   1  11
ATOM     11  C   UNL     1      34.396 -18.720 -21.968  0.00  0.00    +0.003 C 
BRANCH  11  12
ATOM     12  C   UNL     1      35.695 -18.391 -22.715  0.00  0.00    -0.081 C 
BRANCH  12  13
ATOM     13  N   UNL     1      35.699 -17.015 -23.202  0.00  0.00    +0.381 N 
ATOM     14  H   UNL     1      35.890 -17.010 -24.205  0.00  0.00    -0.089 HD
ATOM     15  H   UNL     1      36.422 -16.485 -22.716  0.00  0.00    -0.089 HD
ATOM     16  H   UNL     1      34.789 -16.589 -23.028  0.00  0.00    -0.089 HD
ENDBRANCH  12  13
ENDBRANCH  11  12
ENDBRANCH   1  11
TORSDOF 5
ENDMDL
MODEL 3
REMARK VINA RESULT:      -6.3      4.365      5.560
REMARK  Name = 681
REMARK  5 active torsions:
REMARK  status: ('A' for Active; 'I' for Inactive)
REMARK    1  A    between atoms: C_1  and  C_11
REMARK    2  A    between atoms: C_4  and  O_7
REMARK    3  A    between atoms: C_6  and  O_9
REMARK    4  A    between atoms: C_11  and  C_12
REMARK    5  A    between atoms: C_12  and  N_13
REMARK                            x       y       z     vdW  Elec       q    Type
REMARK                         _______ _______ _______ _____ _____    ______ ____
ROOT
ATOM      1  C   UNL     1      34.604 -18.792 -22.303  0.00  0.00    -0.021 C 
ATOM      2  C   UNL     1      34.784 -17.410 -22.247  0.00  0.00    +0.035 C 
ATOM      3  C   UNL     1      34.526 -19.436 -23.539  0.00  0.00    -0.001 C 
ATOM      4  C   UNL     1      34.888 -16.672 -23.426  0.00  0.00    +0.167 C 
ATOM      5  C   UNL     1      34.628 -18.697 -24.717  0.00  0.00    +0.039 C 
ATOM      6  C   UNL     1      34.809 -17.315 -24.662  0.00  0.00    +0.167 C 
ENDROOT
BRANCH   4   7
ATOM      7  O   UNL     1      35.065 -15.322 -23.358  0.00  0.00    -0.503 OA
ATOM      8  H   UNL     1      34.754 -14.846 -22.614  0.00  0.00    +0.292 HD
ENDBRANCH   4   7
BRANCH   6   9
ATOM      9  O   UNL     1      34.909 -16.605 -25.819  0.00  0.00    -0.503 OA
ATOM     10  H   UNL     1      35.477 -15.862 -25.866  0.00  0.00    +0.292 HD
ENDBRANCH   6   9
BRANCH   1  11
ATOM     11  C   UNL     1      34.492 -19.581 -21.043  0.00  0.00    +0.003 C 
BRANCH  11  12
ATOM     12  C   UNL     1      33.033 -19.900 -20.687  0.00  0.00    -0.081 C 
BRANCH  12  13
ATOM     13  N   UNL     1      32.941 -21.016 -19.752  0.00  0.00    +0.381 N 
ATOM     14  H   UNL     1      32.678 -20.666 -18.830  0.00  0.00    -0.089 HD
ATOM     15  H   UNL     1      33.845 -21.484 -19.692  0.00  0.00    -0.089 HD
ATOM     16  H   UNL     1      32.236 -21.677 -20.078  0.00  0.00    -0.089 HD
ENDBRANCH  12  13
ENDBRANCH  11  12
ENDBRANCH   1  11
TORSDOF 5
ENDMDL
MODEL 4
REMARK VINA RESULT:      -6.1      4.317      5.499
REMARK  Name = 681
REMARK  5 active torsions:
REMARK  status: ('A' for Active; 'I' for Inactive)
REMARK    1  A    between atoms: C_1  and  C_11
REMARK    2  A    between atoms: C_4  and  O_7
REMARK    3  A    between atoms: C_6  and  O_9
REMARK    4  A    between atoms: C_11  and  C_12
REMARK    5  A    between atoms: C_12  and  N_13
REMARK                            x       y       z     vdW  Elec       q    Type
REMARK                         _______ _______ _______ _____ _____    ______ ____
ROOT
ATOM      1  C   UNL     1      34.898 -18.700 -22.362  0.00  0.00    -0.021 C 
ATOM      2  C   UNL     1      35.011 -17.311 -22.313  0.00  0.00    +0.035 C 
ATOM      3  C   UNL     1      34.701 -19.341 -23.586  0.00  0.00    -0.001 C 
ATOM      4  C   UNL     1      34.927 -16.562 -23.486  0.00  0.00    +0.167 C 
ATOM      5  C   UNL     1      34.616 -18.592 -24.760  0.00  0.00    +0.039 C 
ATOM      6  C   UNL     1      34.729 -17.202 -24.710  0.00  0.00    +0.167 C 
ENDROOT
BRANCH   4   7
ATOM      7  O   UNL     1      35.039 -15.205 -23.425  0.00  0.00    -0.503 OA
ATOM      8  H   UNL     1      35.742 -14.773 -23.868  0.00  0.00    +0.292 HD
ENDBRANCH   4   7
BRANCH   6   9
ATOM      9  O   UNL     1      34.645 -16.482 -25.863  0.00  0.00    -0.503 OA
ATOM     10  H   UNL     1      33.997 -15.810 -25.950  0.00  0.00    +0.292 HD
ENDBRANCH   6   9
BRANCH   1  11
ATOM     11  C   UNL     1      34.988 -19.501 -21.108  0.00  0.00    +0.003 C 
BRANCH  11  12
ATOM     12  C   UNL     1      36.431 -19.615 -20.596  0.00  0.00    -0.081 C 
BRANCH  12  13
ATOM     13  N   UNL     1      36.523 -20.509 -19.447  0.00  0.00    +0.381 N 
ATOM     14  H   UNL     1      35.713 -20.370 -18.842  0.00  0.00    -0.089 HD
ATOM     15  H   UNL     1      37.374 -20.305 -18.925  0.00  0.00    -0.089 HD
ATOM     16  H   UNL     1      36.544 -21.477 -19.768  0.00  0.00    -0.089 HD
ENDBRANCH  12  13
ENDBRANCH  11  12
ENDBRANCH   1  11
TORSDOF 5
ENDMDL
MODEL 5
REMARK VINA RESULT:      -6.1      4.112      5.217
REMARK  Name = 681
REMARK  5 active torsions:
REMARK  status: ('A' for Active; 'I' for Inactive)
REMARK    1  A    between atoms: C_1  and  C_11
REMARK    2  A    between atoms: C_4  and  O_7
REMARK    3  A    between atoms: C_6  and  O_9
REMARK    4  A    between atoms: C_11  and  C_12
REMARK    5  A    between atoms: C_12  and  N_13
REMARK                            x       y       z     vdW  Elec       q    Type
REMARK                         _______ _______ _______ _____ _____    ______ ____
ROOT
ATOM      1  C   UNL     1      34.743 -19.067 -21.520  0.00  0.00    -0.021 C 
ATOM      2  C   UNL     1      34.676 -17.772 -21.006  0.00  0.00    +0.035 C 
ATOM      3  C   UNL     1      35.026 -19.267 -22.872  0.00  0.00    -0.001 C 
ATOM      4  C   UNL     1      34.892 -16.677 -21.843  0.00  0.00    +0.167 C 
ATOM      5  C   UNL     1      35.241 -18.172 -23.709  0.00  0.00    +0.039 C 
ATOM      6  C   UNL     1      35.174 -16.877 -23.195  0.00  0.00    +0.167 C 
ENDROOT
BRANCH   4   7
ATOM      7  O   UNL     1      34.825 -15.417 -21.329  0.00  0.00    -0.503 OA
ATOM      8  H   UNL     1      34.222 -14.797 -21.687  0.00  0.00    +0.292 HD
ENDBRANCH   4   7
BRANCH   6   9
ATOM      9  O   UNL     1      35.387 -15.817 -24.022  0.00  0.00    -0.503 OA
ATOM     10  H   UNL     1      35.220 -15.897 -24.941  0.00  0.00    +0.292 HD
ENDBRANCH   6   9
BRANCH   1  11
ATOM     11  C   UNL     1      34.511 -20.238 -20.626  0.00  0.00    +0.003 C 
BRANCH  11  12
ATOM     12  C   UNL     1      33.025 -20.417 -20.282  0.00  0.00    -0.081 C 
BRANCH  12  13
ATOM     13  N   UNL     1      32.800 -21.623 -19.492  0.00  0.00    +0.381 N 
ATOM     14  H   UNL     1      32.658 -22.417 -20.117  0.00  0.00    -0.089 HD
ATOM     15  H   UNL     1      31.972 -21.497 -18.910  0.00  0.00    -0.089 HD
ATOM     16  H   UNL     1      33.611 -21.798 -18.899  0.00  0.00    -0.089 HD
ENDBRANCH  12  13
ENDBRANCH  11  12
ENDBRANCH   1  11
TORSDOF 5
ENDMDL
MODEL 6
REMARK VINA RESULT:      -6.0      4.115      5.220
REMARK  Name = 681
REMARK  5 active torsions:
REMARK  status: ('A' for Active; 'I' for Inactive)
REMARK    1  A    between atoms: C_1  and  C_11
REMARK    2  A    between atoms: C_4  and  O_7
REMARK    3  A    between atoms: C_6  and  O_9
REMARK    4  A    between atoms: C_11  and  C_12
REMARK    5  A    between atoms: C_12  and  N_13
REMARK                            x       y       z     vdW  Elec       q    Type
REMARK                         _______ _______ _______ _____ _____    ______ ____
ROOT
ATOM      1  C   UNL     1      34.742 -19.104 -21.521  0.00  0.00    -0.021 C 
ATOM      2  C   UNL     1      34.616 -19.253 -22.902  0.00  0.00    +0.035 C 
ATOM      3  C   UNL     1      35.071 -17.860 -20.982  0.00  0.00    -0.001 C 
ATOM      4  C   UNL     1      34.817 -18.160 -23.744  0.00  0.00    +0.167 C 
ATOM      5  C   UNL     1      35.273 -16.766 -21.823  0.00  0.00    +0.039 C 
ATOM      6  C   UNL     1      35.147 -16.916 -23.204  0.00  0.00    +0.167 C 
ENDROOT
BRANCH   4   7
ATOM      7  O   UNL     1      34.691 -18.318 -25.091  0.00  0.00    -0.503 OA
ATOM      8  H   UNL     1      33.939 -17.977 -25.534  0.00  0.00    +0.292 HD
ENDBRANCH   4   7
BRANCH   6   9
ATOM      9  O   UNL     1      35.346 -15.840 -24.016  0.00  0.00    -0.503 OA
ATOM     10  H   UNL     1      35.127 -14.980 -23.716  0.00  0.00    +0.292 HD
ENDBRANCH   6   9
BRANCH   1  11
ATOM     11  C   UNL     1      34.527 -20.274 -20.621  0.00  0.00    +0.003 C 
BRANCH  11  12
ATOM     12  C   UNL     1      33.043 -20.483 -20.291  0.00  0.00    -0.081 C 
BRANCH  12  13
ATOM     13  N   UNL     1      32.835 -21.696 -19.506  0.00  0.00    +0.381 N 
ATOM     14  H   UNL     1      32.739 -22.495 -20.133  0.00  0.00    -0.089 HD
ATOM     15  H   UNL     1      31.986 -21.598 -18.949  0.00  0.00    -0.089 HD
ATOM     16  H   UNL     1      33.633 -21.843 -18.888  0.00  0.00    -0.089 HD
ENDBRANCH  12  13
ENDBRANCH  11  12
ENDBRANCH   1  11
TORSDOF 5
ENDMDL
MODEL 7
REMARK VINA RESULT:      -5.9      3.560      4.885
REMARK  Name = 681
REMARK  5 active torsions:
REMARK  status: ('A' for Active; 'I' for Inactive)
REMARK    1  A    between atoms: C_1  and  C_11
REMARK    2  A    between atoms: C_4  and  O_7
REMARK    3  A    between atoms: C_6  and  O_9
REMARK    4  A    between atoms: C_11  and  C_12
REMARK    5  A    between atoms: C_12  and  N_13
REMARK                            x       y       z     vdW  Elec       q    Type
REMARK                         _______ _______ _______ _____ _____    ______ ____
ROOT
ATOM      1  C   UNL     1      34.558 -16.761 -24.087  0.00  0.00    -0.021 C 
ATOM      2  C   UNL     1      34.537 -16.004 -22.916  0.00  0.00    +0.035 C 
ATOM      3  C   UNL     1      35.022 -18.076 -24.059  0.00  0.00    -0.001 C 
ATOM      4  C   UNL     1      34.980 -16.561 -21.717  0.00  0.00    +0.167 C 
ATOM      5  C   UNL     1      35.465 -18.634 -22.861  0.00  0.00    +0.039 C 
ATOM      6  C   UNL     1      35.445 -17.877 -21.689  0.00  0.00    +0.167 C 
ENDROOT
BRANCH   4   7
ATOM      7  O   UNL     1      34.954 -15.812 -20.579  0.00  0.00    -0.503 OA
ATOM      8  H   UNL     1      35.568 -15.113 -20.465  0.00  0.00    +0.292 HD
ENDBRANCH   4   7
BRANCH   6   9
ATOM      9  O   UNL     1      35.880 -18.433 -20.524  0.00  0.00    -0.503 OA
ATOM     10  H   UNL     1      35.572 -18.102 -19.704  0.00  0.00    +0.292 HD
ENDBRANCH   6   9
BRANCH   1  11
ATOM     11  C   UNL     1      34.085 -16.164 -25.370  0.00  0.00    +0.003 C 
BRANCH  11  12
ATOM     12  C   UNL     1      33.310 -14.857 -25.148  0.00  0.00    -0.081 C 
BRANCH  12  13
ATOM     13  N   UNL     1      32.441 -14.552 -26.280  0.00  0.00    +0.381 N 
ATOM     14  H   UNL     1      32.653 -13.616 -26.629  0.00  0.00    -0.089 HD
ATOM     15  H   UNL     1      31.467 -14.588 -25.979  0.00  0.00    -0.089 HD
ATOM     16  H   UNL     1      32.595 -15.233 -27.022  0.00  0.00    -0.089 HD
ENDBRANCH  12  13
ENDBRANCH  11  12
ENDBRANCH   1  11
TORSDOF 5
ENDMDL
MODEL 8
REMARK VINA RESULT:      -5.8      4.944      6.436
REMARK  Name = 681
REMARK  5 active torsions:
REMARK  status: ('A' for Active; 'I' for Inactive)
REMARK    1  A    between atoms: C_1  and  C_11
REMARK    2  A    between atoms: C_4  and  O_7
REMARK    3  A    between atoms: C_6  and  O_9
REMARK    4  A    between atoms: C_11  and  C_12
REMARK    5  A    between atoms: C_12  and  N_13
REMARK                            x       y       z     vdW  Elec       q    Type
REMARK                         _______ _______ _______ _____ _____    ______ ____
ROOT
ATOM      1  C   UNL     1      34.994 -17.157 -23.513  0.00  0.00    -0.021 C 
ATOM      2  C   UNL     1      34.519 -17.055 -24.821  0.00  0.00    +0.035 C 
ATOM      3  C   UNL     1      34.821 -16.096 -22.624  0.00  0.00    -0.001 C 
ATOM      4  C   UNL     1      33.872 -15.893 -25.240  0.00  0.00    +0.167 C 
ATOM      5  C   UNL     1      34.175 -14.933 -23.043  0.00  0.00    +0.039 C 
ATOM      6  C   UNL     1      33.700 -14.831 -24.350  0.00  0.00    +0.167 C 
ENDROOT
BRANCH   4   7
ATOM      7  O   UNL     1      33.413 -15.805 -26.519  0.00  0.00    -0.503 OA
ATOM      8  H   UNL     1      32.530 -16.048 -26.718  0.00  0.00    +0.292 HD
ENDBRANCH   4   7
BRANCH   6   9
ATOM      9  O   UNL     1      33.070 -13.691 -24.747  0.00  0.00    -0.503 OA
ATOM     10  H   UNL     1      32.534 -13.695 -25.515  0.00  0.00    +0.292 HD
ENDBRANCH   6   9
BRANCH   1  11
ATOM     11  C   UNL     1      35.686 -18.400 -23.066  0.00  0.00    +0.003 C 
BRANCH  11  12
ATOM     12  C   UNL     1      35.120 -18.932 -21.742  0.00  0.00    -0.081 C 
BRANCH  12  13
ATOM     13  N   UNL     1      36.129 -18.926 -20.687  0.00  0.00    +0.381 N 
ATOM     14  H   UNL     1      36.327 -17.964 -20.412  0.00  0.00    -0.089 HD
ATOM     15  H   UNL     1      36.983 -19.363 -21.032  0.00  0.00    -0.089 HD
ATOM     16  H   UNL     1      35.782 -19.445 -19.881  0.00  0.00    -0.089 HD
ENDBRANCH  12  13
ENDBRANCH  11  12
ENDBRANCH   1  11
TORSDOF 5
ENDMDL
MODEL 9
REMARK VINA RESULT:      -5.8      3.705      4.692
REMARK  Name = 681
REMARK  5 active torsions:
REMARK  status: ('A' for Active; 'I' for Inactive)
REMARK    1  A    between atoms: C_1  and  C_11
REMARK    2  A    between atoms: C_4  and  O_7
REMARK    3  A    between atoms: C_6  and  O_9
REMARK    4  A    between atoms: C_11  and  C_12
REMARK    5  A    between atoms: C_12  and  N_13
REMARK                            x       y       z     vdW  Elec       q    Type
REMARK                         _______ _______ _______ _____ _____    ______ ____
ROOT
ATOM      1  C   UNL     1      34.510 -21.232 -19.727  0.00  0.00    -0.021 C 
ATOM      2  C   UNL     1      35.687 -20.609 -20.143  0.00  0.00    +0.035 C 
ATOM      3  C   UNL     1      33.272 -20.699 -20.090  0.00  0.00    -0.001 C 
ATOM      4  C   UNL     1      35.627 -19.453 -20.921  0.00  0.00    +0.167 C 
ATOM      5  C   UNL     1      33.212 -19.543 -20.868  0.00  0.00    +0.039 C 
ATOM      6  C   UNL     1      34.389 -18.920 -21.284  0.00  0.00    +0.167 C 
ENDROOT
BRANCH   4   7
ATOM      7  O   UNL     1      36.783 -18.854 -21.322  0.00  0.00    -0.503 OA
ATOM      8  H   UNL     1      37.569 -18.975 -20.827  0.00  0.00    +0.292 HD
ENDBRANCH   4   7
BRANCH   6   9
ATOM      9  O   UNL     1      34.317 -17.792 -22.044  0.00  0.00    -0.503 OA
ATOM     10  H   UNL     1      33.649 -17.156 -21.878  0.00  0.00    +0.292 HD
ENDBRANCH   6   9
BRANCH   1  11
ATOM     11  C   UNL     1      34.574 -22.467 -18.894  0.00  0.00    +0.003 C 
BRANCH  11  12
ATOM     12  C   UNL     1      33.265 -22.720 -18.134  0.00  0.00    -0.081 C 
BRANCH  12  13
ATOM     13  N   UNL     1      33.511 -23.327 -16.830  0.00  0.00    +0.381 N 
ATOM     14  H   UNL     1      32.634 -23.389 -16.312  0.00  0.00    -0.089 HD
ATOM     15  H   UNL     1      34.173 -22.754 -16.308  0.00  0.00    -0.089 HD
ATOM     16  H   UNL     1      33.897 -24.263 -16.957  0.00  0.00    -0.089 HD
ENDBRANCH  12  13
ENDBRANCH  11  12
ENDBRANCH   1  11
TORSDOF 5
ENDMDL
