MODEL 1
REMARK VINA RESULT:      -3.6      0.000      0.000
REMARK  Name = 259994
REMARK  3 active torsions:
REMARK  status: ('A' for Active; 'I' for Inactive)
REMARK    1  A    between atoms: C_1  and  O_3
REMARK    2  A    between atoms: C_1  and  C_5
REMARK    3  A    between atoms: C_5  and  O_6
REMARK                            x       y       z     vdW  Elec       q    Type
REMARK                         _______ _______ _______ _____ _____    ______ ____
ROOT
ATOM      1  C   UNL     1      28.462 -23.601 -16.646  0.00  0.00    +0.140 C 
ATOM      2  C   UNL     1      28.955 -24.525 -15.543  0.00  0.00    +0.034 C 
ENDROOT
BRANCH   1   3
ATOM      3  O   UNL     1      27.685 -24.360 -17.571  0.00  0.00    -0.382 OA
ATOM      4  H   UNL     1      26.888 -23.861 -17.809  0.00  0.00    +0.210 HD
ENDBRANCH   1   3
BRANCH   1   5
ATOM      5  C   UNL     1      27.586 -22.485 -16.088  0.00  0.00    +0.166 C 
BRANCH   5   6
ATOM      6  O   UNL     1      27.325 -21.542 -17.122  0.00  0.00    -0.379 OA
ATOM      7  H   UNL     1      26.564 -21.841 -17.646  0.00  0.00    +0.211 HD
ENDBRANCH   5   6
ENDBRANCH   1   5
TORSDOF 3
ENDMDL
MODEL 2
REMARK VINA RESULT:      -3.6     11.076     11.818
REMARK  Name = 259994
REMARK  3 active torsions:
REMARK  status: ('A' for Active; 'I' for Inactive)
REMARK    1  A    between atoms: C_1  and  O_3
REMARK    2  A    between atoms: C_1  and  C_5
REMARK    3  A    between atoms: C_5  and  O_6
REMARK                            x       y       z     vdW  Elec       q    Type
REMARK                         _______ _______ _______ _____ _____    ______ ____
ROOT
ATOM      1  C   UNL     1      38.896 -25.765 -14.240  0.00  0.00    +0.140 C 
ATOM      2  C   UNL     1      37.957 -24.691 -14.767  0.00  0.00    +0.034 C 
ENDROOT
BRANCH   1   3
ATOM      3  O   UNL     1      38.460 -27.036 -14.720  0.00  0.00    -0.382 OA
ATOM      4  H   UNL     1      38.388 -27.655 -13.977  0.00  0.00    +0.210 HD
ENDBRANCH   1   3
BRANCH   1   5
ATOM      5  C   UNL     1      40.326 -25.538 -14.718  0.00  0.00    +0.166 C 
BRANCH   5   6
ATOM      6  O   UNL     1      40.431 -25.958 -16.074  0.00  0.00    -0.379 OA
ATOM      7  H   UNL     1      40.373 -26.925 -16.118  0.00  0.00    +0.211 HD
ENDBRANCH   5   6
ENDBRANCH   1   5
TORSDOF 3
ENDMDL
MODEL 3
REMARK VINA RESULT:      -3.5      9.504     10.325
REMARK  Name = 259994
REMARK  3 active torsions:
REMARK  status: ('A' for Active; 'I' for Inactive)
REMARK    1  A    between atoms: C_1  and  O_3
REMARK    2  A    between atoms: C_1  and  C_5
REMARK    3  A    between atoms: C_5  and  O_6
REMARK                            x       y       z     vdW  Elec       q    Type
REMARK                         _______ _______ _______ _____ _____    ______ ____
ROOT
ATOM      1  C   UNL     1      37.676 -26.094 -14.343  0.00  0.00    +0.140 C 
ATOM      2  C   UNL     1      37.346 -26.281 -12.871  0.00  0.00    +0.034 C 
ENDROOT
BRANCH   1   3
ATOM      3  O   UNL     1      38.715 -27.005 -14.703  0.00  0.00    -0.382 OA
ATOM      4  H   UNL     1      38.415 -27.914 -14.550  0.00  0.00    +0.210 HD
ENDBRANCH   1   3
BRANCH   1   5
ATOM      5  C   UNL     1      36.466 -26.377 -15.226  0.00  0.00    +0.166 C 
BRANCH   5   6
ATOM      6  O   UNL     1      36.851 -27.276 -16.262  0.00  0.00    -0.379 OA
ATOM      7  H   UNL     1      36.983 -28.161 -15.888  0.00  0.00    +0.211 HD
ENDBRANCH   5   6
ENDBRANCH   1   5
TORSDOF 3
ENDMDL
MODEL 4
REMARK VINA RESULT:      -3.5      9.505     10.098
REMARK  Name = 259994
REMARK  3 active torsions:
REMARK  status: ('A' for Active; 'I' for Inactive)
REMARK    1  A    between atoms: C_1  and  O_3
REMARK    2  A    between atoms: C_1  and  C_5
REMARK    3  A    between atoms: C_5  and  O_6
REMARK                            x       y       z     vdW  Elec       q    Type
REMARK                         _______ _______ _______ _____ _____    ______ ____
ROOT
ATOM      1  C   UNL     1      36.718 -25.130 -12.390  0.00  0.00    +0.140 C 
ATOM      2  C   UNL     1      38.001 -24.402 -12.024  0.00  0.00    +0.034 C 
ENDROOT
BRANCH   1   3
ATOM      3  O   UNL     1      36.820 -26.489 -11.967  0.00  0.00    -0.382 OA
ATOM      4  H   UNL     1      36.322 -27.056 -12.575  0.00  0.00    +0.210 HD
ENDBRANCH   1   3
BRANCH   1   5
ATOM      5  C   UNL     1      35.508 -24.506 -11.705  0.00  0.00    +0.166 C 
BRANCH   5   6
ATOM      6  O   UNL     1      35.326 -25.125 -10.436  0.00  0.00    -0.379 OA
ATOM      7  H   UNL     1      35.499 -24.478  -9.733  0.00  0.00    +0.211 HD
ENDBRANCH   5   6
ENDBRANCH   1   5
TORSDOF 3
ENDMDL
MODEL 5
REMARK VINA RESULT:      -3.5      1.319      2.264
REMARK  Name = 259994
REMARK  3 active torsions:
REMARK  status: ('A' for Active; 'I' for Inactive)
REMARK    1  A    between atoms: C_1  and  O_3
REMARK    2  A    between atoms: C_1  and  C_5
REMARK    3  A    between atoms: C_5  and  O_6
REMARK                            x       y       z     vdW  Elec       q    Type
REMARK                         _______ _______ _______ _____ _____    ______ ____
ROOT
ATOM      1  C   UNL     1      29.136 -22.907 -16.174  0.00  0.00    +0.140 C 
ATOM      2  C   UNL     1      30.644 -22.887 -16.365  0.00  0.00    +0.034 C 
ENDROOT
BRANCH   1   3
ATOM      3  O   UNL     1      28.547 -21.947 -17.051  0.00  0.00    -0.382 OA
ATOM      4  H   UNL     1      28.822 -22.131 -17.963  0.00  0.00    +0.210 HD
ENDBRANCH   1   3
BRANCH   1   5
ATOM      5  C   UNL     1      28.551 -24.276 -16.501  0.00  0.00    +0.166 C 
BRANCH   5   6
ATOM      6  O   UNL     1      27.657 -24.145 -17.601  0.00  0.00    -0.379 OA
ATOM      7  H   UNL     1      27.209 -24.992 -17.755  0.00  0.00    +0.211 HD
ENDBRANCH   5   6
ENDBRANCH   1   5
TORSDOF 3
ENDMDL
MODEL 6
REMARK VINA RESULT:      -3.4     15.331     15.605
REMARK  Name = 259994
REMARK  3 active torsions:
REMARK  status: ('A' for Active; 'I' for Inactive)
REMARK    1  A    between atoms: C_1  and  O_3
REMARK    2  A    between atoms: C_1  and  C_5
REMARK    3  A    between atoms: C_5  and  O_6
REMARK                            x       y       z     vdW  Elec       q    Type
REMARK                         _______ _______ _______ _____ _____    ______ ____
ROOT
ATOM      1  C   UNL     1      41.130 -15.693 -15.226  0.00  0.00    +0.140 C 
ATOM      2  C   UNL     1      40.909 -14.211 -14.967  0.00  0.00    +0.034 C 
ENDROOT
BRANCH   1   3
ATOM      3  O   UNL     1      39.866 -16.354 -15.235  0.00  0.00    -0.382 OA
ATOM      4  H   UNL     1      39.159 -15.698 -15.339  0.00  0.00    +0.210 HD
ENDBRANCH   1   3
BRANCH   1   5
ATOM      5  C   UNL     1      41.802 -15.929 -16.574  0.00  0.00    +0.166 C 
BRANCH   5   6
ATOM      6  O   UNL     1      43.172 -16.250 -16.357  0.00  0.00    -0.379 OA
ATOM      7  H   UNL     1      43.453 -16.918 -17.002  0.00  0.00    +0.211 HD
ENDBRANCH   5   6
ENDBRANCH   1   5
TORSDOF 3
ENDMDL
MODEL 7
REMARK VINA RESULT:      -3.4     15.848     16.229
REMARK  Name = 259994
REMARK  3 active torsions:
REMARK  status: ('A' for Active; 'I' for Inactive)
REMARK    1  A    between atoms: C_1  and  O_3
REMARK    2  A    between atoms: C_1  and  C_5
REMARK    3  A    between atoms: C_5  and  O_6
REMARK                            x       y       z     vdW  Elec       q    Type
REMARK                         _______ _______ _______ _____ _____    ______ ____
ROOT
ATOM      1  C   UNL     1      41.842 -14.335 -16.326  0.00  0.00    +0.140 C 
ATOM      2  C   UNL     1      41.269 -14.190 -17.727  0.00  0.00    +0.034 C 
ENDROOT
BRANCH   1   3
ATOM      3  O   UNL     1      41.765 -13.073 -15.662  0.00  0.00    -0.382 OA
ATOM      4  H   UNL     1      42.526 -12.973 -15.070  0.00  0.00    +0.210 HD
ENDBRANCH   1   3
BRANCH   1   5
ATOM      5  C   UNL     1      41.060 -15.354 -15.507  0.00  0.00    +0.166 C 
BRANCH   5   6
ATOM      6  O   UNL     1      40.454 -14.692 -14.401  0.00  0.00    -0.379 OA
ATOM      7  H   UNL     1      40.263 -15.338 -13.703  0.00  0.00    +0.211 HD
ENDBRANCH   5   6
ENDBRANCH   1   5
TORSDOF 3
ENDMDL
MODEL 8
REMARK VINA RESULT:      -3.3     11.789     12.163
REMARK  Name = 259994
REMARK  3 active torsions:
REMARK  status: ('A' for Active; 'I' for Inactive)
REMARK    1  A    between atoms: C_1  and  O_3
REMARK    2  A    between atoms: C_1  and  C_5
REMARK    3  A    between atoms: C_5  and  O_6
REMARK                            x       y       z     vdW  Elec       q    Type
REMARK                         _______ _______ _______ _____ _____    ______ ____
ROOT
ATOM      1  C   UNL     1      34.906 -17.300 -23.540  0.00  0.00    +0.140 C 
ATOM      2  C   UNL     1      35.736 -18.350 -22.818  0.00  0.00    +0.034 C 
ENDROOT
BRANCH   1   3
ATOM      3  O   UNL     1      35.667 -16.097 -23.638  0.00  0.00    -0.382 OA
ATOM      4  H   UNL     1      35.297 -15.536 -24.337  0.00  0.00    +0.210 HD
ENDBRANCH   1   3
BRANCH   1   5
ATOM      5  C   UNL     1      34.540 -17.750 -24.949  0.00  0.00    +0.166 C 
BRANCH   5   6
ATOM      6  O   UNL     1      34.801 -16.685 -25.857  0.00  0.00    -0.379 OA
ATOM      7  H   UNL     1      35.401 -16.994 -26.554  0.00  0.00    +0.211 HD
ENDBRANCH   5   6
ENDBRANCH   1   5
TORSDOF 3
ENDMDL
MODEL 9
REMARK VINA RESULT:      -3.3     15.479     16.533
REMARK  Name = 259994
REMARK  3 active torsions:
REMARK  status: ('A' for Active; 'I' for Inactive)
REMARK    1  A    between atoms: C_1  and  O_3
REMARK    2  A    between atoms: C_1  and  C_5
REMARK    3  A    between atoms: C_5  and  O_6
REMARK                            x       y       z     vdW  Elec       q    Type
REMARK                         _______ _______ _______ _____ _____    ______ ____
ROOT
ATOM      1  C   UNL     1      32.795  -7.765 -20.618  0.00  0.00    +0.140 C 
ATOM      2  C   UNL     1      31.892  -6.879 -21.462  0.00  0.00    +0.034 C 
ENDROOT
BRANCH   1   3
ATOM      3  O   UNL     1      33.149  -7.063 -19.427  0.00  0.00    -0.382 OA
ATOM      4  H   UNL     1      32.905  -6.129 -19.518  0.00  0.00    +0.210 HD
ENDBRANCH   1   3
BRANCH   1   5
ATOM      5  C   UNL     1      32.093  -9.059 -20.221  0.00  0.00    +0.166 C 
BRANCH   5   6
ATOM      6  O   UNL     1      32.650  -9.529 -18.998  0.00  0.00    -0.379 OA
ATOM      7  H   UNL     1      32.771  -8.782 -18.390  0.00  0.00    +0.211 HD
ENDBRANCH   5   6
ENDBRANCH   1   5
TORSDOF 3
ENDMDL
