MODEL 1
REMARK VINA RESULT:      -9.3      0.000      0.000
REMARK  Name = 25218427
REMARK  4 active torsions:
REMARK  status: ('A' for Active; 'I' for Inactive)
REMARK    1  A    between atoms: C_7  and  O_13
REMARK    2  A    between atoms: O_13  and  C_14
REMARK    3  A    between atoms: C_17  and  C_23
REMARK    4  A    between atoms: C_18  and  C_21
REMARK                            x       y       z     vdW  Elec       q    Type
REMARK                         _______ _______ _______ _____ _____    ______ ____
ROOT
ATOM      1  F   UNL     1      32.762 -13.550 -20.469  0.00  0.00    -0.201 F 
ATOM      2  N   UNL     1      34.688 -16.788 -24.742  0.00  0.00    -0.280 N 
ATOM      3  N   UNL     1      35.244 -17.230 -23.597  0.00  0.00    -0.173 NA
ATOM      4  C   UNL     1      33.856 -15.463 -23.254  0.00  0.00    +0.069 A 
ATOM      5  C   UNL     1      33.844 -15.726 -24.595  0.00  0.00    +0.056 A 
ATOM      6  C   UNL     1      34.745 -16.423 -22.643  0.00  0.00    +0.105 A 
ATOM      7  C   UNL     1      33.139 -14.458 -22.619  0.00  0.00    +0.175 C 
ATOM      8  C   UNL     1      34.968 -16.408 -21.254  0.00  0.00    +0.023 C 
ATOM      9  C   UNL     1      33.382 -14.466 -21.232  0.00  0.00    +0.175 C 
ATOM     10  C   UNL     1      33.154 -15.123 -25.747  0.00  0.00    +0.052 C 
ATOM     11  C   UNL     1      34.253 -15.394 -20.579  0.00  0.00    +0.034 C 
ATOM     12  H   UNL     1      34.877 -17.199 -25.617  0.00  0.00    +0.189 HD
ENDROOT
BRANCH   7  13
ATOM     13  O   UNL     1      32.309 -13.567 -23.217  0.00  0.00    -0.451 OA
BRANCH  13  14
ATOM     14  C   UNL     1      32.775 -12.275 -23.411  0.00  0.00    +0.147 C 
ATOM     15  C   UNL     1      33.739 -12.021 -24.386  0.00  0.00    +0.048 C 
ATOM     16  C   UNL     1      32.279 -11.231 -22.631  0.00  0.00    +0.048 C 
ATOM     17  C   UNL     1      34.207 -10.721 -24.582  0.00  0.00    +0.072 C 
ATOM     18  C   UNL     1      32.747  -9.932 -22.827  0.00  0.00    +0.072 C 
ATOM     19  C   UNL     1      33.711  -9.677 -23.802  0.00  0.00    +0.021 C 
BRANCH  18  21
ATOM     20  N   UNL     1      31.827  -7.991 -21.379  0.00  0.00    -0.191 NA
ATOM     21  C   UNL     1      32.238  -8.860 -22.027  0.00  0.00    +0.101 C 
ENDBRANCH  18  21
BRANCH  17  23
ATOM     22  N   UNL     1      35.996 -10.249 -26.393  0.00  0.00    -0.191 NA
ATOM     23  C   UNL     1      35.195 -10.460 -25.581  0.00  0.00    +0.101 C 
ENDBRANCH  17  23
ENDBRANCH  13  14
ENDBRANCH   7  13
TORSDOF 4
ENDMDL
MODEL 2
REMARK VINA RESULT:      -9.3      0.023      2.751
REMARK  Name = 25218427
REMARK  4 active torsions:
REMARK  status: ('A' for Active; 'I' for Inactive)
REMARK    1  A    between atoms: C_7  and  O_13
REMARK    2  A    between atoms: O_13  and  C_14
REMARK    3  A    between atoms: C_17  and  C_23
REMARK    4  A    between atoms: C_18  and  C_21
REMARK                            x       y       z     vdW  Elec       q    Type
REMARK                         _______ _______ _______ _____ _____    ______ ____
ROOT
ATOM      1  F   UNL     1      32.743 -13.544 -20.461  0.00  0.00    -0.201 F 
ATOM      2  N   UNL     1      34.706 -16.793 -24.709  0.00  0.00    -0.280 N 
ATOM      3  N   UNL     1      35.256 -17.228 -23.558  0.00  0.00    -0.173 NA
ATOM      4  C   UNL     1      33.861 -15.465 -23.232  0.00  0.00    +0.069 A 
ATOM      5  C   UNL     1      33.858 -15.734 -24.571  0.00  0.00    +0.056 A 
ATOM      6  C   UNL     1      34.749 -16.419 -22.611  0.00  0.00    +0.105 A 
ATOM      7  C   UNL     1      33.137 -14.459 -22.605  0.00  0.00    +0.175 C 
ATOM      8  C   UNL     1      34.963 -16.398 -21.221  0.00  0.00    +0.023 C 
ATOM      9  C   UNL     1      33.370 -14.461 -21.216  0.00  0.00    +0.175 C 
ATOM     10  C   UNL     1      33.173 -15.137 -25.730  0.00  0.00    +0.052 C 
ATOM     11  C   UNL     1      34.241 -15.384 -20.554  0.00  0.00    +0.034 C 
ATOM     12  H   UNL     1      34.902 -17.207 -25.580  0.00  0.00    +0.189 HD
ENDROOT
BRANCH   7  13
ATOM     13  O   UNL     1      32.307 -13.573 -23.212  0.00  0.00    -0.451 OA
BRANCH  13  14
ATOM     14  C   UNL     1      32.769 -12.280 -23.404  0.00  0.00    +0.147 C 
ATOM     15  C   UNL     1      32.271 -11.238 -22.623  0.00  0.00    +0.048 C 
ATOM     16  C   UNL     1      33.733 -12.022 -24.379  0.00  0.00    +0.048 C 
ATOM     17  C   UNL     1      32.737  -9.937 -22.816  0.00  0.00    +0.072 C 
ATOM     18  C   UNL     1      34.198 -10.721 -24.572  0.00  0.00    +0.072 C 
ATOM     19  C   UNL     1      33.701  -9.679 -23.790  0.00  0.00    +0.021 C 
BRANCH  18  21
ATOM     20  N   UNL     1      35.988 -10.244 -26.382  0.00  0.00    -0.191 NA
ATOM     21  C   UNL     1      35.186 -10.457 -25.571  0.00  0.00    +0.101 C 
ENDBRANCH  18  21
BRANCH  17  23
ATOM     22  N   UNL     1      31.813  -8.001 -21.366  0.00  0.00    -0.191 NA
ATOM     23  C   UNL     1      32.227  -8.869 -22.015  0.00  0.00    +0.101 C 
ENDBRANCH  17  23
ENDBRANCH  13  14
ENDBRANCH   7  13
TORSDOF 4
ENDMDL
MODEL 3
REMARK VINA RESULT:      -9.1      2.320      6.721
REMARK  Name = 25218427
REMARK  4 active torsions:
REMARK  status: ('A' for Active; 'I' for Inactive)
REMARK    1  A    between atoms: C_7  and  O_13
REMARK    2  A    between atoms: O_13  and  C_14
REMARK    3  A    between atoms: C_17  and  C_23
REMARK    4  A    between atoms: C_18  and  C_21
REMARK                            x       y       z     vdW  Elec       q    Type
REMARK                         _______ _______ _______ _____ _____    ______ ____
ROOT
ATOM      1  F   UNL     1      33.021 -10.621 -24.670  0.00  0.00    -0.201 F 
ATOM      2  N   UNL     1      31.980  -8.687 -19.413  0.00  0.00    -0.280 N 
ATOM      3  N   UNL     1      32.749  -7.781 -20.049  0.00  0.00    -0.173 NA
ATOM      4  C   UNL     1      32.269  -9.575 -21.359  0.00  0.00    +0.069 A 
ATOM      5  C   UNL     1      31.661  -9.787 -20.155  0.00  0.00    +0.056 A 
ATOM      6  C   UNL     1      32.950  -8.305 -21.272  0.00  0.00    +0.105 A 
ATOM      7  C   UNL     1      32.226 -10.433 -22.450  0.00  0.00    +0.175 C 
ATOM      8  C   UNL     1      33.676  -7.805 -22.369  0.00  0.00    +0.023 C 
ATOM      9  C   UNL     1      32.961  -9.909 -23.532  0.00  0.00    +0.175 C 
ATOM     10  C   UNL     1      30.828 -10.872 -19.608  0.00  0.00    +0.052 C 
ATOM     11  C   UNL     1      33.652  -8.657 -23.496  0.00  0.00    +0.034 C 
ATOM     12  H   UNL     1      31.674  -8.565 -18.485  0.00  0.00    +0.189 HD
ENDROOT
BRANCH   7  13
ATOM     13  O   UNL     1      31.578 -11.624 -22.508  0.00  0.00    -0.451 OA
BRANCH  13  14
ATOM     14  C   UNL     1      32.337 -12.765 -22.722  0.00  0.00    +0.147 C 
ATOM     15  C   UNL     1      32.987 -13.381 -21.653  0.00  0.00    +0.048 C 
ATOM     16  C   UNL     1      32.449 -13.296 -24.007  0.00  0.00    +0.048 C 
ATOM     17  C   UNL     1      33.749 -14.530 -21.869  0.00  0.00    +0.072 C 
ATOM     18  C   UNL     1      33.212 -14.444 -24.222  0.00  0.00    +0.072 C 
ATOM     19  C   UNL     1      33.861 -15.061 -23.153  0.00  0.00    +0.021 C 
BRANCH  18  21
ATOM     20  N   UNL     1      33.420 -15.430 -26.608  0.00  0.00    -0.191 NA
ATOM     21  C   UNL     1      33.326 -14.989 -25.539  0.00  0.00    +0.101 C 
ENDBRANCH  18  21
BRANCH  17  23
ATOM     22  N   UNL     1      34.957 -15.675 -19.885  0.00  0.00    -0.191 NA
ATOM     23  C   UNL     1      34.415 -15.161 -20.774  0.00  0.00    +0.101 C 
ENDBRANCH  17  23
ENDBRANCH  13  14
ENDBRANCH   7  13
TORSDOF 4
ENDMDL
MODEL 4
REMARK VINA RESULT:      -9.1      2.326      6.404
REMARK  Name = 25218427
REMARK  4 active torsions:
REMARK  status: ('A' for Active; 'I' for Inactive)
REMARK    1  A    between atoms: C_7  and  O_13
REMARK    2  A    between atoms: O_13  and  C_14
REMARK    3  A    between atoms: C_17  and  C_23
REMARK    4  A    between atoms: C_18  and  C_21
REMARK                            x       y       z     vdW  Elec       q    Type
REMARK                         _______ _______ _______ _____ _____    ______ ____
ROOT
ATOM      1  F   UNL     1      32.998 -10.609 -24.660  0.00  0.00    -0.201 F 
ATOM      2  N   UNL     1      31.984  -8.661 -19.403  0.00  0.00    -0.280 N 
ATOM      3  N   UNL     1      32.749  -7.757 -20.046  0.00  0.00    -0.173 NA
ATOM      4  C   UNL     1      32.263  -9.554 -21.348  0.00  0.00    +0.069 A 
ATOM      5  C   UNL     1      31.662  -9.763 -20.140  0.00  0.00    +0.056 A 
ATOM      6  C   UNL     1      32.943  -8.284 -21.268  0.00  0.00    +0.105 A 
ATOM      7  C   UNL     1      32.215 -10.416 -22.437  0.00  0.00    +0.175 C 
ATOM      8  C   UNL     1      33.663  -7.787 -22.370  0.00  0.00    +0.023 C 
ATOM      9  C   UNL     1      32.944  -9.894 -23.524  0.00  0.00    +0.175 C 
ATOM     10  C   UNL     1      30.832 -10.847 -19.586  0.00  0.00    +0.052 C 
ATOM     11  C   UNL     1      33.635  -8.641 -23.494  0.00  0.00    +0.034 C 
ATOM     12  H   UNL     1      31.682  -8.536 -18.474  0.00  0.00    +0.189 HD
ENDROOT
BRANCH   7  13
ATOM     13  O   UNL     1      31.568 -11.607 -22.487  0.00  0.00    -0.451 OA
BRANCH  13  14
ATOM     14  C   UNL     1      32.325 -12.747 -22.709  0.00  0.00    +0.147 C 
ATOM     15  C   UNL     1      32.436 -13.271 -23.997  0.00  0.00    +0.048 C 
ATOM     16  C   UNL     1      32.977 -13.369 -21.645  0.00  0.00    +0.048 C 
ATOM     17  C   UNL     1      33.199 -14.417 -24.221  0.00  0.00    +0.072 C 
ATOM     18  C   UNL     1      33.740 -14.515 -21.868  0.00  0.00    +0.072 C 
ATOM     19  C   UNL     1      33.851 -15.039 -23.156  0.00  0.00    +0.021 C 
BRANCH  18  21
ATOM     20  N   UNL     1      34.952 -15.669 -19.891  0.00  0.00    -0.191 NA
ATOM     21  C   UNL     1      34.409 -15.153 -20.777  0.00  0.00    +0.101 C 
ENDBRANCH  18  21
BRANCH  17  23
ATOM     22  N   UNL     1      33.404 -15.389 -26.611  0.00  0.00    -0.191 NA
ATOM     23  C   UNL     1      33.312 -14.954 -25.540  0.00  0.00    +0.101 C 
ENDBRANCH  17  23
ENDBRANCH  13  14
ENDBRANCH   7  13
TORSDOF 4
ENDMDL
MODEL 5
REMARK VINA RESULT:      -8.7      1.433      2.499
REMARK  Name = 25218427
REMARK  4 active torsions:
REMARK  status: ('A' for Active; 'I' for Inactive)
REMARK    1  A    between atoms: C_7  and  O_13
REMARK    2  A    between atoms: O_13  and  C_14
REMARK    3  A    between atoms: C_17  and  C_23
REMARK    4  A    between atoms: C_18  and  C_21
REMARK                            x       y       z     vdW  Elec       q    Type
REMARK                         _______ _______ _______ _____ _____    ______ ____
ROOT
ATOM      1  F   UNL     1      32.349 -14.213 -25.980  0.00  0.00    -0.201 F 
ATOM      2  N   UNL     1      35.089 -16.486 -21.532  0.00  0.00    -0.280 N 
ATOM      3  N   UNL     1      35.456 -17.159 -22.640  0.00  0.00    -0.173 NA
ATOM      4  C   UNL     1      33.969 -15.501 -23.093  0.00  0.00    +0.069 A 
ATOM      5  C   UNL     1      34.195 -15.477 -21.747  0.00  0.00    +0.056 A 
ATOM      6  C   UNL     1      34.773 -16.569 -23.638  0.00  0.00    +0.105 A 
ATOM      7  C   UNL     1      33.121 -14.649 -23.788  0.00  0.00    +0.175 C 
ATOM      8  C   UNL     1      34.755 -16.847 -25.018  0.00  0.00    +0.023 C 
ATOM      9  C   UNL     1      33.123 -14.949 -25.165  0.00  0.00    +0.175 C 
ATOM     10  C   UNL     1      33.692 -14.643 -20.642  0.00  0.00    +0.052 C 
ATOM     11  C   UNL     1      33.901 -15.996 -25.753  0.00  0.00    +0.034 C 
ATOM     12  H   UNL     1      35.438 -16.705 -20.638  0.00  0.00    +0.189 HD
ENDROOT
BRANCH   7  13
ATOM     13  O   UNL     1      32.374 -13.651 -23.252  0.00  0.00    -0.451 OA
BRANCH  13  14
ATOM     14  C   UNL     1      32.818 -12.348 -23.419  0.00  0.00    +0.147 C 
ATOM     15  C   UNL     1      33.769 -12.055 -24.396  0.00  0.00    +0.048 C 
ATOM     16  C   UNL     1      32.314 -11.331 -22.609  0.00  0.00    +0.048 C 
ATOM     17  C   UNL     1      34.215 -10.744 -24.565  0.00  0.00    +0.072 C 
ATOM     18  C   UNL     1      32.760 -10.020 -22.777  0.00  0.00    +0.072 C 
ATOM     19  C   UNL     1      33.710  -9.727 -23.756  0.00  0.00    +0.021 C 
BRANCH  18  21
ATOM     20  N   UNL     1      31.824  -8.130 -21.274  0.00  0.00    -0.191 NA
ATOM     21  C   UNL     1      32.242  -8.977 -21.948  0.00  0.00    +0.101 C 
ENDBRANCH  18  21
BRANCH  17  23
ATOM     22  N   UNL     1      35.979 -10.200 -26.380  0.00  0.00    -0.191 NA
ATOM     23  C   UNL     1      35.189 -10.444 -25.566  0.00  0.00    +0.101 C 
ENDBRANCH  17  23
ENDBRANCH  13  14
ENDBRANCH   7  13
TORSDOF 4
ENDMDL
MODEL 6
REMARK VINA RESULT:      -8.7      1.434      3.716
REMARK  Name = 25218427
REMARK  4 active torsions:
REMARK  status: ('A' for Active; 'I' for Inactive)
REMARK    1  A    between atoms: C_7  and  O_13
REMARK    2  A    between atoms: O_13  and  C_14
REMARK    3  A    between atoms: C_17  and  C_23
REMARK    4  A    between atoms: C_18  and  C_21
REMARK                            x       y       z     vdW  Elec       q    Type
REMARK                         _______ _______ _______ _____ _____    ______ ____
ROOT
ATOM      1  F   UNL     1      32.354 -14.225 -25.984  0.00  0.00    -0.201 F 
ATOM      2  N   UNL     1      35.099 -16.487 -21.533  0.00  0.00    -0.280 N 
ATOM      3  N   UNL     1      35.463 -17.164 -22.640  0.00  0.00    -0.173 NA
ATOM      4  C   UNL     1      33.978 -15.506 -23.096  0.00  0.00    +0.069 A 
ATOM      5  C   UNL     1      34.207 -15.478 -21.749  0.00  0.00    +0.056 A 
ATOM      6  C   UNL     1      34.779 -16.577 -23.639  0.00  0.00    +0.105 A 
ATOM      7  C   UNL     1      33.130 -14.654 -23.792  0.00  0.00    +0.175 C 
ATOM      8  C   UNL     1      34.758 -16.859 -25.017  0.00  0.00    +0.023 C 
ATOM      9  C   UNL     1      33.128 -14.959 -25.167  0.00  0.00    +0.175 C 
ATOM     10  C   UNL     1      33.707 -14.639 -20.646  0.00  0.00    +0.052 C 
ATOM     11  C   UNL     1      33.903 -16.009 -25.753  0.00  0.00    +0.034 C 
ATOM     12  H   UNL     1      35.450 -16.704 -20.639  0.00  0.00    +0.189 HD
ENDROOT
BRANCH   7  13
ATOM     13  O   UNL     1      32.385 -13.653 -23.257  0.00  0.00    -0.451 OA
BRANCH  13  14
ATOM     14  C   UNL     1      32.828 -12.351 -23.435  0.00  0.00    +0.147 C 
ATOM     15  C   UNL     1      32.325 -11.328 -22.632  0.00  0.00    +0.048 C 
ATOM     16  C   UNL     1      33.777 -12.065 -24.416  0.00  0.00    +0.048 C 
ATOM     17  C   UNL     1      32.772 -10.019 -22.809  0.00  0.00    +0.072 C 
ATOM     18  C   UNL     1      34.223 -10.756 -24.594  0.00  0.00    +0.072 C 
ATOM     19  C   UNL     1      33.720  -9.732 -23.790  0.00  0.00    +0.021 C 
BRANCH  18  21
ATOM     20  N   UNL     1      35.985 -10.225 -26.416  0.00  0.00    -0.191 NA
ATOM     21  C   UNL     1      35.196 -10.462 -25.600  0.00  0.00    +0.101 C 
ENDBRANCH  18  21
BRANCH  17  23
ATOM     22  N   UNL     1      31.838  -8.118 -21.318  0.00  0.00    -0.191 NA
ATOM     23  C   UNL     1      32.256  -8.970 -21.986  0.00  0.00    +0.101 C 
ENDBRANCH  17  23
ENDBRANCH  13  14
ENDBRANCH   7  13
TORSDOF 4
ENDMDL
MODEL 7
REMARK VINA RESULT:      -8.4     11.734     14.684
REMARK  Name = 25218427
REMARK  4 active torsions:
REMARK  status: ('A' for Active; 'I' for Inactive)
REMARK    1  A    between atoms: C_7  and  O_13
REMARK    2  A    between atoms: O_13  and  C_14
REMARK    3  A    between atoms: C_17  and  C_23
REMARK    4  A    between atoms: C_18  and  C_21
REMARK                            x       y       z     vdW  Elec       q    Type
REMARK                         _______ _______ _______ _____ _____    ______ ____
ROOT
ATOM      1  F   UNL     1      34.593 -23.255 -11.880  0.00  0.00    -0.201 F 
ATOM      2  N   UNL     1      38.941 -26.010 -14.322  0.00  0.00    -0.280 N 
ATOM      3  N   UNL     1      39.446 -25.137 -13.428  0.00  0.00    -0.173 NA
ATOM      4  C   UNL     1      37.176 -25.071 -13.508  0.00  0.00    +0.069 A 
ATOM      5  C   UNL     1      37.580 -26.012 -14.412  0.00  0.00    +0.056 A 
ATOM      6  C   UNL     1      38.368 -24.530 -12.898  0.00  0.00    +0.105 A 
ATOM      7  C   UNL     1      35.860 -24.716 -13.241  0.00  0.00    +0.175 C 
ATOM      8  C   UNL     1      38.277 -23.528 -11.915  0.00  0.00    +0.023 C 
ATOM      9  C   UNL     1      35.800 -23.713 -12.254  0.00  0.00    +0.175 C 
ATOM     10  C   UNL     1      36.869 -26.907 -15.341  0.00  0.00    +0.052 C 
ATOM     11  C   UNL     1      36.950 -23.145 -11.621  0.00  0.00    +0.034 C 
ATOM     12  H   UNL     1      39.510 -26.599 -14.868  0.00  0.00    +0.189 HD
ENDROOT
BRANCH   7  13
ATOM     13  O   UNL     1      34.754 -25.239 -13.828  0.00  0.00    -0.451 OA
BRANCH  13  14
ATOM     14  C   UNL     1      34.066 -24.447 -14.734  0.00  0.00    +0.147 C 
ATOM     15  C   UNL     1      32.724 -24.138 -14.512  0.00  0.00    +0.048 C 
ATOM     16  C   UNL     1      34.715 -23.959 -15.868  0.00  0.00    +0.048 C 
ATOM     17  C   UNL     1      32.032 -23.340 -15.422  0.00  0.00    +0.072 C 
ATOM     18  C   UNL     1      34.022 -23.162 -16.779  0.00  0.00    +0.072 C 
ATOM     19  C   UNL     1      32.680 -22.852 -16.556  0.00  0.00    +0.021 C 
BRANCH  18  21
ATOM     20  N   UNL     1      35.229 -22.254 -18.883  0.00  0.00    -0.191 NA
ATOM     21  C   UNL     1      34.688 -22.661 -17.941  0.00  0.00    +0.101 C 
ENDBRANCH  18  21
BRANCH  17  23
ATOM     22  N   UNL     1      29.541 -22.766 -15.009  0.00  0.00    -0.191 NA
ATOM     23  C   UNL     1      30.657 -23.023 -15.194  0.00  0.00    +0.101 C 
ENDBRANCH  17  23
ENDBRANCH  13  14
ENDBRANCH   7  13
TORSDOF 4
ENDMDL
MODEL 8
REMARK VINA RESULT:      -8.4     11.739     14.462
REMARK  Name = 25218427
REMARK  4 active torsions:
REMARK  status: ('A' for Active; 'I' for Inactive)
REMARK    1  A    between atoms: C_7  and  O_13
REMARK    2  A    between atoms: O_13  and  C_14
REMARK    3  A    between atoms: C_17  and  C_23
REMARK    4  A    between atoms: C_18  and  C_21
REMARK                            x       y       z     vdW  Elec       q    Type
REMARK                         _______ _______ _______ _____ _____    ______ ____
ROOT
ATOM      1  F   UNL     1      34.636 -23.240 -11.866  0.00  0.00    -0.201 F 
ATOM      2  N   UNL     1      38.953 -26.022 -14.332  0.00  0.00    -0.280 N 
ATOM      3  N   UNL     1      39.468 -25.148 -13.445  0.00  0.00    -0.173 NA
ATOM      4  C   UNL     1      37.198 -25.073 -13.508  0.00  0.00    +0.069 A 
ATOM      5  C   UNL     1      37.591 -26.019 -14.411  0.00  0.00    +0.056 A 
ATOM      6  C   UNL     1      38.397 -24.535 -12.909  0.00  0.00    +0.105 A 
ATOM      7  C   UNL     1      35.886 -24.711 -13.231  0.00  0.00    +0.175 C 
ATOM      8  C   UNL     1      38.319 -23.530 -11.929  0.00  0.00    +0.023 C 
ATOM      9  C   UNL     1      35.838 -23.704 -12.248  0.00  0.00    +0.175 C 
ATOM     10  C   UNL     1      36.868 -26.915 -15.331  0.00  0.00    +0.052 C 
ATOM     11  C   UNL     1      36.996 -23.139 -11.626  0.00  0.00    +0.034 C 
ATOM     12  H   UNL     1      39.515 -26.616 -14.880  0.00  0.00    +0.189 HD
ENDROOT
BRANCH   7  13
ATOM     13  O   UNL     1      34.773 -25.232 -13.808  0.00  0.00    -0.451 OA
BRANCH  13  14
ATOM     14  C   UNL     1      34.084 -24.443 -14.716  0.00  0.00    +0.147 C 
ATOM     15  C   UNL     1      34.735 -23.951 -15.847  0.00  0.00    +0.048 C 
ATOM     16  C   UNL     1      32.740 -24.141 -14.499  0.00  0.00    +0.048 C 
ATOM     17  C   UNL     1      34.042 -23.158 -16.762  0.00  0.00    +0.072 C 
ATOM     18  C   UNL     1      32.047 -23.348 -15.413  0.00  0.00    +0.072 C 
ATOM     19  C   UNL     1      32.698 -22.856 -16.545  0.00  0.00    +0.021 C 
BRANCH  18  21
ATOM     20  N   UNL     1      29.550 -22.788 -15.010  0.00  0.00    -0.191 NA
ATOM     21  C   UNL     1      30.668 -23.039 -15.190  0.00  0.00    +0.101 C 
ENDBRANCH  18  21
BRANCH  17  23
ATOM     22  N   UNL     1      35.250 -22.246 -18.862  0.00  0.00    -0.191 NA
ATOM     23  C   UNL     1      34.708 -22.654 -17.921  0.00  0.00    +0.101 C 
ENDBRANCH  17  23
ENDBRANCH  13  14
ENDBRANCH   7  13
TORSDOF 4
ENDMDL
MODEL 9
REMARK VINA RESULT:      -8.3      2.516      7.098
REMARK  Name = 25218427
REMARK  4 active torsions:
REMARK  status: ('A' for Active; 'I' for Inactive)
REMARK    1  A    between atoms: C_7  and  O_13
REMARK    2  A    between atoms: O_13  and  C_14
REMARK    3  A    between atoms: C_17  and  C_23
REMARK    4  A    between atoms: C_18  and  C_21
REMARK                            x       y       z     vdW  Elec       q    Type
REMARK                         _______ _______ _______ _____ _____    ______ ____
ROOT
ATOM      1  F   UNL     1      30.860  -8.061 -24.550  0.00  0.00    -0.201 F 
ATOM      2  N   UNL     1      32.669  -7.800 -19.154  0.00  0.00    -0.280 N 
ATOM      3  N   UNL     1      32.767  -6.568 -19.690  0.00  0.00    -0.173 NA
ATOM      4  C   UNL     1      31.951  -8.087 -21.170  0.00  0.00    +0.069 A 
ATOM      5  C   UNL     1      32.184  -8.754 -20.000  0.00  0.00    +0.056 A 
ATOM      6  C   UNL     1      32.326  -6.710 -20.953  0.00  0.00    +0.105 A 
ATOM      7  C   UNL     1      31.448  -8.648 -22.336  0.00  0.00    +0.175 C 
ATOM      8  C   UNL     1      32.200  -5.763 -21.986  0.00  0.00    +0.023 C 
ATOM      9  C   UNL     1      31.333  -7.679 -23.352  0.00  0.00    +0.175 C 
ATOM     10  C   UNL     1      32.014 -10.153 -19.571  0.00  0.00    +0.052 C 
ATOM     11  C   UNL     1      31.691  -6.304 -23.187  0.00  0.00    +0.034 C 
ATOM     12  H   UNL     1      32.928  -7.997 -18.225  0.00  0.00    +0.189 HD
ENDROOT
BRANCH   7  13
ATOM     13  O   UNL     1      31.103  -9.948 -22.515  0.00  0.00    -0.451 OA
BRANCH  13  14
ATOM     14  C   UNL     1      32.065 -10.811 -23.019  0.00  0.00    +0.147 C 
ATOM     15  C   UNL     1      32.103 -12.138 -22.594  0.00  0.00    +0.048 C 
ATOM     16  C   UNL     1      32.995 -10.350 -23.951  0.00  0.00    +0.048 C 
ATOM     17  C   UNL     1      33.070 -13.007 -23.102  0.00  0.00    +0.072 C 
ATOM     18  C   UNL     1      33.962 -11.218 -24.458  0.00  0.00    +0.072 C 
ATOM     19  C   UNL     1      33.999 -12.546 -24.034  0.00  0.00    +0.021 C 
BRANCH  18  21
ATOM     20  N   UNL     1      35.687 -10.364 -26.191  0.00  0.00    -0.191 NA
ATOM     21  C   UNL     1      34.915 -10.746 -25.415  0.00  0.00    +0.101 C 
ENDBRANCH  18  21
BRANCH  17  23
ATOM     22  N   UNL     1      33.141 -15.472 -22.313  0.00  0.00    -0.191 NA
ATOM     23  C   UNL     1      33.109 -14.367 -22.666  0.00  0.00    +0.101 C 
ENDBRANCH  17  23
ENDBRANCH  13  14
ENDBRANCH   7  13
TORSDOF 4
ENDMDL
