MODEL 1
REMARK VINA RESULT:     -10.7      0.000      0.000
REMARK  Name = 9952008
REMARK  0 active torsions:
REMARK  status: ('A' for Active; 'I' for Inactive)
REMARK                            x       y       z     vdW  Elec       q    Type
REMARK                         _______ _______ _______ _____ _____    ______ ____
ROOT
ATOM      1 BR   UNL     1      35.957 -19.085 -21.611  0.00  0.00    -0.043 Br
ATOM      2  S   UNL     1      35.750 -24.749 -15.044  0.00  0.00    +0.060 S 
ATOM      3  O   UNL     1      36.036 -24.492 -13.646  0.00  0.00    -0.153 OA
ATOM      4  O   UNL     1      35.725 -26.104 -15.563  0.00  0.00    -0.153 OA
ATOM      5  N   UNL     1      36.803 -23.817 -16.002  0.00  0.00    -0.179 NA
ATOM      6  N   UNL     1      36.679 -20.798 -19.071  0.00  0.00    -0.307 N 
ATOM      7  N   UNL     1      32.312 -22.471 -18.221  0.00  0.00    -0.247 N 
ATOM      8  N   UNL     1      34.497 -21.684 -18.742  0.00  0.00    -0.322 NA
ATOM      9  N   UNL     1      32.678 -21.128 -20.142  0.00  0.00    -0.169 NA
ATOM     10  C   UNL     1      36.784 -21.420 -16.663  0.00  0.00    +0.040 C 
ATOM     11  C   UNL     1      37.237 -22.455 -15.632  0.00  0.00    +0.093 C 
ATOM     12  C   UNL     1      37.249 -21.719 -18.095  0.00  0.00    +0.091 C 
ATOM     13  C   UNL     1      34.150 -24.085 -15.396  0.00  0.00    +0.123 C 
ATOM     14  C   UNL     1      33.848 -23.658 -16.690  0.00  0.00    +0.035 C 
ATOM     15  C   UNL     1      32.597 -23.093 -16.986  0.00  0.00    +0.059 C 
ATOM     16  C   UNL     1      33.202 -24.004 -14.379  0.00  0.00    +0.020 C 
ATOM     17  C   UNL     1      35.339 -20.887 -19.437  0.00  0.00    +0.201 C 
ATOM     18  C   UNL     1      31.642 -23.033 -15.959  0.00  0.00    +0.015 C 
ATOM     19  C   UNL     1      31.941 -23.490 -14.671  0.00  0.00    +0.003 C 
ATOM     20  C   UNL     1      33.190 -21.768 -19.073  0.00  0.00    +0.150 C 
ATOM     21  C   UNL     1      34.874 -20.200 -20.540  0.00  0.00    +0.099 C 
ATOM     22  C   UNL     1      33.537 -20.365 -20.852  0.00  0.00    +0.122 C 
ATOM     23  H   UNL     1      36.350 -23.729 -16.912  0.00  0.00    +0.149 HD
ATOM     24  H   UNL     1      37.249 -20.105 -19.476  0.00  0.00    +0.149 HD
ATOM     25  H   UNL     1      31.379 -22.535 -18.527  0.00  0.00    +0.165 HD
ENDROOT
TORSDOF 0
ENDMDL
MODEL 2
REMARK VINA RESULT:      -9.0      2.587      4.824
REMARK  Name = 9952008
REMARK  0 active torsions:
REMARK  status: ('A' for Active; 'I' for Inactive)
REMARK                            x       y       z     vdW  Elec       q    Type
REMARK                         _______ _______ _______ _____ _____    ______ ____
ROOT
ATOM      1 BR   UNL     1      33.099 -21.670 -19.474  0.00  0.00    -0.043 Br
ATOM      2  S   UNL     1      35.972 -24.175 -11.682  0.00  0.00    +0.060 S 
ATOM      3  O   UNL     1      35.804 -25.470 -11.052  0.00  0.00    -0.153 OA
ATOM      4  O   UNL     1      36.365 -23.014 -10.905  0.00  0.00    -0.153 OA
ATOM      5  N   UNL     1      34.560 -23.797 -12.552  0.00  0.00    -0.179 NA
ATOM      6  N   UNL     1      33.303 -22.841 -16.559  0.00  0.00    -0.307 N 
ATOM      7  N   UNL     1      38.048 -22.954 -16.297  0.00  0.00    -0.247 N 
ATOM      8  N   UNL     1      35.678 -22.790 -16.439  0.00  0.00    -0.322 NA
ATOM      9  N   UNL     1      37.022 -22.032 -18.227  0.00  0.00    -0.169 NA
ATOM     10  C   UNL     1      33.720 -24.527 -14.776  0.00  0.00    +0.040 C 
ATOM     11  C   UNL     1      33.762 -24.810 -13.273  0.00  0.00    +0.093 C 
ATOM     12  C   UNL     1      33.194 -23.130 -15.135  0.00  0.00    +0.091 C 
ATOM     13  C   UNL     1      37.214 -24.342 -12.930  0.00  0.00    +0.123 C 
ATOM     14  C   UNL     1      37.190 -23.502 -14.045  0.00  0.00    +0.035 C 
ATOM     15  C   UNL     1      38.143 -23.640 -15.067  0.00  0.00    +0.059 C 
ATOM     16  C   UNL     1      38.208 -25.305 -12.783  0.00  0.00    +0.020 C 
ATOM     17  C   UNL     1      34.542 -22.576 -17.139  0.00  0.00    +0.201 C 
ATOM     18  C   UNL     1      39.153 -24.601 -14.901  0.00  0.00    +0.015 C 
ATOM     19  C   UNL     1      39.187 -25.420 -13.767  0.00  0.00    +0.003 C 
ATOM     20  C   UNL     1      36.888 -22.554 -16.993  0.00  0.00    +0.150 C 
ATOM     21  C   UNL     1      34.613 -22.046 -18.411  0.00  0.00    +0.099 C 
ATOM     22  C   UNL     1      35.879 -21.785 -18.902  0.00  0.00    +0.122 C 
ATOM     23  H   UNL     1      34.838 -23.110 -13.253  0.00  0.00    +0.149 HD
ATOM     24  H   UNL     1      32.493 -22.833 -17.118  0.00  0.00    +0.149 HD
ATOM     25  H   UNL     1      38.904 -22.724 -16.726  0.00  0.00    +0.165 HD
ENDROOT
TORSDOF 0
ENDMDL
MODEL 3
REMARK VINA RESULT:      -8.9     11.748     14.176
REMARK  Name = 9952008
REMARK  0 active torsions:
REMARK  status: ('A' for Active; 'I' for Inactive)
REMARK                            x       y       z     vdW  Elec       q    Type
REMARK                         _______ _______ _______ _____ _____    ______ ____
ROOT
ATOM      1 BR   UNL     1      32.310 -16.022 -20.631  0.00  0.00    -0.043 Br
ATOM      2  S   UNL     1      31.765  -7.498 -22.145  0.00  0.00    +0.060 S 
ATOM      3  O   UNL     1      32.353  -6.423 -21.369  0.00  0.00    -0.153 OA
ATOM      4  O   UNL     1      30.705  -7.234 -23.099  0.00  0.00    -0.153 OA
ATOM      5  N   UNL     1      31.252  -8.725 -21.084  0.00  0.00    -0.179 NA
ATOM      6  N   UNL     1      31.882 -12.919 -20.328  0.00  0.00    -0.307 N 
ATOM      7  N   UNL     1      34.020 -11.627 -24.372  0.00  0.00    -0.247 N 
ATOM      8  N   UNL     1      32.877 -12.328 -22.406  0.00  0.00    -0.322 NA
ATOM      9  N   UNL     1      33.786 -13.935 -23.878  0.00  0.00    -0.169 NA
ATOM     10  C   UNL     1      32.478 -10.539 -19.905  0.00  0.00    +0.040 C 
ATOM     11  C   UNL     1      31.987  -9.090 -19.857  0.00  0.00    +0.093 C 
ATOM     12  C   UNL     1      31.364 -11.568 -20.143  0.00  0.00    +0.091 C 
ATOM     13  C   UNL     1      33.059  -8.255 -23.081  0.00  0.00    +0.123 C 
ATOM     14  C   UNL     1      32.955  -9.599 -23.442  0.00  0.00    +0.035 C 
ATOM     15  C   UNL     1      33.987 -10.233 -24.154  0.00  0.00    +0.059 C 
ATOM     16  C   UNL     1      34.165  -7.498 -23.459  0.00  0.00    +0.020 C 
ATOM     17  C   UNL     1      32.531 -13.276 -21.507  0.00  0.00    +0.201 C 
ATOM     18  C   UNL     1      35.089  -9.457 -24.546  0.00  0.00    +0.015 C 
ATOM     19  C   UNL     1      35.173  -8.103 -24.206  0.00  0.00    +0.003 C 
ATOM     20  C   UNL     1      33.522 -12.657 -23.546  0.00  0.00    +0.150 C 
ATOM     21  C   UNL     1      32.778 -14.605 -21.787  0.00  0.00    +0.099 C 
ATOM     22  C   UNL     1      33.400 -14.878 -22.991  0.00  0.00    +0.122 C 
ATOM     23  H   UNL     1      31.201  -9.577 -21.644  0.00  0.00    +0.149 HD
ATOM     24  H   UNL     1      31.772 -13.585 -19.612  0.00  0.00    +0.149 HD
ATOM     25  H   UNL     1      34.448 -11.919 -25.209  0.00  0.00    +0.165 HD
ENDROOT
TORSDOF 0
ENDMDL
MODEL 4
REMARK VINA RESULT:      -8.3     11.068     13.366
REMARK  Name = 9952008
REMARK  0 active torsions:
REMARK  status: ('A' for Active; 'I' for Inactive)
REMARK                            x       y       z     vdW  Elec       q    Type
REMARK                         _______ _______ _______ _____ _____    ______ ____
ROOT
ATOM      1 BR   UNL     1      31.985  -5.730 -21.436  0.00  0.00    -0.043 Br
ATOM      2  S   UNL     1      33.232 -14.311 -21.672  0.00  0.00    +0.060 S 
ATOM      3  O   UNL     1      32.223 -15.348 -21.776  0.00  0.00    -0.153 OA
ATOM      4  O   UNL     1      34.581 -14.625 -21.244  0.00  0.00    -0.153 OA
ATOM      5  N   UNL     1      32.629 -13.052 -20.700  0.00  0.00    -0.179 NA
ATOM      6  N   UNL     1      31.822  -8.825 -20.890  0.00  0.00    -0.307 N 
ATOM      7  N   UNL     1      34.161 -10.238 -24.779  0.00  0.00    -0.247 N 
ATOM      8  N   UNL     1      33.079  -9.480 -22.800  0.00  0.00    -0.322 NA
ATOM      9  N   UNL     1      33.946  -7.916 -24.343  0.00  0.00    -0.169 NA
ATOM     10  C   UNL     1      31.062 -11.179 -21.169  0.00  0.00    +0.040 C 
ATOM     11  C   UNL     1      31.213 -12.631 -20.712  0.00  0.00    +0.093 C 
ATOM     12  C   UNL     1      31.873 -10.174 -20.339  0.00  0.00    +0.091 C 
ATOM     13  C   UNL     1      33.408 -13.572 -23.269  0.00  0.00    +0.123 C 
ATOM     14  C   UNL     1      33.824 -12.244 -23.373  0.00  0.00    +0.035 C 
ATOM     15  C   UNL     1      33.937 -11.624 -24.629  0.00  0.00    +0.059 C 
ATOM     16  C   UNL     1      33.141 -14.328 -24.408  0.00  0.00    +0.020 C 
ATOM     17  C   UNL     1      32.520  -8.503 -22.051  0.00  0.00    +0.201 C 
ATOM     18  C   UNL     1      33.683 -12.399 -25.771  0.00  0.00    +0.015 C 
ATOM     19  C   UNL     1      33.295 -13.738 -25.660  0.00  0.00    +0.003 C 
ATOM     20  C   UNL     1      33.745  -9.185 -23.938  0.00  0.00    +0.150 C 
ATOM     21  C   UNL     1      32.687  -7.183 -22.416  0.00  0.00    +0.099 C 
ATOM     22  C   UNL     1      33.416  -6.947 -23.567  0.00  0.00    +0.122 C 
ATOM     23  H   UNL     1      33.169 -12.223 -20.948  0.00  0.00    +0.149 HD
ATOM     24  H   UNL     1      31.288  -8.134 -20.436  0.00  0.00    +0.149 HD
ATOM     25  H   UNL     1      34.676  -9.972 -25.575  0.00  0.00    +0.165 HD
ENDROOT
TORSDOF 0
ENDMDL
MODEL 5
REMARK VINA RESULT:      -8.2     10.612     12.816
REMARK  Name = 9952008
REMARK  0 active torsions:
REMARK  status: ('A' for Active; 'I' for Inactive)
REMARK                            x       y       z     vdW  Elec       q    Type
REMARK                         _______ _______ _______ _____ _____    ______ ____
ROOT
ATOM      1 BR   UNL     1      32.083  -7.288 -20.540  0.00  0.00    -0.043 Br
ATOM      2  S   UNL     1      33.226 -13.838 -26.111  0.00  0.00    +0.060 S 
ATOM      3  O   UNL     1      34.468 -14.278 -26.716  0.00  0.00    -0.153 OA
ATOM      4  O   UNL     1      31.946 -14.252 -26.654  0.00  0.00    -0.153 OA
ATOM      5  N   UNL     1      33.244 -12.141 -25.986  0.00  0.00    -0.179 NA
ATOM      6  N   UNL     1      32.930  -9.041 -23.012  0.00  0.00    -0.307 N 
ATOM      7  N   UNL     1      31.972 -13.281 -21.089  0.00  0.00    -0.247 N 
ATOM      8  N   UNL     1      32.347 -11.134 -22.043  0.00  0.00    -0.322 NA
ATOM      9  N   UNL     1      31.466 -11.317 -19.860  0.00  0.00    -0.169 NA
ATOM     10  C   UNL     1      34.326 -10.593 -24.369  0.00  0.00    +0.040 C 
ATOM     11  C   UNL     1      34.464 -11.368 -25.681  0.00  0.00    +0.093 C 
ATOM     12  C   UNL     1      33.115  -9.651 -24.324  0.00  0.00    +0.091 C 
ATOM     13  C   UNL     1      33.221 -14.391 -24.431  0.00  0.00    +0.123 C 
ATOM     14  C   UNL     1      32.504 -13.675 -23.471  0.00  0.00    +0.035 C 
ATOM     15  C   UNL     1      32.514 -14.074 -22.124  0.00  0.00    +0.059 C 
ATOM     16  C   UNL     1      33.925 -15.541 -24.086  0.00  0.00    +0.020 C 
ATOM     17  C   UNL     1      32.448  -9.790 -21.941  0.00  0.00    +0.201 C 
ATOM     18  C   UNL     1      33.212 -15.245 -21.789  0.00  0.00    +0.015 C 
ATOM     19  C   UNL     1      33.904 -15.973 -22.762  0.00  0.00    +0.003 C 
ATOM     20  C   UNL     1      31.898 -11.875 -21.007  0.00  0.00    +0.150 C 
ATOM     21  C   UNL     1      32.025  -9.158 -20.789  0.00  0.00    +0.099 C 
ATOM     22  C   UNL     1      31.535  -9.970 -19.783  0.00  0.00    +0.122 C 
ATOM     23  H   UNL     1      32.573 -11.907 -25.254  0.00  0.00    +0.149 HD
ATOM     24  H   UNL     1      33.148  -8.090 -22.883  0.00  0.00    +0.149 HD
ATOM     25  H   UNL     1      31.597 -13.775 -20.325  0.00  0.00    +0.165 HD
ENDROOT
TORSDOF 0
ENDMDL
MODEL 6
REMARK VINA RESULT:      -7.8      3.463      5.323
REMARK  Name = 9952008
REMARK  0 active torsions:
REMARK  status: ('A' for Active; 'I' for Inactive)
REMARK                            x       y       z     vdW  Elec       q    Type
REMARK                         _______ _______ _______ _____ _____    ______ ____
ROOT
ATOM      1 BR   UNL     1      29.896 -22.785 -16.605  0.00  0.00    -0.043 Br
ATOM      2  S   UNL     1      38.176 -24.710 -14.878  0.00  0.00    +0.060 S 
ATOM      3  O   UNL     1      39.295 -23.793 -14.781  0.00  0.00    -0.153 OA
ATOM      4  O   UNL     1      38.394 -26.136 -15.034  0.00  0.00    -0.153 OA
ATOM      5  N   UNL     1      37.134 -24.178 -16.113  0.00  0.00    -0.179 NA
ATOM      6  N   UNL     1      33.036 -22.988 -16.696  0.00  0.00    -0.307 N 
ATOM      7  N   UNL     1      33.645 -24.731 -12.316  0.00  0.00    -0.247 N 
ATOM      8  N   UNL     1      33.284 -23.947 -14.534  0.00  0.00    -0.322 NA
ATOM      9  N   UNL     1      31.441 -24.394 -13.126  0.00  0.00    -0.169 NA
ATOM     10  C   UNL     1      35.400 -22.397 -16.188  0.00  0.00    +0.040 C 
ATOM     11  C   UNL     1      36.875 -22.751 -16.391  0.00  0.00    +0.093 C 
ATOM     12  C   UNL     1      34.433 -23.250 -17.021  0.00  0.00    +0.091 C 
ATOM     13  C   UNL     1      37.215 -24.543 -13.404  0.00  0.00    +0.123 C 
ATOM     14  C   UNL     1      35.846 -24.817 -13.437  0.00  0.00    +0.035 C 
ATOM     15  C   UNL     1      35.055 -24.656 -12.288  0.00  0.00    +0.059 C 
ATOM     16  C   UNL     1      37.835 -24.148 -12.222  0.00  0.00    +0.020 C 
ATOM     17  C   UNL     1      32.485 -23.443 -15.501  0.00  0.00    +0.201 C 
ATOM     18  C   UNL     1      35.692 -24.276 -11.097  0.00  0.00    +0.015 C 
ATOM     19  C   UNL     1      37.069 -24.031 -11.064  0.00  0.00    +0.003 C 
ATOM     20  C   UNL     1      32.767 -24.377 -13.362  0.00  0.00    +0.150 C 
ATOM     21  C   UNL     1      31.117 -23.429 -15.318  0.00  0.00    +0.099 C 
ATOM     22  C   UNL     1      30.649 -23.925 -14.115  0.00  0.00    +0.122 C 
ATOM     23  H   UNL     1      36.225 -24.593 -15.911  0.00  0.00    +0.149 HD
ATOM     24  H   UNL     1      32.476 -22.482 -17.328  0.00  0.00    +0.149 HD
ATOM     25  H   UNL     1      33.219 -25.074 -11.498  0.00  0.00    +0.165 HD
ENDROOT
TORSDOF 0
ENDMDL
MODEL 7
REMARK VINA RESULT:      -7.7      9.186     11.594
REMARK  Name = 9952008
REMARK  0 active torsions:
REMARK  status: ('A' for Active; 'I' for Inactive)
REMARK                            x       y       z     vdW  Elec       q    Type
REMARK                         _______ _______ _______ _____ _____    ______ ____
ROOT
ATOM      1 BR   UNL     1      34.942 -19.345 -23.340  0.00  0.00    -0.043 Br
ATOM      2  S   UNL     1      31.559 -11.589 -21.429  0.00  0.00    +0.060 S 
ATOM      3  O   UNL     1      32.094 -10.589 -20.525  0.00  0.00    -0.153 OA
ATOM      4  O   UNL     1      30.177 -11.532 -21.868  0.00  0.00    -0.153 OA
ATOM      5  N   UNL     1      31.865 -13.133 -20.785  0.00  0.00    -0.179 NA
ATOM      6  N   UNL     1      33.850 -16.813 -21.822  0.00  0.00    -0.307 N 
ATOM      7  N   UNL     1      33.756 -13.875 -25.557  0.00  0.00    -0.247 N 
ATOM      8  N   UNL     1      33.731 -15.408 -23.737  0.00  0.00    -0.322 NA
ATOM      9  N   UNL     1      34.372 -16.142 -25.889  0.00  0.00    -0.169 NA
ATOM     10  C   UNL     1      33.900 -14.562 -20.759  0.00  0.00    +0.040 C 
ATOM     11  C   UNL     1      33.099 -13.470 -20.047  0.00  0.00    +0.093 C 
ATOM     12  C   UNL     1      33.107 -15.851 -21.016  0.00  0.00    +0.091 C 
ATOM     13  C   UNL     1      32.522 -11.543 -22.911  0.00  0.00    +0.123 C 
ATOM     14  C   UNL     1      32.649 -12.697 -23.688  0.00  0.00    +0.035 C 
ATOM     15  C   UNL     1      33.438 -12.696 -24.849  0.00  0.00    +0.059 C 
ATOM     16  C   UNL     1      33.135 -10.354 -23.294  0.00  0.00    +0.020 C 
ATOM     17  C   UNL     1      34.043 -16.601 -23.185  0.00  0.00    +0.201 C 
ATOM     18  C   UNL     1      34.037 -11.487 -25.237  0.00  0.00    +0.015 C 
ATOM     19  C   UNL     1      33.881 -10.328 -24.470  0.00  0.00    +0.003 C 
ATOM     20  C   UNL     1      33.928 -15.182 -25.054  0.00  0.00    +0.150 C 
ATOM     21  C   UNL     1      34.506 -17.625 -23.986  0.00  0.00    +0.099 C 
ATOM     22  C   UNL     1      34.643 -17.342 -25.333  0.00  0.00    +0.122 C 
ATOM     23  H   UNL     1      31.826 -13.779 -21.574  0.00  0.00    +0.149 HD
ATOM     24  H   UNL     1      34.220 -17.620 -21.397  0.00  0.00    +0.149 HD
ATOM     25  H   UNL     1      33.874 -13.772 -26.529  0.00  0.00    +0.165 HD
ENDROOT
TORSDOF 0
ENDMDL
