MODEL 1
REMARK VINA RESULT:     -10.4      0.000      0.000
REMARK  Name = 6560168
REMARK  5 active torsions:
REMARK  status: ('A' for Active; 'I' for Inactive)
REMARK    1  A    between atoms: N_2  and  CA_9
REMARK    2  A    between atoms: C_3  and  CA_18
REMARK    3  A    between atoms: CA_11  and  C_17
REMARK    4  A    between atoms: CA_18  and  C_19
REMARK    5  A    between atoms: CA_18  and  N_25
REMARK                            x       y       z     vdW  Elec       q    Type
REMARK                         _______ _______ _______ _____ _____    ______ ____
ROOT
ATOM      1  O   UNL     1      36.718 -20.819 -20.320  0.00  0.00    -0.277 OA
ATOM      2  N   UNL     1      34.973 -19.332 -20.673  0.00  0.00    -0.298 N 
ATOM      3  C   UNL     1      35.518 -20.555 -20.282  0.00  0.00    +0.206 C 
ATOM      4  H   UNL     1      33.997 -19.209 -20.609  0.00  0.00    +0.150 HD
ENDROOT
BRANCH   2   9
ATOM      5  S   UNL     1      34.805 -19.047 -23.726  0.00  0.00    -0.114 S 
ATOM      6  O   UNL     1      34.757 -16.122 -20.111  0.00  0.00    -0.273 OA
ATOM      7  N   UNL     1      34.955 -16.775 -22.366  0.00  0.00    -0.242 N 
ATOM      8  C   UNL     1      35.774 -17.926 -22.691  0.00  0.00    +0.155 C 
ATOM      9  CA  UNL     1      35.785 -18.224 -21.174  0.00  0.00    +0.178 C 
ATOM     10  C   UNL     1      35.101 -16.833 -21.025  0.00  0.00    +0.251 C 
ATOM     11  CA  UNL     1      34.315 -16.006 -23.282  0.00  0.00    +0.128 C 
ATOM     12  C   UNL     1      34.583 -17.808 -25.050  0.00  0.00    +0.083 C 
ATOM     13  C   UNL     1      34.157 -16.427 -24.558  0.00  0.00    -0.013 C 
ATOM     14  C   UNL     1      33.481 -15.632 -25.650  0.00  0.00    +0.029 C 
BRANCH  11  17
ATOM     15  O   UNL     1      32.595 -14.738 -22.311  0.00  0.00    -0.239 OA
ATOM     16  OXT UNL     1      34.486 -13.678 -23.043  0.00  0.00    -0.239 OA
ATOM     17  C   UNL     1      33.739 -14.668 -22.832  0.00  0.00    +0.401 C 
ENDBRANCH  11  17
ENDBRANCH   2   9
BRANCH   3  18
ATOM     18  CA  UNL     1      34.470 -21.549 -19.808  0.00  0.00    +0.036 C 
BRANCH  18  19
ATOM     19  C   UNL     1      34.811 -22.102 -18.442  0.00  0.00    -0.034 C 
ATOM     20  C   UNL     1      36.065 -21.861 -17.908  0.00  0.00    -0.006 C 
ATOM     21  C   UNL     1      33.861 -22.838 -17.754  0.00  0.00    -0.006 C 
ATOM     22  C   UNL     1      36.378 -22.370 -16.647  0.00  0.00    -0.000 C 
ATOM     23  C   UNL     1      34.174 -23.347 -16.494  0.00  0.00    -0.000 C 
ATOM     24  C   UNL     1      35.433 -23.113 -15.940  0.00  0.00    -0.000 C 
ENDBRANCH  18  19
BRANCH  18  25
ATOM     25  N   UNL     1      33.116 -20.913 -19.855  0.00  0.00    +0.390 N 
ATOM     26  H1  UNL     1      32.839 -20.634 -18.915  0.00  0.00    -0.088 HD
ATOM     27  H2  UNL     1      32.439 -21.581 -20.224  0.00  0.00    -0.088 HD
ATOM     28  H3  UNL     1      33.146 -20.092 -20.459  0.00  0.00    -0.088 HD
ENDBRANCH  18  25
ENDBRANCH   3  18
TORSDOF 5
ENDMDL
MODEL 2
REMARK VINA RESULT:     -10.4      0.048      1.188
REMARK  Name = 6560168
REMARK  5 active torsions:
REMARK  status: ('A' for Active; 'I' for Inactive)
REMARK    1  A    between atoms: N_2  and  CA_9
REMARK    2  A    between atoms: C_3  and  CA_18
REMARK    3  A    between atoms: CA_11  and  C_17
REMARK    4  A    between atoms: CA_18  and  C_19
REMARK    5  A    between atoms: CA_18  and  N_25
REMARK                            x       y       z     vdW  Elec       q    Type
REMARK                         _______ _______ _______ _____ _____    ______ ____
ROOT
ATOM      1  O   UNL     1      36.753 -20.761 -20.254  0.00  0.00    -0.277 OA
ATOM      2  N   UNL     1      34.977 -19.330 -20.681  0.00  0.00    -0.298 N 
ATOM      3  C   UNL     1      35.545 -20.532 -20.259  0.00  0.00    +0.206 C 
ATOM      4  H   UNL     1      33.998 -19.235 -20.651  0.00  0.00    +0.150 HD
ENDROOT
BRANCH   2   9
ATOM      5  S   UNL     1      34.837 -19.027 -23.734  0.00  0.00    -0.114 S 
ATOM      6  O   UNL     1      34.693 -16.129 -20.100  0.00  0.00    -0.273 OA
ATOM      7  N   UNL     1      34.929 -16.762 -22.357  0.00  0.00    -0.242 N 
ATOM      8  C   UNL     1      35.773 -17.895 -22.681  0.00  0.00    +0.155 C 
ATOM      9  CA  UNL     1      35.773 -18.203 -21.166  0.00  0.00    +0.178 C 
ATOM     10  C   UNL     1      35.061 -16.827 -21.015  0.00  0.00    +0.251 C 
ATOM     11  CA  UNL     1      34.283 -16.000 -23.276  0.00  0.00    +0.128 C 
ATOM     12  C   UNL     1      34.605 -17.785 -25.052  0.00  0.00    +0.083 C 
ATOM     13  C   UNL     1      34.147 -16.416 -24.556  0.00  0.00    -0.013 C 
ATOM     14  C   UNL     1      33.467 -15.626 -25.650  0.00  0.00    +0.029 C 
BRANCH  11  17
ATOM     15  O   UNL     1      34.428 -13.677 -22.970  0.00  0.00    -0.239 OA
ATOM     16  OXT UNL     1      32.507 -14.765 -22.365  0.00  0.00    -0.239 OA
ATOM     17  C   UNL     1      33.676 -14.677 -22.823  0.00  0.00    +0.401 C 
ENDBRANCH  11  17
ENDBRANCH   2   9
BRANCH   3  18
ATOM     18  CA  UNL     1      34.512 -21.553 -19.811  0.00  0.00    +0.036 C 
BRANCH  18  19
ATOM     19  C   UNL     1      34.837 -22.103 -18.440  0.00  0.00    -0.034 C 
ATOM     20  C   UNL     1      33.879 -22.833 -17.759  0.00  0.00    -0.006 C 
ATOM     21  C   UNL     1      36.088 -21.864 -17.895  0.00  0.00    -0.006 C 
ATOM     22  C   UNL     1      34.180 -23.341 -16.494  0.00  0.00    -0.000 C 
ATOM     23  C   UNL     1      36.389 -22.372 -16.632  0.00  0.00    -0.000 C 
ATOM     24  C   UNL     1      35.435 -23.110 -15.931  0.00  0.00    -0.000 C 
ENDBRANCH  18  19
BRANCH  18  25
ATOM     25  N   UNL     1      33.144 -20.948 -19.883  0.00  0.00    +0.390 N 
ATOM     26  H1  UNL     1      32.649 -21.124 -19.009  0.00  0.00    -0.088 HD
ATOM     27  H2  UNL     1      32.627 -21.367 -20.656  0.00  0.00    -0.088 HD
ATOM     28  H3  UNL     1      33.224 -19.942 -20.032  0.00  0.00    -0.088 HD
ENDBRANCH  18  25
ENDBRANCH   3  18
TORSDOF 5
ENDMDL
MODEL 3
REMARK VINA RESULT:      -9.6      5.783     10.930
REMARK  Name = 6560168
REMARK  5 active torsions:
REMARK  status: ('A' for Active; 'I' for Inactive)
REMARK    1  A    between atoms: N_2  and  CA_9
REMARK    2  A    between atoms: C_3  and  CA_18
REMARK    3  A    between atoms: CA_11  and  C_17
REMARK    4  A    between atoms: CA_18  and  C_19
REMARK    5  A    between atoms: CA_18  and  N_25
REMARK                            x       y       z     vdW  Elec       q    Type
REMARK                         _______ _______ _______ _____ _____    ______ ____
ROOT
ATOM      1  O   UNL     1      31.360  -9.348 -19.881  0.00  0.00    -0.277 OA
ATOM      2  N   UNL     1      32.395 -10.051 -21.835  0.00  0.00    -0.298 N 
ATOM      3  C   UNL     1      32.193  -9.175 -20.768  0.00  0.00    +0.206 C 
ATOM      4  H   UNL     1      33.087  -9.831 -22.501  0.00  0.00    +0.150 HD
ENDROOT
BRANCH   2   9
ATOM      5  S   UNL     1      33.520 -11.827 -24.073  0.00  0.00    -0.114 S 
ATOM      6  O   UNL     1      31.881 -12.537 -19.780  0.00  0.00    -0.273 OA
ATOM      7  N   UNL     1      32.554 -13.111 -21.963  0.00  0.00    -0.242 N 
ATOM      8  C   UNL     1      32.091 -12.302 -23.073  0.00  0.00    +0.155 C 
ATOM      9  CA  UNL     1      31.626 -11.283 -22.008  0.00  0.00    +0.178 C 
ATOM     10  C   UNL     1      31.982 -12.391 -20.975  0.00  0.00    +0.251 C 
ATOM     11  CA  UNL     1      33.328 -14.218 -22.092  0.00  0.00    +0.128 C 
ATOM     12  C   UNL     1      33.963 -13.556 -24.459  0.00  0.00    +0.083 C 
ATOM     13  C   UNL     1      33.968 -14.491 -23.252  0.00  0.00    -0.013 C 
ATOM     14  C   UNL     1      34.829 -15.709 -23.495  0.00  0.00    +0.029 C 
BRANCH  11  17
ATOM     15  O   UNL     1      34.585 -15.000 -20.270  0.00  0.00    -0.239 OA
ATOM     16  OXT UNL     1      32.515 -15.895 -20.664  0.00  0.00    -0.239 OA
ATOM     17  C   UNL     1      33.493 -15.132 -20.883  0.00  0.00    +0.401 C 
ENDBRANCH  11  17
ENDBRANCH   2   9
BRANCH   3  18
ATOM     18  CA  UNL     1      33.108  -7.961 -20.813  0.00  0.00    +0.036 C 
BRANCH  18  19
ATOM     19  C   UNL     1      33.178  -7.375 -22.206  0.00  0.00    -0.034 C 
ATOM     20  C   UNL     1      32.113  -6.628 -22.680  0.00  0.00    -0.006 C 
ATOM     21  C   UNL     1      34.306  -7.598 -22.978  0.00  0.00    -0.006 C 
ATOM     22  C   UNL     1      32.179  -6.088 -23.965  0.00  0.00    -0.000 C 
ATOM     23  C   UNL     1      34.371  -7.057 -24.261  0.00  0.00    -0.000 C 
ATOM     24  C   UNL     1      33.307  -6.302 -24.755  0.00  0.00    -0.000 C 
ENDBRANCH  18  19
BRANCH  18  25
ATOM     25  N   UNL     1      32.671  -6.964 -19.786  0.00  0.00    +0.390 N 
ATOM     26  H1  UNL     1      33.175  -7.131 -18.915  0.00  0.00    -0.088 HD
ATOM     27  H2  UNL     1      31.669  -7.062 -19.622  0.00  0.00    -0.088 HD
ATOM     28  H3  UNL     1      32.871  -6.021 -20.120  0.00  0.00    -0.088 HD
ENDBRANCH  18  25
ENDBRANCH   3  18
TORSDOF 5
ENDMDL
MODEL 4
REMARK VINA RESULT:      -9.4      1.394      1.987
REMARK  Name = 6560168
REMARK  5 active torsions:
REMARK  status: ('A' for Active; 'I' for Inactive)
REMARK    1  A    between atoms: N_2  and  CA_9
REMARK    2  A    between atoms: C_3  and  CA_18
REMARK    3  A    between atoms: CA_11  and  C_17
REMARK    4  A    between atoms: CA_18  and  C_19
REMARK    5  A    between atoms: CA_18  and  N_25
REMARK                            x       y       z     vdW  Elec       q    Type
REMARK                         _______ _______ _______ _____ _____    ______ ____
ROOT
ATOM      1  O   UNL     1      36.018 -19.458 -21.434  0.00  0.00    -0.277 OA
ATOM      2  N   UNL     1      34.291 -17.915 -21.293  0.00  0.00    -0.298 N 
ATOM      3  C   UNL     1      34.838 -19.196 -21.213  0.00  0.00    +0.206 C 
ATOM      4  H   UNL     1      33.333 -17.799 -21.098  0.00  0.00    +0.150 HD
ENDROOT
BRANCH   2   9
ATOM      5  S   UNL     1      34.364 -17.439 -24.325  0.00  0.00    -0.114 S 
ATOM      6  O   UNL     1      33.848 -14.764 -20.556  0.00  0.00    -0.273 OA
ATOM      7  N   UNL     1      34.272 -15.257 -22.821  0.00  0.00    -0.242 N 
ATOM      8  C   UNL     1      35.178 -16.340 -23.143  0.00  0.00    +0.155 C 
ATOM      9  CA  UNL     1      35.079 -16.736 -21.652  0.00  0.00    +0.178 C 
ATOM     10  C   UNL     1      34.308 -15.395 -21.479  0.00  0.00    +0.251 C 
ATOM     11  CA  UNL     1      33.668 -14.463 -23.741  0.00  0.00    +0.128 C 
ATOM     12  C   UNL     1      34.184 -16.129 -25.586  0.00  0.00    +0.083 C 
ATOM     13  C   UNL     1      33.641 -14.807 -25.050  0.00  0.00    -0.013 C 
ATOM     14  C   UNL     1      33.015 -13.977 -26.146  0.00  0.00    +0.029 C 
BRANCH  11  17
ATOM     15  O   UNL     1      31.830 -13.361 -22.783  0.00  0.00    -0.239 OA
ATOM     16  OXT UNL     1      33.660 -12.139 -23.411  0.00  0.00    -0.239 OA
ATOM     17  C   UNL     1      32.982 -13.189 -23.262  0.00  0.00    +0.401 C 
ENDBRANCH  11  17
ENDBRANCH   2   9
BRANCH   3  18
ATOM     18  CA  UNL     1      33.817 -20.256 -20.831  0.00  0.00    +0.036 C 
BRANCH  18  19
ATOM     19  C   UNL     1      34.311 -21.112 -19.686  0.00  0.00    -0.034 C 
ATOM     20  C   UNL     1      33.414 -21.918 -19.007  0.00  0.00    -0.006 C 
ATOM     21  C   UNL     1      35.652 -21.072 -19.341  0.00  0.00    -0.006 C 
ATOM     22  C   UNL     1      33.870 -22.707 -17.952  0.00  0.00    -0.000 C 
ATOM     23  C   UNL     1      36.108 -21.862 -18.287  0.00  0.00    -0.000 C 
ATOM     24  C   UNL     1      35.217 -22.680 -17.591  0.00  0.00    -0.000 C 
ENDBRANCH  18  19
BRANCH  18  25
ATOM     25  N   UNL     1      32.501 -19.604 -20.541  0.00  0.00    +0.390 N 
ATOM     26  H1  UNL     1      31.788 -19.987 -21.161  0.00  0.00    -0.088 HD
ATOM     27  H2  UNL     1      32.579 -18.598 -20.693  0.00  0.00    -0.088 HD
ATOM     28  H3  UNL     1      32.239 -19.782 -19.571  0.00  0.00    -0.088 HD
ENDBRANCH  18  25
ENDBRANCH   3  18
TORSDOF 5
ENDMDL
MODEL 5
REMARK VINA RESULT:      -9.3      6.088     11.478
REMARK  Name = 6560168
REMARK  5 active torsions:
REMARK  status: ('A' for Active; 'I' for Inactive)
REMARK    1  A    between atoms: N_2  and  CA_9
REMARK    2  A    between atoms: C_3  and  CA_18
REMARK    3  A    between atoms: CA_11  and  C_17
REMARK    4  A    between atoms: CA_18  and  C_19
REMARK    5  A    between atoms: CA_18  and  N_25
REMARK                            x       y       z     vdW  Elec       q    Type
REMARK                         _______ _______ _______ _____ _____    ______ ____
ROOT
ATOM      1  O   UNL     1      30.931  -8.704 -23.253  0.00  0.00    -0.277 OA
ATOM      2  N   UNL     1      32.351 -10.003 -21.956  0.00  0.00    -0.298 N 
ATOM      3  C   UNL     1      31.945  -8.816 -22.566  0.00  0.00    +0.206 C 
ATOM      4  H   UNL     1      33.179  -9.999 -21.423  0.00  0.00    +0.150 HD
ENDROOT
BRANCH   2   9
ATOM      5  S   UNL     1      33.489 -11.856 -24.124  0.00  0.00    -0.114 S 
ATOM      6  O   UNL     1      31.890 -12.405 -19.792  0.00  0.00    -0.273 OA
ATOM      7  N   UNL     1      32.558 -13.062 -21.953  0.00  0.00    -0.242 N 
ATOM      8  C   UNL     1      32.075 -12.309 -23.094  0.00  0.00    +0.155 C 
ATOM      9  CA  UNL     1      31.600 -11.253 -22.070  0.00  0.00    +0.178 C 
ATOM     10  C   UNL     1      31.981 -12.310 -20.993  0.00  0.00    +0.251 C 
ATOM     11  CA  UNL     1      33.348 -14.162 -22.040  0.00  0.00    +0.128 C 
ATOM     12  C   UNL     1      33.957 -13.593 -24.438  0.00  0.00    +0.083 C 
ATOM     13  C   UNL     1      33.985 -14.475 -23.192  0.00  0.00    -0.013 C 
ATOM     14  C   UNL     1      34.864 -15.688 -23.389  0.00  0.00    +0.029 C 
BRANCH  11  17
ATOM     15  O   UNL     1      34.661 -14.906 -20.242  0.00  0.00    -0.239 OA
ATOM     16  OXT UNL     1      32.540 -15.727 -20.489  0.00  0.00    -0.239 OA
ATOM     17  C   UNL     1      33.536 -15.021 -20.795  0.00  0.00    +0.401 C 
ENDBRANCH  11  17
ENDBRANCH   2   9
BRANCH   3  18
ATOM     18  CA  UNL     1      32.896  -7.659 -22.309  0.00  0.00    +0.036 C 
BRANCH  18  19
ATOM     19  C   UNL     1      33.185  -6.888 -23.578  0.00  0.00    -0.034 C 
ATOM     20  C   UNL     1      32.251  -5.980 -24.046  0.00  0.00    -0.006 C 
ATOM     21  C   UNL     1      34.378  -7.109 -24.246  0.00  0.00    -0.006 C 
ATOM     22  C   UNL     1      32.519  -5.270 -25.216  0.00  0.00    -0.000 C 
ATOM     23  C   UNL     1      34.645  -6.398 -25.416  0.00  0.00    -0.000 C 
ATOM     24  C   UNL     1      33.715  -5.478 -25.901  0.00  0.00    -0.000 C 
ENDBRANCH  18  19
BRANCH  18  25
ATOM     25  N   UNL     1      32.350  -6.793 -21.216  0.00  0.00    +0.390 N 
ATOM     26  H1  UNL     1      33.109  -6.257 -20.796  0.00  0.00    -0.088 HD
ATOM     27  H2  UNL     1      31.914  -7.378 -20.504  0.00  0.00    -0.088 HD
ATOM     28  H3  UNL     1      31.656  -6.154 -21.603  0.00  0.00    -0.088 HD
ENDBRANCH  18  25
ENDBRANCH   3  18
TORSDOF 5
ENDMDL
MODEL 6
REMARK VINA RESULT:      -9.1      4.537      7.362
REMARK  Name = 6560168
REMARK  5 active torsions:
REMARK  status: ('A' for Active; 'I' for Inactive)
REMARK    1  A    between atoms: N_2  and  CA_9
REMARK    2  A    between atoms: C_3  and  CA_18
REMARK    3  A    between atoms: CA_11  and  C_17
REMARK    4  A    between atoms: CA_18  and  C_19
REMARK    5  A    between atoms: CA_18  and  N_25
REMARK                            x       y       z     vdW  Elec       q    Type
REMARK                         _______ _______ _______ _____ _____    ______ ____
ROOT
ATOM      1  O   UNL     1      31.647 -15.306 -21.440  0.00  0.00    -0.277 OA
ATOM      2  N   UNL     1      33.145 -13.638 -22.037  0.00  0.00    -0.298 N 
ATOM      3  C   UNL     1      32.794 -14.866 -21.475  0.00  0.00    +0.206 C 
ATOM      4  H   UNL     1      34.092 -13.366 -22.020  0.00  0.00    +0.150 HD
ENDROOT
BRANCH   2   9
ATOM      5  S   UNL     1      31.933 -11.673 -20.012  0.00  0.00    -0.114 S 
ATOM      6  O   UNL     1      33.516 -11.389 -24.375  0.00  0.00    -0.273 OA
ATOM      7  N   UNL     1      32.351 -10.704 -22.445  0.00  0.00    -0.242 N 
ATOM      8  C   UNL     1      31.500 -11.661 -21.766  0.00  0.00    +0.155 C 
ATOM      9  CA  UNL     1      32.170 -12.737 -22.650  0.00  0.00    +0.178 C 
ATOM     10  C   UNL     1      32.817 -11.536 -23.400  0.00  0.00    +0.251 C 
ATOM     11  CA  UNL     1      32.500  -9.409 -22.070  0.00  0.00    +0.128 C 
ATOM     12  C   UNL     1      31.516  -9.909 -19.784  0.00  0.00    +0.083 C 
ATOM     13  C   UNL     1      32.084  -8.982 -20.855  0.00  0.00    -0.013 C 
ATOM     14  C   UNL     1      32.187  -7.558 -20.360  0.00  0.00    +0.029 C 
BRANCH  11  17
ATOM     15  O   UNL     1      34.436  -8.372 -22.901  0.00  0.00    -0.239 OA
ATOM     16  OXT UNL     1      32.409  -7.861 -23.832  0.00  0.00    -0.239 OA
ATOM     17  C   UNL     1      33.186  -8.448 -23.034  0.00  0.00    +0.401 C 
ENDBRANCH  11  17
ENDBRANCH   2   9
BRANCH   3  18
ATOM     18  CA  UNL     1      33.982 -15.614 -20.891  0.00  0.00    +0.036 C 
BRANCH  18  19
ATOM     19  C   UNL     1      34.387 -16.777 -21.769  0.00  0.00    -0.034 C 
ATOM     20  C   UNL     1      34.364 -18.059 -21.247  0.00  0.00    -0.006 C 
ATOM     21  C   UNL     1      34.775 -16.535 -23.076  0.00  0.00    -0.006 C 
ATOM     22  C   UNL     1      34.737 -19.132 -22.057  0.00  0.00    -0.000 C 
ATOM     23  C   UNL     1      35.148 -17.607 -23.886  0.00  0.00    -0.000 C 
ATOM     24  C   UNL     1      35.130 -18.906 -23.377  0.00  0.00    -0.000 C 
ENDBRANCH  18  19
BRANCH  18  25
ATOM     25  N   UNL     1      35.106 -14.657 -20.641  0.00  0.00    +0.390 N 
ATOM     26  H1  UNL     1      35.864 -14.845 -21.296  0.00  0.00    -0.088 HD
ATOM     27  H2  UNL     1      35.445 -14.774 -19.686  0.00  0.00    -0.088 HD
ATOM     28  H3  UNL     1      34.774 -13.701 -20.770  0.00  0.00    -0.088 HD
ENDBRANCH  18  25
ENDBRANCH   3  18
TORSDOF 5
ENDMDL
MODEL 7
REMARK VINA RESULT:      -8.5      5.066     10.198
REMARK  Name = 6560168
REMARK  5 active torsions:
REMARK  status: ('A' for Active; 'I' for Inactive)
REMARK    1  A    between atoms: N_2  and  CA_9
REMARK    2  A    between atoms: C_3  and  CA_18
REMARK    3  A    between atoms: CA_11  and  C_17
REMARK    4  A    between atoms: CA_18  and  C_19
REMARK    5  A    between atoms: CA_18  and  N_25
REMARK                            x       y       z     vdW  Elec       q    Type
REMARK                         _______ _______ _______ _____ _____    ______ ____
ROOT
ATOM      1  O   UNL     1      30.407 -10.765 -21.190  0.00  0.00    -0.277 OA
ATOM      2  N   UNL     1      32.396 -11.880 -21.619  0.00  0.00    -0.298 N 
ATOM      3  C   UNL     1      31.631 -10.756 -21.309  0.00  0.00    +0.206 C 
ATOM      4  H   UNL     1      33.373 -11.779 -21.695  0.00  0.00    +0.150 HD
ENDROOT
BRANCH   2   9
ATOM      5  S   UNL     1      33.597 -13.303 -24.061  0.00  0.00    -0.114 S 
ATOM      6  O   UNL     1      32.433 -14.547 -19.734  0.00  0.00    -0.273 OA
ATOM      7  N   UNL     1      33.010 -14.861 -21.996  0.00  0.00    -0.242 N 
ATOM      8  C   UNL     1      32.342 -14.063 -23.006  0.00  0.00    +0.155 C 
ATOM      9  CA  UNL     1      31.813 -13.203 -21.835  0.00  0.00    +0.178 C 
ATOM     10  C   UNL     1      32.416 -14.308 -20.918  0.00  0.00    +0.251 C 
ATOM     11  CA  UNL     1      33.931 -15.821 -22.264  0.00  0.00    +0.128 C 
ATOM     12  C   UNL     1      34.267 -14.911 -24.610  0.00  0.00    +0.083 C 
ATOM     13  C   UNL     1      34.511 -15.911 -23.483  0.00  0.00    -0.013 C 
ATOM     14  C   UNL     1      35.526 -16.959 -23.879  0.00  0.00    +0.029 C 
BRANCH  11  17
ATOM     15  O   UNL     1      35.208 -16.329 -20.361  0.00  0.00    -0.239 OA
ATOM     16  OXT UNL     1      33.726 -17.880 -21.157  0.00  0.00    -0.239 OA
ATOM     17  C   UNL     1      34.330 -16.776 -21.145  0.00  0.00    +0.401 C 
ENDBRANCH  11  17
ENDBRANCH   2   9
BRANCH   3  18
ATOM     18  CA  UNL     1      32.465  -9.496 -21.143  0.00  0.00    +0.036 C 
BRANCH  18  19
ATOM     19  C   UNL     1      31.958  -8.377 -22.026  0.00  0.00    -0.034 C 
ATOM     20  C   UNL     1      31.896  -7.090 -21.520  0.00  0.00    -0.006 C 
ATOM     21  C   UNL     1      31.566  -8.664 -23.323  0.00  0.00    -0.006 C 
ATOM     22  C   UNL     1      31.429  -6.059 -22.335  0.00  0.00    -0.000 C 
ATOM     23  C   UNL     1      31.100  -7.633 -24.138  0.00  0.00    -0.000 C 
ATOM     24  C   UNL     1      31.031  -6.330 -23.644  0.00  0.00    -0.000 C 
ENDBRANCH  18  19
BRANCH  18  25
ATOM     25  N   UNL     1      32.516  -9.114 -19.696  0.00  0.00    +0.390 N 
ATOM     26  H1  UNL     1      32.527  -8.098 -19.613  0.00  0.00    -0.088 HD
ATOM     27  H2  UNL     1      33.361  -9.498 -19.273  0.00  0.00    -0.088 HD
ATOM     28  H3  UNL     1      31.696  -9.486 -19.217  0.00  0.00    -0.088 HD
ENDBRANCH  18  25
ENDBRANCH   3  18
TORSDOF 5
ENDMDL
MODEL 8
REMARK VINA RESULT:      -8.3      4.298      9.001
REMARK  Name = 6560168
REMARK  5 active torsions:
REMARK  status: ('A' for Active; 'I' for Inactive)
REMARK    1  A    between atoms: N_2  and  CA_9
REMARK    2  A    between atoms: C_3  and  CA_18
REMARK    3  A    between atoms: CA_11  and  C_17
REMARK    4  A    between atoms: CA_18  and  C_19
REMARK    5  A    between atoms: CA_18  and  N_25
REMARK                            x       y       z     vdW  Elec       q    Type
REMARK                         _______ _______ _______ _____ _____    ______ ____
ROOT
ATOM      1  O   UNL     1      33.913 -22.883 -20.205  0.00  0.00    -0.277 OA
ATOM      2  N   UNL     1      33.007 -22.257 -18.163  0.00  0.00    -0.298 N 
ATOM      3  C   UNL     1      33.477 -22.014 -19.454  0.00  0.00    +0.206 C 
ATOM      4  H   UNL     1      32.676 -21.497 -17.631  0.00  0.00    +0.150 HD
ENDROOT
BRANCH   2   9
ATOM      5  S   UNL     1      35.426 -22.763 -16.340  0.00  0.00    -0.114 S 
ATOM      6  O   UNL     1      30.862 -23.625 -16.116  0.00  0.00    -0.273 OA
ATOM      7  N   UNL     1      33.136 -23.829 -15.533  0.00  0.00    -0.242 N 
ATOM      8  C   UNL     1      34.117 -23.984 -16.588  0.00  0.00    +0.155 C 
ATOM      9  CA  UNL     1      32.984 -23.591 -17.564  0.00  0.00    +0.178 C 
ATOM     10  C   UNL     1      32.049 -23.702 -16.324  0.00  0.00    +0.251 C 
ATOM     11  CA  UNL     1      33.428 -23.832 -14.208  0.00  0.00    +0.128 C 
ATOM     12  C   UNL     1      35.885 -23.426 -14.701  0.00  0.00    +0.083 C 
ATOM     13  C   UNL     1      34.702 -23.693 -13.774  0.00  0.00    -0.013 C 
ATOM     14  C   UNL     1      35.125 -23.709 -12.323  0.00  0.00    +0.029 C 
BRANCH  11  17
ATOM     15  O   UNL     1      31.918 -22.871 -12.689  0.00  0.00    -0.239 OA
ATOM     16  OXT UNL     1      31.853 -25.130 -13.048  0.00  0.00    -0.239 OA
ATOM     17  C   UNL     1      32.281 -23.957 -13.212  0.00  0.00    +0.401 C 
ENDBRANCH  11  17
ENDBRANCH   2   9
BRANCH   3  18
ATOM     18  CA  UNL     1      33.409 -20.546 -19.845  0.00  0.00    +0.036 C 
BRANCH  18  19
ATOM     19  C   UNL     1      34.746 -20.044 -20.342  0.00  0.00    -0.034 C 
ATOM     20  C   UNL     1      34.781 -19.046 -21.300  0.00  0.00    -0.006 C 
ATOM     21  C   UNL     1      35.909 -20.595 -19.829  0.00  0.00    -0.006 C 
ATOM     22  C   UNL     1      36.015 -18.583 -21.758  0.00  0.00    -0.000 C 
ATOM     23  C   UNL     1      37.142 -20.133 -20.287  0.00  0.00    -0.000 C 
ATOM     24  C   UNL     1      37.195 -19.126 -21.251  0.00  0.00    -0.000 C 
ENDBRANCH  18  19
BRANCH  18  25
ATOM     25  N   UNL     1      32.307 -20.341 -20.838  0.00  0.00    +0.390 N 
ATOM     26  H1  UNL     1      31.534 -19.849 -20.390  0.00  0.00    -0.088 HD
ATOM     27  H2  UNL     1      31.982 -21.247 -21.177  0.00  0.00    -0.088 HD
ATOM     28  H3  UNL     1      32.654 -19.789 -21.622  0.00  0.00    -0.088 HD
ENDBRANCH  18  25
ENDBRANCH   3  18
TORSDOF 5
ENDMDL
MODEL 9
REMARK VINA RESULT:      -8.2      4.830      9.385
REMARK  Name = 6560168
REMARK  5 active torsions:
REMARK  status: ('A' for Active; 'I' for Inactive)
REMARK    1  A    between atoms: N_2  and  CA_9
REMARK    2  A    between atoms: C_3  and  CA_18
REMARK    3  A    between atoms: CA_11  and  C_17
REMARK    4  A    between atoms: CA_18  and  C_19
REMARK    5  A    between atoms: CA_18  and  N_25
REMARK                            x       y       z     vdW  Elec       q    Type
REMARK                         _______ _______ _______ _____ _____    ______ ____
ROOT
ATOM      1  O   UNL     1      33.991 -23.895 -19.389  0.00  0.00    -0.277 OA
ATOM      2  N   UNL     1      34.071 -22.943 -17.274  0.00  0.00    -0.298 N 
ATOM      3  C   UNL     1      33.876 -22.915 -18.655  0.00  0.00    +0.206 C 
ATOM      4  H   UNL     1      33.958 -22.107 -16.766  0.00  0.00    +0.150 HD
ENDROOT
BRANCH   2   9
ATOM      5  S   UNL     1      36.843 -22.740 -15.968  0.00  0.00    -0.114 S 
ATOM      6  O   UNL     1      32.677 -24.359 -14.683  0.00  0.00    -0.273 OA
ATOM      7  N   UNL     1      35.013 -24.068 -14.582  0.00  0.00    -0.242 N 
ATOM      8  C   UNL     1      35.787 -24.198 -15.801  0.00  0.00    +0.155 C 
ATOM      9  CA  UNL     1      34.434 -24.159 -16.548  0.00  0.00    +0.178 C 
ATOM     10  C   UNL     1      33.794 -24.253 -15.132  0.00  0.00    +0.251 C 
ATOM     11  CA  UNL     1      35.546 -23.828 -13.358  0.00  0.00    +0.128 C 
ATOM     12  C   UNL     1      37.730 -23.067 -14.406  0.00  0.00    +0.083 C 
ATOM     13  C   UNL     1      36.824 -23.403 -13.224  0.00  0.00    -0.013 C 
ATOM     14  C   UNL     1      37.508 -23.133 -11.904  0.00  0.00    +0.029 C 
BRANCH  11  17
ATOM     15  O   UNL     1      34.968 -24.986 -11.399  0.00  0.00    -0.239 OA
ATOM     16  OXT UNL     1      33.738 -23.158 -12.019  0.00  0.00    -0.239 OA
ATOM     17  C   UNL     1      34.659 -24.009 -12.132  0.00  0.00    +0.401 C 
ENDBRANCH  11  17
ENDBRANCH   2   9
BRANCH   3  18
ATOM     18  CA  UNL     1      33.517 -21.533 -19.178  0.00  0.00    +0.036 C 
BRANCH  18  19
ATOM     19  C   UNL     1      34.725 -20.827 -19.751  0.00  0.00    -0.034 C 
ATOM     20  C   UNL     1      34.541 -19.808 -20.669  0.00  0.00    -0.006 C 
ATOM     21  C   UNL     1      35.991 -21.217 -19.347  0.00  0.00    -0.006 C 
ATOM     22  C   UNL     1      35.656 -19.157 -21.197  0.00  0.00    -0.000 C 
ATOM     23  C   UNL     1      37.106 -20.566 -19.875  0.00  0.00    -0.000 C 
ATOM     24  C   UNL     1      36.939 -19.536 -20.801  0.00  0.00    -0.000 C 
ENDBRANCH  18  19
BRANCH  18  25
ATOM     25  N   UNL     1      32.391 -21.644 -20.158  0.00  0.00    +0.390 N 
ATOM     26  H1  UNL     1      31.533 -21.294 -19.732  0.00  0.00    -0.088 HD
ATOM     27  H2  UNL     1      32.265 -22.621 -20.422  0.00  0.00    -0.088 HD
ATOM     28  H3  UNL     1      32.607 -21.093 -20.989  0.00  0.00    -0.088 HD
ENDBRANCH  18  25
ENDBRANCH   3  18
TORSDOF 5
ENDMDL
