MODEL 1
REMARK VINA RESULT:     -10.1      0.000      0.000
REMARK  Name = 54688400
REMARK  7 active torsions:
REMARK  status: ('A' for Active; 'I' for Inactive)
REMARK    1  A    between atoms: C_3  and  C_8
REMARK    2  A    between atoms: C_3  and  C_15
REMARK    3  A    between atoms: C_5  and  O_13
REMARK    4  A    between atoms: C_15  and  C_16
REMARK    5  A    between atoms: C_16  and  C_18
REMARK    6  A    between atoms: C_23  and  O_24
REMARK    7  A    between atoms: O_24  and  C_25
REMARK                            x       y       z     vdW  Elec       q    Type
REMARK                         _______ _______ _______ _____ _____    ______ ____
ROOT
ATOM      1  O   UNL     1      36.991 -25.002 -15.210  0.00  0.00    -0.452 OA
ATOM      2  O   UNL     1      38.167 -26.926 -14.981  0.00  0.00    -0.245 OA
ATOM      3  C   UNL     1      36.057 -24.060 -14.619  0.00  0.00    +0.144 C 
ATOM      4  C   UNL     1      36.604 -23.549 -13.281  0.00  0.00    +0.104 C 
ATOM      5  C   UNL     1      37.098 -24.691 -12.452  0.00  0.00    +0.121 C 
ATOM      6  C   UNL     1      37.583 -25.977 -14.469  0.00  0.00    +0.344 C 
ATOM      7  C   UNL     1      37.525 -25.830 -13.005  0.00  0.00    +0.114 C 
ENDROOT
BRANCH   3   8
ATOM      8  C   UNL     1      35.928 -22.907 -15.598  0.00  0.00    +0.037 C 
ATOM      9  C   UNL     1      37.241 -22.555 -16.290  0.00  0.00    +0.003 C 
ATOM     10  C   UNL     1      35.012 -23.219 -16.778  0.00  0.00    +0.003 C 
ATOM     11  C   UNL     1      35.374 -22.160 -17.814  0.00  0.00    +0.000 C 
ATOM     12  C   UNL     1      36.812 -21.741 -17.508  0.00  0.00    +0.000 C 
ENDBRANCH   3   8
BRANCH   5  13
ATOM     13  O   UNL     1      37.089 -24.528 -11.083  0.00  0.00    -0.509 OA
ATOM     14  H   UNL     1      37.054 -25.278 -10.523  0.00  0.00    +0.292 HD
ENDBRANCH   5  13
BRANCH   3  15
ATOM     15  C   UNL     1      34.692 -24.750 -14.475  0.00  0.00    +0.045 C 
BRANCH  15  16
ATOM     16  C   UNL     1      33.796 -23.988 -13.504  0.00  0.00    +0.030 C 
BRANCH  16  18
ATOM     17  F   UNL     1      29.615 -26.220 -14.666  0.00  0.00    -0.201 F 
ATOM     18  C   UNL     1      32.371 -23.944 -13.994  0.00  0.00    -0.020 C 
ATOM     19  C   UNL     1      31.635 -25.124 -14.106  0.00  0.00    +0.029 C 
ATOM     20  C   UNL     1      31.789 -22.724 -14.337  0.00  0.00    -0.001 C 
ATOM     21  C   UNL     1      30.317 -25.083 -14.560  0.00  0.00    +0.173 C 
ATOM     22  C   UNL     1      30.471 -22.684 -14.790  0.00  0.00    +0.039 C 
ATOM     23  C   UNL     1      29.735 -23.864 -14.902  0.00  0.00    +0.166 C 
BRANCH  23  24
ATOM     24  O   UNL     1      28.448 -23.822 -15.345  0.00  0.00    -0.477 OA
BRANCH  24  25
ATOM     25  C   UNL     1      28.063 -22.684 -16.116  0.00  0.00    +0.166 C 
ATOM     26  C   UNL     1      27.892 -23.099 -17.569  0.00  0.00    +0.047 C 
ATOM     27  C   UNL     1      26.784 -22.098 -15.539  0.00  0.00    +0.047 C 
ENDBRANCH  24  25
ENDBRANCH  23  24
ENDBRANCH  16  18
ENDBRANCH  15  16
ENDBRANCH   3  15
TORSDOF 7
ENDMDL
MODEL 2
REMARK VINA RESULT:      -9.9      3.696      6.494
REMARK  Name = 54688400
REMARK  7 active torsions:
REMARK  status: ('A' for Active; 'I' for Inactive)
REMARK    1  A    between atoms: C_3  and  C_8
REMARK    2  A    between atoms: C_3  and  C_15
REMARK    3  A    between atoms: C_5  and  O_13
REMARK    4  A    between atoms: C_15  and  C_16
REMARK    5  A    between atoms: C_16  and  C_18
REMARK    6  A    between atoms: C_23  and  O_24
REMARK    7  A    between atoms: O_24  and  C_25
REMARK                            x       y       z     vdW  Elec       q    Type
REMARK                         _______ _______ _______ _____ _____    ______ ____
ROOT
ATOM      1  O   UNL     1      34.807 -23.522 -13.687  0.00  0.00    -0.452 OA
ATOM      2  O   UNL     1      36.565 -22.985 -12.362  0.00  0.00    -0.245 OA
ATOM      3  C   UNL     1      34.349 -24.011 -14.975  0.00  0.00    +0.144 C 
ATOM      4  C   UNL     1      34.966 -25.385 -15.264  0.00  0.00    +0.104 C 
ATOM      5  C   UNL     1      36.433 -25.363 -14.981  0.00  0.00    +0.121 C 
ATOM      6  C   UNL     1      36.112 -23.607 -13.317  0.00  0.00    +0.344 C 
ATOM      7  C   UNL     1      36.969 -24.517 -14.098  0.00  0.00    +0.114 C 
ENDROOT
BRANCH   3   8
ATOM      8  C   UNL     1      32.839 -24.134 -14.880  0.00  0.00    +0.037 C 
ATOM      9  C   UNL     1      32.381 -25.103 -13.794  0.00  0.00    +0.003 C 
ATOM     10  C   UNL     1      32.154 -22.835 -14.465  0.00  0.00    +0.003 C 
ATOM     11  C   UNL     1      30.771 -23.279 -14.004  0.00  0.00    +0.000 C 
ATOM     12  C   UNL     1      30.919 -24.735 -13.560  0.00  0.00    +0.000 C 
ENDBRANCH   3   8
BRANCH   5  13
ATOM     13  O   UNL     1      37.224 -26.253 -15.678  0.00  0.00    -0.509 OA
ATOM     14  H   UNL     1      37.848 -25.936 -16.301  0.00  0.00    +0.292 HD
ENDBRANCH   5  13
BRANCH   3  15
ATOM     15  C   UNL     1      34.699 -22.969 -16.048  0.00  0.00    +0.045 C 
BRANCH  15  16
ATOM     16  C   UNL     1      33.893 -23.203 -17.321  0.00  0.00    +0.030 C 
BRANCH  16  18
ATOM     17  F   UNL     1      37.370 -20.939 -19.890  0.00  0.00    -0.201 F 
ATOM     18  C   UNL     1      34.318 -22.261 -18.419  0.00  0.00    -0.020 C 
ATOM     19  C   UNL     1      35.674 -22.029 -18.654  0.00  0.00    +0.029 C 
ATOM     20  C   UNL     1      33.356 -21.620 -19.199  0.00  0.00    -0.001 C 
ATOM     21  C   UNL     1      36.066 -21.158 -19.669  0.00  0.00    +0.173 C 
ATOM     22  C   UNL     1      33.748 -20.749 -20.214  0.00  0.00    +0.039 C 
ATOM     23  C   UNL     1      35.104 -20.518 -20.449  0.00  0.00    +0.166 C 
BRANCH  23  24
ATOM     24  O   UNL     1      35.485 -19.667 -21.441  0.00  0.00    -0.477 OA
BRANCH  24  25
ATOM     25  C   UNL     1      34.476 -18.827 -22.000  0.00  0.00    +0.166 C 
ATOM     26  C   UNL     1      34.619 -17.425 -21.429  0.00  0.00    +0.047 C 
ATOM     27  C   UNL     1      34.601 -18.836 -23.516  0.00  0.00    +0.047 C 
ENDBRANCH  24  25
ENDBRANCH  23  24
ENDBRANCH  16  18
ENDBRANCH  15  16
ENDBRANCH   3  15
TORSDOF 7
ENDMDL
MODEL 3
REMARK VINA RESULT:      -9.4      3.768      6.525
REMARK  Name = 54688400
REMARK  7 active torsions:
REMARK  status: ('A' for Active; 'I' for Inactive)
REMARK    1  A    between atoms: C_3  and  C_8
REMARK    2  A    between atoms: C_3  and  C_15
REMARK    3  A    between atoms: C_5  and  O_13
REMARK    4  A    between atoms: C_15  and  C_16
REMARK    5  A    between atoms: C_16  and  C_18
REMARK    6  A    between atoms: C_23  and  O_24
REMARK    7  A    between atoms: O_24  and  C_25
REMARK                            x       y       z     vdW  Elec       q    Type
REMARK                         _______ _______ _______ _____ _____    ______ ____
ROOT
ATOM      1  O   UNL     1      35.375 -22.778 -14.936  0.00  0.00    -0.452 OA
ATOM      2  O   UNL     1      37.557 -22.505 -14.390  0.00  0.00    -0.245 OA
ATOM      3  C   UNL     1      34.377 -23.570 -15.632  0.00  0.00    +0.144 C 
ATOM      4  C   UNL     1      34.418 -25.020 -15.135  0.00  0.00    +0.104 C 
ATOM      5  C   UNL     1      35.828 -25.513 -15.092  0.00  0.00    +0.121 C 
ATOM      6  C   UNL     1      36.639 -23.238 -14.741  0.00  0.00    +0.344 C 
ATOM      7  C   UNL     1      36.861 -24.681 -14.938  0.00  0.00    +0.114 C 
ENDROOT
BRANCH   3   8
ATOM      8  C   UNL     1      33.029 -22.951 -15.308  0.00  0.00    +0.037 C 
ATOM      9  C   UNL     1      31.969 -23.229 -16.369  0.00  0.00    +0.003 C 
ATOM     10  C   UNL     1      32.389 -23.529 -14.049  0.00  0.00    +0.003 C 
ATOM     11  C   UNL     1      30.923 -23.127 -14.164  0.00  0.00    +0.000 C 
ATOM     12  C   UNL     1      30.649 -22.945 -15.658  0.00  0.00    +0.000 C 
ENDBRANCH   3   8
BRANCH   5  13
ATOM     13  O   UNL     1      36.027 -26.871 -15.224  0.00  0.00    -0.509 OA
ATOM     14  H   UNL     1      35.292 -27.451 -15.258  0.00  0.00    +0.292 HD
ENDBRANCH   5  13
BRANCH   3  15
ATOM     15  C   UNL     1      34.628 -23.457 -17.143  0.00  0.00    +0.045 C 
BRANCH  15  16
ATOM     16  C   UNL     1      35.704 -22.418 -17.441  0.00  0.00    +0.030 C 
BRANCH  16  18
ATOM     17  F   UNL     1      32.472 -20.691 -20.664  0.00  0.00    -0.201 F 
ATOM     18  C   UNL     1      35.374 -21.629 -18.683  0.00  0.00    -0.020 C 
ATOM     19  C   UNL     1      34.050 -21.521 -19.110  0.00  0.00    +0.029 C 
ATOM     20  C   UNL     1      36.392 -21.007 -19.405  0.00  0.00    -0.001 C 
ATOM     21  C   UNL     1      33.745 -20.791 -20.258  0.00  0.00    +0.173 C 
ATOM     22  C   UNL     1      36.087 -20.277 -20.553  0.00  0.00    +0.039 C 
ATOM     23  C   UNL     1      34.763 -20.169 -20.980  0.00  0.00    +0.166 C 
BRANCH  23  24
ATOM     24  O   UNL     1      34.467 -19.456 -22.101  0.00  0.00    -0.477 OA
BRANCH  24  25
ATOM     25  C   UNL     1      35.138 -18.208 -22.274  0.00  0.00    +0.166 C 
ATOM     26  C   UNL     1      35.143 -17.843 -23.750  0.00  0.00    +0.047 C 
ATOM     27  C   UNL     1      34.448 -17.148 -21.430  0.00  0.00    +0.047 C 
ENDBRANCH  24  25
ENDBRANCH  23  24
ENDBRANCH  16  18
ENDBRANCH  15  16
ENDBRANCH   3  15
TORSDOF 7
ENDMDL
MODEL 4
REMARK VINA RESULT:      -9.4      4.301      5.888
REMARK  Name = 54688400
REMARK  7 active torsions:
REMARK  status: ('A' for Active; 'I' for Inactive)
REMARK    1  A    between atoms: C_3  and  C_8
REMARK    2  A    between atoms: C_3  and  C_15
REMARK    3  A    between atoms: C_5  and  O_13
REMARK    4  A    between atoms: C_15  and  C_16
REMARK    5  A    between atoms: C_16  and  C_18
REMARK    6  A    between atoms: C_23  and  O_24
REMARK    7  A    between atoms: O_24  and  C_25
REMARK                            x       y       z     vdW  Elec       q    Type
REMARK                         _______ _______ _______ _____ _____    ______ ____
ROOT
ATOM      1  O   UNL     1      38.624 -24.378 -13.648  0.00  0.00    -0.452 OA
ATOM      2  O   UNL     1      40.710 -24.980 -14.295  0.00  0.00    -0.245 OA
ATOM      3  C   UNL     1      37.210 -24.318 -13.975  0.00  0.00    +0.144 C 
ATOM      4  C   UNL     1      36.687 -25.722 -14.303  0.00  0.00    +0.104 C 
ATOM      5  C   UNL     1      37.616 -26.414 -15.247  0.00  0.00    +0.121 C 
ATOM      6  C   UNL     1      39.495 -25.111 -14.392  0.00  0.00    +0.344 C 
ATOM      7  C   UNL     1      38.915 -26.108 -15.308  0.00  0.00    +0.114 C 
ENDROOT
BRANCH   3   8
ATOM      8  C   UNL     1      36.504 -23.779 -12.744  0.00  0.00    +0.037 C 
ATOM      9  C   UNL     1      35.806 -24.862 -11.928  0.00  0.00    +0.003 C 
ATOM     10  C   UNL     1      37.457 -23.166 -11.723  0.00  0.00    +0.003 C 
ATOM     11  C   UNL     1      36.637 -23.114 -10.439  0.00  0.00    +0.000 C 
ATOM     12  C   UNL     1      35.582 -24.213 -10.565  0.00  0.00    +0.000 C 
ENDBRANCH   3   8
BRANCH   5  13
ATOM     13  O   UNL     1      37.079 -27.383 -16.066  0.00  0.00    -0.509 OA
ATOM     14  H   UNL     1      36.226 -27.264 -16.436  0.00  0.00    +0.292 HD
ENDBRANCH   5  13
BRANCH   3  15
ATOM     15  C   UNL     1      37.018 -23.330 -15.136  0.00  0.00    +0.045 C 
BRANCH  15  16
ATOM     16  C   UNL     1      35.537 -23.106 -15.422  0.00  0.00    +0.030 C 
BRANCH  16  18
ATOM     17  F   UNL     1      37.103 -20.771 -19.410  0.00  0.00    -0.201 F 
ATOM     18  C   UNL     1      35.320 -22.612 -16.830  0.00  0.00    -0.020 C 
ATOM     19  C   UNL     1      36.330 -21.906 -17.485  0.00  0.00    +0.029 C 
ATOM     20  C   UNL     1      34.110 -22.859 -17.477  0.00  0.00    -0.001 C 
ATOM     21  C   UNL     1      36.129 -21.448 -18.786  0.00  0.00    +0.173 C 
ATOM     22  C   UNL     1      33.910 -22.402 -18.779  0.00  0.00    +0.039 C 
ATOM     23  C   UNL     1      34.920 -21.696 -19.434  0.00  0.00    +0.166 C 
BRANCH  23  24
ATOM     24  O   UNL     1      34.722 -21.250 -20.705  0.00  0.00    -0.477 OA
BRANCH  24  25
ATOM     25  C   UNL     1      34.329 -19.887 -20.862  0.00  0.00    +0.166 C 
ATOM     26  C   UNL     1      34.797 -19.385 -22.219  0.00  0.00    +0.047 C 
ATOM     27  C   UNL     1      32.820 -19.780 -20.708  0.00  0.00    +0.047 C 
ENDBRANCH  24  25
ENDBRANCH  23  24
ENDBRANCH  16  18
ENDBRANCH  15  16
ENDBRANCH   3  15
TORSDOF 7
ENDMDL
MODEL 5
REMARK VINA RESULT:      -9.3     14.109     16.882
REMARK  Name = 54688400
REMARK  7 active torsions:
REMARK  status: ('A' for Active; 'I' for Inactive)
REMARK    1  A    between atoms: C_3  and  C_8
REMARK    2  A    between atoms: C_3  and  C_15
REMARK    3  A    between atoms: C_5  and  O_13
REMARK    4  A    between atoms: C_15  and  C_16
REMARK    5  A    between atoms: C_16  and  C_18
REMARK    6  A    between atoms: C_23  and  O_24
REMARK    7  A    between atoms: O_24  and  C_25
REMARK                            x       y       z     vdW  Elec       q    Type
REMARK                         _______ _______ _______ _____ _____    ______ ____
ROOT
ATOM      1  O   UNL     1      32.501  -7.874 -21.753  0.00  0.00    -0.452 OA
ATOM      2  O   UNL     1      32.689  -7.945 -19.496  0.00  0.00    -0.245 OA
ATOM      3  C   UNL     1      32.402  -8.617 -22.997  0.00  0.00    +0.144 C 
ATOM      4  C   UNL     1      31.205  -9.574 -22.944  0.00  0.00    +0.104 C 
ATOM      5  C   UNL     1      31.202 -10.327 -21.653  0.00  0.00    +0.121 C 
ATOM      6  C   UNL     1      32.363  -8.487 -20.547  0.00  0.00    +0.344 C 
ATOM      7  C   UNL     1      31.766  -9.834 -20.547  0.00  0.00    +0.114 C 
ENDROOT
BRANCH   3   8
ATOM      8  C   UNL     1      32.194  -7.592 -24.098  0.00  0.00    +0.037 C 
ATOM      9  C   UNL     1      31.003  -6.672 -23.846  0.00  0.00    +0.003 C 
ATOM     10  C   UNL     1      33.348  -6.602 -24.225  0.00  0.00    +0.003 C 
ATOM     11  C   UNL     1      32.757  -5.448 -25.026  0.00  0.00    +0.000 C 
ATOM     12  C   UNL     1      31.249  -5.485 -24.773  0.00  0.00    +0.000 C 
ENDBRANCH   3   8
BRANCH   5  13
ATOM     13  O   UNL     1      30.596 -11.565 -21.645  0.00  0.00    -0.509 OA
ATOM     14  H   UNL     1      29.760 -11.676 -21.238  0.00  0.00    +0.292 HD
ENDBRANCH   5  13
BRANCH   3  15
ATOM     15  C   UNL     1      33.732  -9.347 -23.239  0.00  0.00    +0.045 C 
BRANCH  15  16
ATOM     16  C   UNL     1      33.763  -9.981 -24.626  0.00  0.00    +0.030 C 
BRANCH  16  18
ATOM     17  F   UNL     1      33.325 -14.354 -26.746  0.00  0.00    -0.201 F 
ATOM     18  C   UNL     1      33.690 -11.484 -24.543  0.00  0.00    -0.020 C 
ATOM     19  C   UNL     1      33.539 -12.241 -25.705  0.00  0.00    +0.029 C 
ATOM     20  C   UNL     1      33.772 -12.118 -23.303  0.00  0.00    -0.001 C 
ATOM     21  C   UNL     1      33.470 -13.632 -25.627  0.00  0.00    +0.173 C 
ATOM     22  C   UNL     1      33.704 -13.509 -23.225  0.00  0.00    +0.039 C 
ATOM     23  C   UNL     1      33.553 -14.266 -24.388  0.00  0.00    +0.166 C 
BRANCH  23  24
ATOM     24  O   UNL     1      33.486 -15.623 -24.310  0.00  0.00    -0.477 OA
BRANCH  24  25
ATOM     25  C   UNL     1      34.724 -16.335 -24.293  0.00  0.00    +0.166 C 
ATOM     26  C   UNL     1      35.056 -16.728 -22.862  0.00  0.00    +0.047 C 
ATOM     27  C   UNL     1      34.615 -17.548 -25.204  0.00  0.00    +0.047 C 
ENDBRANCH  24  25
ENDBRANCH  23  24
ENDBRANCH  16  18
ENDBRANCH  15  16
ENDBRANCH   3  15
TORSDOF 7
ENDMDL
MODEL 6
REMARK VINA RESULT:      -9.3     10.436     13.550
REMARK  Name = 54688400
REMARK  7 active torsions:
REMARK  status: ('A' for Active; 'I' for Inactive)
REMARK    1  A    between atoms: C_3  and  C_8
REMARK    2  A    between atoms: C_3  and  C_15
REMARK    3  A    between atoms: C_5  and  O_13
REMARK    4  A    between atoms: C_15  and  C_16
REMARK    5  A    between atoms: C_16  and  C_18
REMARK    6  A    between atoms: C_23  and  O_24
REMARK    7  A    between atoms: O_24  and  C_25
REMARK                            x       y       z     vdW  Elec       q    Type
REMARK                         _______ _______ _______ _____ _____    ______ ____
ROOT
ATOM      1  O   UNL     1      32.403 -13.663 -24.771  0.00  0.00    -0.452 OA
ATOM      2  O   UNL     1      32.348 -14.223 -26.966  0.00  0.00    -0.245 OA
ATOM      3  C   UNL     1      33.162 -13.096 -23.671  0.00  0.00    +0.144 C 
ATOM      4  C   UNL     1      33.625 -11.678 -24.029  0.00  0.00    +0.104 C 
ATOM      5  C   UNL     1      34.218 -11.657 -25.400  0.00  0.00    +0.121 C 
ATOM      6  C   UNL     1      32.824 -13.549 -26.059  0.00  0.00    +0.344 C 
ATOM      7  C   UNL     1      33.867 -12.546 -26.334  0.00  0.00    +0.114 C 
ENDROOT
BRANCH   3   8
ATOM      8  C   UNL     1      32.225 -13.047 -22.478  0.00  0.00    +0.037 C 
ATOM      9  C   UNL     1      32.881 -13.506 -21.179  0.00  0.00    +0.003 C 
ATOM     10  C   UNL     1      31.768 -11.633 -22.129  0.00  0.00    +0.003 C 
ATOM     11  C   UNL     1      31.243 -11.758 -20.703  0.00  0.00    +0.000 C 
ATOM     12  C   UNL     1      31.967 -12.956 -20.087  0.00  0.00    +0.000 C 
ENDBRANCH   3   8
BRANCH   5  13
ATOM     13  O   UNL     1      35.156 -10.683 -25.669  0.00  0.00    -0.509 OA
ATOM     14  H   UNL     1      35.887 -10.566 -25.095  0.00  0.00    +0.292 HD
ENDBRANCH   5  13
BRANCH   3  15
ATOM     15  C   UNL     1      34.334 -14.035 -23.349  0.00  0.00    +0.045 C 
BRANCH  15  16
ATOM     16  C   UNL     1      34.325 -15.254 -24.267  0.00  0.00    +0.030 C 
BRANCH  16  18
ATOM     17  F   UNL     1      35.020 -20.081 -24.104  0.00  0.00    -0.201 F 
ATOM     18  C   UNL     1      34.590 -16.521 -23.495  0.00  0.00    -0.020 C 
ATOM     19  C   UNL     1      34.685 -17.741 -24.167  0.00  0.00    +0.029 C 
ATOM     20  C   UNL     1      34.740 -16.476 -22.110  0.00  0.00    -0.001 C 
ATOM     21  C   UNL     1      34.930 -18.913 -23.453  0.00  0.00    +0.173 C 
ATOM     22  C   UNL     1      34.986 -17.648 -21.396  0.00  0.00    +0.039 C 
ATOM     23  C   UNL     1      35.081 -18.868 -22.068  0.00  0.00    +0.166 C 
BRANCH  23  24
ATOM     24  O   UNL     1      35.320 -20.011 -21.369  0.00  0.00    -0.477 OA
BRANCH  24  25
ATOM     25  C   UNL     1      34.508 -20.253 -20.222  0.00  0.00    +0.166 C 
ATOM     26  C   UNL     1      33.058 -20.401 -20.657  0.00  0.00    +0.047 C 
ATOM     27  C   UNL     1      35.014 -21.495 -19.503  0.00  0.00    +0.047 C 
ENDBRANCH  24  25
ENDBRANCH  23  24
ENDBRANCH  16  18
ENDBRANCH  15  16
ENDBRANCH   3  15
TORSDOF 7
ENDMDL
MODEL 7
REMARK VINA RESULT:      -8.9      3.259      5.757
REMARK  Name = 54688400
REMARK  7 active torsions:
REMARK  status: ('A' for Active; 'I' for Inactive)
REMARK    1  A    between atoms: C_3  and  C_8
REMARK    2  A    between atoms: C_3  and  C_15
REMARK    3  A    between atoms: C_5  and  O_13
REMARK    4  A    between atoms: C_15  and  C_16
REMARK    5  A    between atoms: C_16  and  C_18
REMARK    6  A    between atoms: C_23  and  O_24
REMARK    7  A    between atoms: O_24  and  C_25
REMARK                            x       y       z     vdW  Elec       q    Type
REMARK                         _______ _______ _______ _____ _____    ______ ____
ROOT
ATOM      1  O   UNL     1      37.024 -23.636 -13.220  0.00  0.00    -0.452 OA
ATOM      2  O   UNL     1      38.822 -23.638 -11.840  0.00  0.00    -0.245 OA
ATOM      3  C   UNL     1      36.429 -24.113 -14.456  0.00  0.00    +0.144 C 
ATOM      4  C   UNL     1      36.426 -25.646 -14.480  0.00  0.00    +0.104 C 
ATOM      5  C   UNL     1      37.765 -26.173 -14.075  0.00  0.00    +0.121 C 
ATOM      6  C   UNL     1      38.170 -24.178 -12.727  0.00  0.00    +0.344 C 
ATOM      7  C   UNL     1      38.586 -25.477 -13.284  0.00  0.00    +0.114 C 
ENDROOT
BRANCH   3   8
ATOM      8  C   UNL     1      35.002 -23.594 -14.477  0.00  0.00    +0.037 C 
ATOM      9  C   UNL     1      34.155 -24.210 -15.586  0.00  0.00    +0.003 C 
ATOM     10  C   UNL     1      34.211 -23.956 -13.224  0.00  0.00    +0.003 C 
ATOM     11  C   UNL     1      32.757 -23.754 -13.635  0.00  0.00    +0.000 C 
ATOM     12  C   UNL     1      32.718 -23.930 -15.154  0.00  0.00    +0.000 C 
ENDBRANCH   3   8
BRANCH   5  13
ATOM     13  O   UNL     1      38.128 -27.412 -14.557  0.00  0.00    -0.509 OA
ATOM     14  H   UNL     1      38.049 -28.169 -14.011  0.00  0.00    +0.292 HD
ENDBRANCH   5  13
BRANCH   3  15
ATOM     15  C   UNL     1      37.200 -23.505 -15.637  0.00  0.00    +0.045 C 
BRANCH  15  16
ATOM     16  C   UNL     1      36.860 -22.028 -15.809  0.00  0.00    +0.030 C 
BRANCH  16  18
ATOM     17  F   UNL     1      33.828 -22.671 -19.578  0.00  0.00    -0.201 F 
ATOM     18  C   UNL     1      36.433 -21.725 -17.222  0.00  0.00    -0.020 C 
ATOM     19  C   UNL     1      35.306 -22.349 -17.759  0.00  0.00    +0.029 C 
ATOM     20  C   UNL     1      37.164 -20.823 -17.994  0.00  0.00    -0.001 C 
ATOM     21  C   UNL     1      34.912 -22.069 -19.067  0.00  0.00    +0.173 C 
ATOM     22  C   UNL     1      36.769 -20.543 -19.302  0.00  0.00    +0.039 C 
ATOM     23  C   UNL     1      35.642 -21.166 -19.839  0.00  0.00    +0.166 C 
BRANCH  23  24
ATOM     24  O   UNL     1      35.259 -20.892 -21.115  0.00  0.00    -0.477 OA
BRANCH  24  25
ATOM     25  C   UNL     1      34.671 -19.614 -21.357  0.00  0.00    +0.166 C 
ATOM     26  C   UNL     1      34.793 -19.279 -22.835  0.00  0.00    +0.047 C 
ATOM     27  C   UNL     1      33.221 -19.635 -20.898  0.00  0.00    +0.047 C 
ENDBRANCH  24  25
ENDBRANCH  23  24
ENDBRANCH  16  18
ENDBRANCH  15  16
ENDBRANCH   3  15
TORSDOF 7
ENDMDL
MODEL 8
REMARK VINA RESULT:      -8.8     13.845     16.746
REMARK  Name = 54688400
REMARK  7 active torsions:
REMARK  status: ('A' for Active; 'I' for Inactive)
REMARK    1  A    between atoms: C_3  and  C_8
REMARK    2  A    between atoms: C_3  and  C_15
REMARK    3  A    between atoms: C_5  and  O_13
REMARK    4  A    between atoms: C_15  and  C_16
REMARK    5  A    between atoms: C_16  and  C_18
REMARK    6  A    between atoms: C_23  and  O_24
REMARK    7  A    between atoms: O_24  and  C_25
REMARK                            x       y       z     vdW  Elec       q    Type
REMARK                         _______ _______ _______ _____ _____    ______ ____
ROOT
ATOM      1  O   UNL     1      31.450  -7.955 -22.649  0.00  0.00    -0.452 OA
ATOM      2  O   UNL     1      30.436  -6.181 -23.628  0.00  0.00    -0.245 OA
ATOM      3  C   UNL     1      32.540  -8.914 -22.682  0.00  0.00    +0.144 C 
ATOM      4  C   UNL     1      33.886  -8.180 -22.709  0.00  0.00    +0.104 C 
ATOM      5  C   UNL     1      33.858  -7.085 -23.727  0.00  0.00    +0.121 C 
ATOM      6  C   UNL     1      31.443  -6.860 -23.454  0.00  0.00    +0.344 C 
ATOM      7  C   UNL     1      32.718  -6.493 -24.094  0.00  0.00    +0.114 C 
ENDROOT
BRANCH   3   8
ATOM      8  C   UNL     1      32.429  -9.740 -21.413  0.00  0.00    +0.037 C 
ATOM      9  C   UNL     1      32.147  -8.899 -20.171  0.00  0.00    +0.003 C 
ATOM     10  C   UNL     1      31.248 -10.707 -21.425  0.00  0.00    +0.003 C 
ATOM     11  C   UNL     1      31.060 -11.076 -19.958  0.00  0.00    +0.000 C 
ATOM     12  C   UNL     1      31.627  -9.908 -19.150  0.00  0.00    +0.000 C 
ENDBRANCH   3   8
BRANCH   5  13
ATOM     13  O   UNL     1      35.061  -6.710 -24.284  0.00  0.00    -0.509 OA
ATOM     14  H   UNL     1      35.811  -6.581 -23.738  0.00  0.00    +0.292 HD
ENDBRANCH   5  13
BRANCH   3  15
ATOM     15  C   UNL     1      32.345  -9.835 -23.896  0.00  0.00    +0.045 C 
BRANCH  15  16
ATOM     16  C   UNL     1      33.673 -10.435 -24.345  0.00  0.00    +0.030 C 
BRANCH  16  18
ATOM     17  F   UNL     1      33.277 -14.789 -26.514  0.00  0.00    -0.201 F 
ATOM     18  C   UNL     1      33.641 -11.941 -24.281  0.00  0.00    -0.020 C 
ATOM     19  C   UNL     1      33.470 -12.686 -25.449  0.00  0.00    +0.029 C 
ATOM     20  C   UNL     1      33.783 -12.590 -23.055  0.00  0.00    -0.001 C 
ATOM     21  C   UNL     1      33.441 -14.079 -25.389  0.00  0.00    +0.173 C 
ATOM     22  C   UNL     1      33.754 -13.983 -22.996  0.00  0.00    +0.039 C 
ATOM     23  C   UNL     1      33.583 -14.728 -24.163  0.00  0.00    +0.166 C 
BRANCH  23  24
ATOM     24  O   UNL     1      33.555 -16.087 -24.103  0.00  0.00    -0.477 OA
BRANCH  24  25
ATOM     25  C   UNL     1      34.797 -16.771 -24.268  0.00  0.00    +0.166 C 
ATOM     26  C   UNL     1      35.320 -17.196 -22.905  0.00  0.00    +0.047 C 
ATOM     27  C   UNL     1      34.594 -17.961 -25.194  0.00  0.00    +0.047 C 
ENDBRANCH  24  25
ENDBRANCH  23  24
ENDBRANCH  16  18
ENDBRANCH  15  16
ENDBRANCH   3  15
TORSDOF 7
ENDMDL
MODEL 9
REMARK VINA RESULT:      -8.7     14.146     16.422
REMARK  Name = 54688400
REMARK  7 active torsions:
REMARK  status: ('A' for Active; 'I' for Inactive)
REMARK    1  A    between atoms: C_3  and  C_8
REMARK    2  A    between atoms: C_3  and  C_15
REMARK    3  A    between atoms: C_5  and  O_13
REMARK    4  A    between atoms: C_15  and  C_16
REMARK    5  A    between atoms: C_16  and  C_18
REMARK    6  A    between atoms: C_23  and  O_24
REMARK    7  A    between atoms: O_24  and  C_25
REMARK                            x       y       z     vdW  Elec       q    Type
REMARK                         _______ _______ _______ _____ _____    ______ ____
ROOT
ATOM      1  O   UNL     1      34.073 -12.187 -23.596  0.00  0.00    -0.452 OA
ATOM      2  O   UNL     1      34.900 -10.740 -25.131  0.00  0.00    -0.245 OA
ATOM      3  C   UNL     1      33.022 -13.122 -23.238  0.00  0.00    +0.144 C 
ATOM      4  C   UNL     1      32.903 -14.214 -24.308  0.00  0.00    +0.104 C 
ATOM      5  C   UNL     1      32.889 -13.602 -25.672  0.00  0.00    +0.121 C 
ATOM      6  C   UNL     1      34.195 -11.706 -24.862  0.00  0.00    +0.344 C 
ATOM      7  C   UNL     1      33.464 -12.423 -25.922  0.00  0.00    +0.114 C 
ENDROOT
BRANCH   3   8
ATOM      8  C   UNL     1      33.427 -13.742 -21.912  0.00  0.00    +0.037 C 
ATOM      9  C   UNL     1      32.376 -14.692 -21.346  0.00  0.00    +0.003 C 
ATOM     10  C   UNL     1      34.654 -14.642 -22.019  0.00  0.00    +0.003 C 
ATOM     11  C   UNL     1      34.608 -15.479 -20.746  0.00  0.00    +0.000 C 
ATOM     12  C   UNL     1      33.141 -15.522 -20.319  0.00  0.00    +0.000 C 
ENDBRANCH   3   8
BRANCH   5  13
ATOM     13  O   UNL     1      32.248 -14.302 -26.672  0.00  0.00    -0.509 OA
ATOM     14  H   UNL     1      31.979 -15.187 -26.526  0.00  0.00    +0.292 HD
ENDBRANCH   5  13
BRANCH   3  15
ATOM     15  C   UNL     1      31.714 -12.339 -23.044  0.00  0.00    +0.045 C 
BRANCH  15  16
ATOM     16  C   UNL     1      31.726 -11.575 -21.724  0.00  0.00    +0.030 C 
BRANCH  16  18
ATOM     17  F   UNL     1      32.660  -7.081 -20.068  0.00  0.00    -0.201 F 
ATOM     18  C   UNL     1      31.880 -10.093 -21.951  0.00  0.00    -0.020 C 
ATOM     19  C   UNL     1      32.206  -9.254 -20.885  0.00  0.00    +0.029 C 
ATOM     20  C   UNL     1      31.696  -9.560 -23.227  0.00  0.00    -0.001 C 
ATOM     21  C   UNL     1      32.347  -7.882 -21.096  0.00  0.00    +0.173 C 
ATOM     22  C   UNL     1      31.839  -8.189 -23.437  0.00  0.00    +0.039 C 
ATOM     23  C   UNL     1      32.165  -7.350 -22.371  0.00  0.00    +0.166 C 
BRANCH  23  24
ATOM     24  O   UNL     1      32.303  -6.012 -22.579  0.00  0.00    -0.477 OA
BRANCH  24  25
ATOM     25  C   UNL     1      31.126  -5.282 -22.922  0.00  0.00    +0.166 C 
ATOM     26  C   UNL     1      30.220  -5.192 -21.703  0.00  0.00    +0.047 C 
ATOM     27  C   UNL     1      31.522  -3.906 -23.437  0.00  0.00    +0.047 C 
ENDBRANCH  24  25
ENDBRANCH  23  24
ENDBRANCH  16  18
ENDBRANCH  15  16
ENDBRANCH   3  15
TORSDOF 7
ENDMDL
