MODEL 1
REMARK VINA RESULT:     -11.4      0.000      0.000
REMARK  Name = 4369491
REMARK  2 active torsions:
REMARK  status: ('A' for Active; 'I' for Inactive)
REMARK    1  A    between atoms: C_10  and  C_21
REMARK    2  A    between atoms: C_17  and  O_27
REMARK                            x       y       z     vdW  Elec       q    Type
REMARK                         _______ _______ _______ _____ _____    ______ ____
ROOT
ATOM      1  O   UNL     1      33.190 -13.484 -25.081  0.00  0.00    -0.270 OA
ATOM      2  O   UNL     1      34.806 -17.698 -24.189  0.00  0.00    -0.270 OA
ATOM      3  N   UNL     1      32.419 -13.537 -19.869  0.00  0.00    -0.353 N 
ATOM      4  N   UNL     1      34.075 -15.638 -25.003  0.00  0.00    -0.248 N 
ATOM      5  C   UNL     1      32.900 -13.907 -22.021  0.00  0.00    +0.022 A 
ATOM      6  C   UNL     1      33.396 -14.721 -23.048  0.00  0.00    +0.060 C 
ATOM      7  C   UNL     1      32.938 -14.469 -20.735  0.00  0.00    +0.057 A 
ATOM      8  C   UNL     1      32.334 -12.595 -21.893  0.00  0.00    +0.020 A 
ATOM      9  C   UNL     1      33.887 -15.998 -22.783  0.00  0.00    +0.058 C 
ATOM     10  C   UNL     1      33.919 -16.540 -21.518  0.00  0.00    +0.006 C 
ATOM     11  C   UNL     1      32.046 -12.399 -20.540  0.00  0.00    +0.057 A 
ATOM     12  C   UNL     1      33.435 -15.763 -20.462  0.00  0.00    +0.017 C 
ATOM     13  C   UNL     1      33.519 -14.491 -24.486  0.00  0.00    +0.252 C 
ATOM     14  C   UNL     1      34.325 -16.591 -24.046  0.00  0.00    +0.252 C 
ATOM     15  C   UNL     1      32.031 -11.544 -22.788  0.00  0.00    +0.038 C 
ATOM     16  C   UNL     1      31.478 -11.219 -20.042  0.00  0.00    +0.020 C 
ATOM     17  C   UNL     1      31.463 -10.358 -22.306  0.00  0.00    +0.134 C 
ATOM     18  C   UNL     1      31.192 -10.199 -20.951  0.00  0.00    +0.038 C 
ATOM     19  H   UNL     1      32.327 -13.668 -18.898  0.00  0.00    +0.166 HD
ATOM     20  H   UNL     1      34.273 -15.763 -25.958  0.00  0.00    +0.158 HD
ENDROOT
BRANCH  10  21
ATOM     21  C   UNL     1      34.428 -17.865 -21.246  0.00  0.00    +0.000 C 
ATOM     22  C   UNL     1      33.545 -18.931 -21.074  0.00  0.00    +0.000 C 
ATOM     23  C   UNL     1      35.805 -18.080 -21.155  0.00  0.00    +0.000 C 
ATOM     24  C   UNL     1      34.036 -20.210 -20.811  0.00  0.00    +0.000 C 
ATOM     25  C   UNL     1      36.296 -19.359 -20.894  0.00  0.00    +0.000 C 
ATOM     26  C   UNL     1      35.411 -20.424 -20.721  0.00  0.00    +0.000 C 
ENDBRANCH  10  21
BRANCH  17  27
ATOM     27  O   UNL     1      31.175  -9.350 -23.175  0.00  0.00    -0.506 OA
ATOM     28  H   UNL     1      30.789  -9.544 -24.006  0.00  0.00    +0.292 HD
ENDBRANCH  17  27
TORSDOF 2
ENDMDL
MODEL 2
REMARK VINA RESULT:     -11.3      1.844      2.683
REMARK  Name = 4369491
REMARK  2 active torsions:
REMARK  status: ('A' for Active; 'I' for Inactive)
REMARK    1  A    between atoms: C_10  and  C_21
REMARK    2  A    between atoms: C_17  and  O_27
REMARK                            x       y       z     vdW  Elec       q    Type
REMARK                         _______ _______ _______ _____ _____    ______ ____
ROOT
ATOM      1  O   UNL     1      34.627 -16.263 -26.099  0.00  0.00    -0.270 OA
ATOM      2  O   UNL     1      35.063 -20.167 -23.704  0.00  0.00    -0.270 OA
ATOM      3  N   UNL     1      33.429 -14.395 -21.319  0.00  0.00    -0.353 N 
ATOM      4  N   UNL     1      34.938 -18.398 -25.219  0.00  0.00    -0.248 N 
ATOM      5  C   UNL     1      33.983 -15.560 -23.146  0.00  0.00    +0.022 A 
ATOM      6  C   UNL     1      34.345 -16.756 -23.778  0.00  0.00    +0.060 C 
ATOM      7  C   UNL     1      33.771 -15.650 -21.761  0.00  0.00    +0.057 A 
ATOM      8  C   UNL     1      33.753 -14.194 -23.521  0.00  0.00    +0.020 A 
ATOM      9  C   UNL     1      34.479 -17.942 -23.057  0.00  0.00    +0.058 C 
ATOM     10  C   UNL     1      34.269 -18.019 -21.699  0.00  0.00    +0.006 C 
ATOM     11  C   UNL     1      33.409 -13.498 -22.359  0.00  0.00    +0.057 A 
ATOM     12  C   UNL     1      33.906 -16.849 -21.027  0.00  0.00    +0.017 C 
ATOM     13  C   UNL     1      34.643 -17.055 -25.178  0.00  0.00    +0.252 C 
ATOM     14  C   UNL     1      34.861 -19.002 -23.988  0.00  0.00    +0.252 C 
ATOM     15  C   UNL     1      33.797 -13.468 -24.733  0.00  0.00    +0.038 C 
ATOM     16  C   UNL     1      33.113 -12.129 -22.348  0.00  0.00    +0.020 C 
ATOM     17  C   UNL     1      33.503 -12.099 -24.737  0.00  0.00    +0.134 C 
ATOM     18  C   UNL     1      33.166 -11.440 -23.560  0.00  0.00    +0.038 C 
ATOM     19  H   UNL     1      33.226 -14.168 -20.384  0.00  0.00    +0.166 HD
ATOM     20  H   UNL     1      35.178 -18.876 -26.044  0.00  0.00    +0.158 HD
ENDROOT
BRANCH  10  21
ATOM     21  C   UNL     1      34.408 -19.250 -20.954  0.00  0.00    +0.000 C 
ATOM     22  C   UNL     1      35.676 -19.722 -20.614  0.00  0.00    +0.000 C 
ATOM     23  C   UNL     1      33.273 -19.967 -20.573  0.00  0.00    +0.000 C 
ATOM     24  C   UNL     1      35.810 -20.909 -19.896  0.00  0.00    +0.000 C 
ATOM     25  C   UNL     1      33.407 -21.155 -19.854  0.00  0.00    +0.000 C 
ATOM     26  C   UNL     1      34.676 -21.626 -19.516  0.00  0.00    +0.000 C 
ENDBRANCH  10  21
BRANCH  17  27
ATOM     27  O   UNL     1      33.549 -11.406 -25.909  0.00  0.00    -0.506 OA
ATOM     28  H   UNL     1      33.431 -11.854 -26.723  0.00  0.00    +0.292 HD
ENDBRANCH  17  27
TORSDOF 2
ENDMDL
MODEL 3
REMARK VINA RESULT:     -11.0      9.455     12.581
REMARK  Name = 4369491
REMARK  2 active torsions:
REMARK  status: ('A' for Active; 'I' for Inactive)
REMARK    1  A    between atoms: C_10  and  C_21
REMARK    2  A    between atoms: C_17  and  O_27
REMARK                            x       y       z     vdW  Elec       q    Type
REMARK                         _______ _______ _______ _____ _____    ______ ____
ROOT
ATOM      1  O   UNL     1      36.397 -22.794 -17.560  0.00  0.00    -0.270 OA
ATOM      2  O   UNL     1      31.844 -22.302 -18.003  0.00  0.00    -0.270 OA
ATOM      3  N   UNL     1      34.917 -25.042 -13.030  0.00  0.00    -0.353 N 
ATOM      4  N   UNL     1      34.172 -22.380 -18.116  0.00  0.00    -0.248 N 
ATOM      5  C   UNL     1      35.127 -24.032 -15.014  0.00  0.00    +0.022 A 
ATOM      6  C   UNL     1      34.575 -23.417 -16.145  0.00  0.00    +0.060 C 
ATOM      7  C   UNL     1      34.201 -24.472 -14.055  0.00  0.00    +0.057 A 
ATOM      8  C   UNL     1      36.434 -24.360 -14.522  0.00  0.00    +0.020 A 
ATOM      9  C   UNL     1      33.197 -23.266 -16.285  0.00  0.00    +0.058 C 
ATOM     10  C   UNL     1      32.297 -23.702 -15.338  0.00  0.00    +0.006 C 
ATOM     11  C   UNL     1      36.265 -24.987 -13.284  0.00  0.00    +0.057 A 
ATOM     12  C   UNL     1      32.803 -24.321 -14.192  0.00  0.00    +0.017 C 
ATOM     13  C   UNL     1      35.204 -22.842 -17.333  0.00  0.00    +0.252 C 
ATOM     14  C   UNL     1      32.937 -22.595 -17.558  0.00  0.00    +0.252 C 
ATOM     15  C   UNL     1      37.754 -24.189 -14.996  0.00  0.00    +0.038 C 
ATOM     16  C   UNL     1      37.336 -25.448 -12.507  0.00  0.00    +0.020 C 
ATOM     17  C   UNL     1      38.835 -24.644 -14.230  0.00  0.00    +0.134 C 
ATOM     18  C   UNL     1      38.627 -25.265 -13.004  0.00  0.00    +0.038 C 
ATOM     19  H   UNL     1      34.517 -25.436 -12.222  0.00  0.00    +0.166 HD
ATOM     20  H   UNL     1      34.305 -21.940 -18.986  0.00  0.00    +0.158 HD
ENDROOT
BRANCH  10  21
ATOM     21  C   UNL     1      30.868 -23.544 -15.485  0.00  0.00    +0.000 C 
ATOM     22  C   UNL     1      30.240 -22.392 -15.010  0.00  0.00    +0.000 C 
ATOM     23  C   UNL     1      30.114 -24.543 -16.102  0.00  0.00    +0.000 C 
ATOM     24  C   UNL     1      28.862 -22.239 -15.152  0.00  0.00    +0.000 C 
ATOM     25  C   UNL     1      28.735 -24.390 -16.244  0.00  0.00    +0.000 C 
ATOM     26  C   UNL     1      28.109 -23.238 -15.768  0.00  0.00    +0.000 C 
ENDBRANCH  10  21
BRANCH  17  27
ATOM     27  O   UNL     1      40.105 -24.476 -14.696  0.00  0.00    -0.506 OA
ATOM     28  H   UNL     1      40.471 -23.616 -14.758  0.00  0.00    +0.292 HD
ENDBRANCH  17  27
TORSDOF 2
ENDMDL
MODEL 4
REMARK VINA RESULT:     -10.8      9.746     11.884
REMARK  Name = 4369491
REMARK  2 active torsions:
REMARK  status: ('A' for Active; 'I' for Inactive)
REMARK    1  A    between atoms: C_10  and  C_21
REMARK    2  A    between atoms: C_17  and  O_27
REMARK                            x       y       z     vdW  Elec       q    Type
REMARK                         _______ _______ _______ _____ _____    ______ ____
ROOT
ATOM      1  O   UNL     1      32.811 -22.569 -18.187  0.00  0.00    -0.270 OA
ATOM      2  O   UNL     1      36.876 -22.954 -16.068  0.00  0.00    -0.270 OA
ATOM      3  N   UNL     1      31.148 -24.727 -13.677  0.00  0.00    -0.353 N 
ATOM      4  N   UNL     1      35.014 -22.609 -17.429  0.00  0.00    -0.248 N 
ATOM      5  C   UNL     1      32.240 -23.838 -15.414  0.00  0.00    +0.022 A 
ATOM      6  C   UNL     1      33.421 -23.416 -16.038  0.00  0.00    +0.060 C 
ATOM      7  C   UNL     1      32.397 -24.373 -14.125  0.00  0.00    +0.057 A 
ATOM      8  C   UNL     1      30.840 -23.887 -15.725  0.00  0.00    +0.020 A 
ATOM      9  C   UNL     1      34.655 -23.529 -15.401  0.00  0.00    +0.058 C 
ATOM     10  C   UNL     1      34.797 -24.055 -14.136  0.00  0.00    +0.006 C 
ATOM     11  C   UNL     1      30.190 -24.447 -14.621  0.00  0.00    +0.057 A 
ATOM     12  C   UNL     1      33.645 -24.490 -13.476  0.00  0.00    +0.017 C 
ATOM     13  C   UNL     1      33.657 -22.819 -17.352  0.00  0.00    +0.252 C 
ATOM     14  C   UNL     1      35.684 -23.009 -16.299  0.00  0.00    +0.252 C 
ATOM     15  C   UNL     1      30.047 -23.515 -16.834  0.00  0.00    +0.038 C 
ATOM     16  C   UNL     1      28.805 -24.650 -14.571  0.00  0.00    +0.020 C 
ATOM     17  C   UNL     1      28.661 -23.712 -16.798  0.00  0.00    +0.134 C 
ATOM     18  C   UNL     1      28.050 -24.271 -15.682  0.00  0.00    +0.038 C 
ATOM     19  H   UNL     1      30.963 -25.129 -12.798  0.00  0.00    +0.166 HD
ATOM     20  H   UNL     1      35.458 -22.214 -18.212  0.00  0.00    +0.158 HD
ENDROOT
BRANCH  10  21
ATOM     21  C   UNL     1      36.079 -24.173 -13.477  0.00  0.00    +0.000 C 
ATOM     22  C   UNL     1      36.520 -23.163 -12.621  0.00  0.00    +0.000 C 
ATOM     23  C   UNL     1      36.876 -25.297 -13.697  0.00  0.00    +0.000 C 
ATOM     24  C   UNL     1      37.756 -23.277 -11.986  0.00  0.00    +0.000 C 
ATOM     25  C   UNL     1      38.112 -25.411 -13.060  0.00  0.00    +0.000 C 
ATOM     26  C   UNL     1      38.552 -24.400 -12.205  0.00  0.00    +0.000 C 
ENDBRANCH  10  21
BRANCH  17  27
ATOM     27  O   UNL     1      27.904 -23.349 -17.872  0.00  0.00    -0.506 OA
ATOM     28  H   UNL     1      27.464 -24.004 -18.377  0.00  0.00    +0.292 HD
ENDBRANCH  17  27
TORSDOF 2
ENDMDL
MODEL 5
REMARK VINA RESULT:     -10.8      6.884     10.402
REMARK  Name = 4369491
REMARK  2 active torsions:
REMARK  status: ('A' for Active; 'I' for Inactive)
REMARK    1  A    between atoms: C_10  and  C_21
REMARK    2  A    between atoms: C_17  and  O_27
REMARK                            x       y       z     vdW  Elec       q    Type
REMARK                         _______ _______ _______ _____ _____    ______ ____
ROOT
ATOM      1  O   UNL     1      31.951 -22.841 -17.309  0.00  0.00    -0.270 OA
ATOM      2  O   UNL     1      34.194 -24.790 -13.796  0.00  0.00    -0.270 OA
ATOM      3  N   UNL     1      36.847 -21.373 -18.588  0.00  0.00    -0.353 N 
ATOM      4  N   UNL     1      32.744 -23.947 -15.417  0.00  0.00    -0.248 N 
ATOM      5  C   UNL     1      34.956 -22.184 -17.712  0.00  0.00    +0.022 A 
ATOM      6  C   UNL     1      34.267 -22.905 -16.728  0.00  0.00    +0.060 C 
ATOM      7  C   UNL     1      36.348 -22.108 -17.541  0.00  0.00    +0.057 A 
ATOM      8  C   UNL     1      34.638 -21.460 -18.909  0.00  0.00    +0.020 A 
ATOM      9  C   UNL     1      34.942 -23.498 -15.662  0.00  0.00    +0.058 C 
ATOM     10  C   UNL     1      36.307 -23.418 -15.504  0.00  0.00    +0.006 C 
ATOM     11  C   UNL     1      35.838 -20.968 -19.427  0.00  0.00    +0.057 A 
ATOM     12  C   UNL     1      37.035 -22.708 -16.462  0.00  0.00    +0.017 C 
ATOM     13  C   UNL     1      32.844 -23.198 -16.566  0.00  0.00    +0.252 C 
ATOM     14  C   UNL     1      33.958 -24.170 -14.815  0.00  0.00    +0.252 C 
ATOM     15  C   UNL     1      33.449 -21.165 -19.613  0.00  0.00    +0.038 C 
ATOM     16  C   UNL     1      35.909 -20.206 -20.601  0.00  0.00    +0.020 C 
ATOM     17  C   UNL     1      33.504 -20.404 -20.788  0.00  0.00    +0.134 C 
ATOM     18  C   UNL     1      34.718 -19.933 -21.274  0.00  0.00    +0.038 C 
ATOM     19  H   UNL     1      37.799 -21.164 -18.719  0.00  0.00    +0.166 HD
ATOM     20  H   UNL     1      31.892 -24.287 -15.063  0.00  0.00    +0.158 HD
ENDROOT
BRANCH  10  21
ATOM     21  C   UNL     1      37.005 -24.033 -14.397  0.00  0.00    +0.000 C 
ATOM     22  C   UNL     1      37.134 -23.350 -13.187  0.00  0.00    +0.000 C 
ATOM     23  C   UNL     1      37.549 -25.310 -14.538  0.00  0.00    +0.000 C 
ATOM     24  C   UNL     1      37.807 -23.943 -12.119  0.00  0.00    +0.000 C 
ATOM     25  C   UNL     1      38.222 -25.904 -13.469  0.00  0.00    +0.000 C 
ATOM     26  C   UNL     1      38.351 -25.219 -12.260  0.00  0.00    +0.000 C 
ENDBRANCH  10  21
BRANCH  17  27
ATOM     27  O   UNL     1      32.352 -20.125 -21.461  0.00  0.00    -0.506 OA
ATOM     28  H   UNL     1      31.549 -20.532 -21.204  0.00  0.00    +0.292 HD
ENDBRANCH  17  27
TORSDOF 2
ENDMDL
MODEL 6
REMARK VINA RESULT:     -10.4      2.958      4.975
REMARK  Name = 4369491
REMARK  2 active torsions:
REMARK  status: ('A' for Active; 'I' for Inactive)
REMARK    1  A    between atoms: C_10  and  C_21
REMARK    2  A    between atoms: C_17  and  O_27
REMARK                            x       y       z     vdW  Elec       q    Type
REMARK                         _______ _______ _______ _____ _____    ______ ____
ROOT
ATOM      1  O   UNL     1      31.056 -10.693 -20.170  0.00  0.00    -0.270 OA
ATOM      2  O   UNL     1      32.205 -14.889 -21.668  0.00  0.00    -0.270 OA
ATOM      3  N   UNL     1      33.797  -9.282 -24.443  0.00  0.00    -0.353 N 
ATOM      4  N   UNL     1      31.444 -12.945 -20.627  0.00  0.00    -0.248 N 
ATOM      5  C   UNL     1      32.729 -10.278 -22.750  0.00  0.00    +0.022 A 
ATOM      6  C   UNL     1      32.322 -11.427 -22.059  0.00  0.00    +0.060 C 
ATOM      7  C   UNL     1      33.494 -10.509 -23.904  0.00  0.00    +0.057 A 
ATOM      8  C   UNL     1      32.585  -8.857 -22.615  0.00  0.00    +0.020 A 
ATOM      9  C   UNL     1      32.667 -12.700 -22.508  0.00  0.00    +0.058 C 
ATOM     10  C   UNL     1      33.418 -12.915 -23.642  0.00  0.00    +0.006 C 
ATOM     11  C   UNL     1      33.263  -8.269 -23.686  0.00  0.00    +0.057 A 
ATOM     12  C   UNL     1      33.846 -11.797 -24.363  0.00  0.00    +0.017 C 
ATOM     13  C   UNL     1      31.530 -11.589 -20.840  0.00  0.00    +0.252 C 
ATOM     14  C   UNL     1      32.101 -13.681 -21.583  0.00  0.00    +0.252 C 
ATOM     15  C   UNL     1      31.948  -7.999 -21.690  0.00  0.00    +0.038 C 
ATOM     16  C   UNL     1      33.334  -6.883 -23.877  0.00  0.00    +0.020 C 
ATOM     17  C   UNL     1      32.010  -6.611 -21.868  0.00  0.00    +0.134 C 
ATOM     18  C   UNL     1      32.694  -6.063 -22.947  0.00  0.00    +0.038 C 
ATOM     19  H   UNL     1      34.327  -9.147 -25.261  0.00  0.00    +0.166 HD
ATOM     20  H   UNL     1      30.963 -13.346 -19.869  0.00  0.00    +0.158 HD
ENDROOT
BRANCH  10  21
ATOM     21  C   UNL     1      33.775 -14.237 -24.106  0.00  0.00    +0.000 C 
ATOM     22  C   UNL     1      34.679 -15.012 -23.379  0.00  0.00    +0.000 C 
ATOM     23  C   UNL     1      33.215 -14.739 -25.281  0.00  0.00    +0.000 C 
ATOM     24  C   UNL     1      35.024 -16.286 -23.826  0.00  0.00    +0.000 C 
ATOM     25  C   UNL     1      33.559 -16.015 -25.728  0.00  0.00    +0.000 C 
ATOM     26  C   UNL     1      34.465 -16.788 -25.001  0.00  0.00    +0.000 C 
ENDBRANCH  10  21
BRANCH  17  27
ATOM     27  O   UNL     1      31.392  -5.791 -20.972  0.00  0.00    -0.506 OA
ATOM     28  H   UNL     1      30.816  -6.152 -20.327  0.00  0.00    +0.292 HD
ENDBRANCH  17  27
TORSDOF 2
ENDMDL
MODEL 7
REMARK VINA RESULT:      -9.6      2.077      7.065
REMARK  Name = 4369491
REMARK  2 active torsions:
REMARK  status: ('A' for Active; 'I' for Inactive)
REMARK    1  A    between atoms: C_10  and  C_21
REMARK    2  A    between atoms: C_17  and  O_27
REMARK                            x       y       z     vdW  Elec       q    Type
REMARK                         _______ _______ _______ _____ _____    ______ ____
ROOT
ATOM      1  O   UNL     1      33.690 -16.101 -26.491  0.00  0.00    -0.270 OA
ATOM      2  O   UNL     1      32.962 -11.558 -26.449  0.00  0.00    -0.270 OA
ATOM      3  N   UNL     1      34.645 -15.196 -21.389  0.00  0.00    -0.353 N 
ATOM      4  N   UNL     1      33.247 -13.840 -26.840  0.00  0.00    -0.248 N 
ATOM      5  C   UNL     1      34.168 -15.161 -23.573  0.00  0.00    +0.022 A 
ATOM      6  C   UNL     1      33.804 -14.478 -24.742  0.00  0.00    +0.060 C 
ATOM      7  C   UNL     1      34.287 -14.365 -22.423  0.00  0.00    +0.057 A 
ATOM      8  C   UNL     1      34.470 -16.509 -23.188  0.00  0.00    +0.020 A 
ATOM      9  C   UNL     1      33.582 -13.102 -24.735  0.00  0.00    +0.058 C 
ATOM     10  C   UNL     1      33.702 -12.332 -23.600  0.00  0.00    +0.006 C 
ATOM     11  C   UNL     1      34.763 -16.494 -21.822  0.00  0.00    +0.057 A 
ATOM     12  C   UNL     1      34.063 -12.971 -22.411  0.00  0.00    +0.017 C 
ATOM     13  C   UNL     1      33.586 -14.953 -26.107  0.00  0.00    +0.252 C 
ATOM     14  C   UNL     1      33.223 -12.690 -26.090  0.00  0.00    +0.252 C 
ATOM     15  C   UNL     1      34.529 -17.752 -23.858  0.00  0.00    +0.038 C 
ATOM     16  C   UNL     1      35.107 -17.645 -21.101  0.00  0.00    +0.020 C 
ATOM     17  C   UNL     1      34.872 -18.911 -23.151  0.00  0.00    +0.134 C 
ATOM     18  C   UNL     1      35.156 -18.856 -21.791  0.00  0.00    +0.038 C 
ATOM     19  H   UNL     1      34.796 -14.902 -20.463  0.00  0.00    +0.166 HD
ATOM     20  H   UNL     1      33.043 -13.865 -27.802  0.00  0.00    +0.158 HD
ENDROOT
BRANCH  10  21
ATOM     21  C   UNL     1      33.472 -10.904 -23.595  0.00  0.00    +0.000 C 
ATOM     22  C   UNL     1      32.249 -10.395 -23.157  0.00  0.00    +0.000 C 
ATOM     23  C   UNL     1      34.473 -10.034 -24.029  0.00  0.00    +0.000 C 
ATOM     24  C   UNL     1      32.027  -9.018 -23.153  0.00  0.00    +0.000 C 
ATOM     25  C   UNL     1      34.252  -8.657 -24.024  0.00  0.00    +0.000 C 
ATOM     26  C   UNL     1      33.028  -8.149 -23.587  0.00  0.00    +0.000 C 
ENDBRANCH  10  21
BRANCH  17  27
ATOM     27  O   UNL     1      34.926 -20.106 -23.805  0.00  0.00    -0.506 OA
ATOM     28  H   UNL     1      34.397 -20.248 -24.565  0.00  0.00    +0.292 HD
ENDBRANCH  17  27
TORSDOF 2
ENDMDL
MODEL 8
REMARK VINA RESULT:      -9.6      5.500      9.997
REMARK  Name = 4369491
REMARK  2 active torsions:
REMARK  status: ('A' for Active; 'I' for Inactive)
REMARK    1  A    between atoms: C_10  and  C_21
REMARK    2  A    between atoms: C_17  and  O_27
REMARK                            x       y       z     vdW  Elec       q    Type
REMARK                         _______ _______ _______ _____ _____    ______ ____
ROOT
ATOM      1  O   UNL     1      32.581 -23.155 -17.268  0.00  0.00    -0.270 OA
ATOM      2  O   UNL     1      32.467 -20.389 -20.943  0.00  0.00    -0.270 OA
ATOM      3  N   UNL     1      37.688 -21.870 -17.448  0.00  0.00    -0.353 N 
ATOM      4  N   UNL     1      32.152 -21.830 -19.137  0.00  0.00    -0.248 N 
ATOM      5  C   UNL     1      35.487 -22.164 -17.714  0.00  0.00    +0.022 A 
ATOM      6  C   UNL     1      34.287 -21.917 -18.393  0.00  0.00    +0.060 C 
ATOM      7  C   UNL     1      36.619 -21.515 -18.234  0.00  0.00    +0.057 A 
ATOM      8  C   UNL     1      35.922 -22.928 -16.580  0.00  0.00    +0.020 A 
ATOM      9  C   UNL     1      34.247 -21.079 -19.506  0.00  0.00    +0.058 C 
ATOM     10  C   UNL     1      35.363 -20.448 -20.008  0.00  0.00    +0.006 C 
ATOM     11  C   UNL     1      37.297 -22.722 -16.445  0.00  0.00    +0.057 A 
ATOM     12  C   UNL     1      36.582 -20.665 -19.362  0.00  0.00    +0.017 C 
ATOM     13  C   UNL     1      32.928 -22.401 -18.156  0.00  0.00    +0.252 C 
ATOM     14  C   UNL     1      32.867 -21.024 -19.987  0.00  0.00    +0.252 C 
ATOM     15  C   UNL     1      35.291 -23.782 -15.647  0.00  0.00    +0.038 C 
ATOM     16  C   UNL     1      38.064 -23.319 -15.435  0.00  0.00    +0.020 C 
ATOM     17  C   UNL     1      36.044 -24.385 -14.632  0.00  0.00    +0.134 C 
ATOM     18  C   UNL     1      37.412 -24.156 -14.529  0.00  0.00    +0.038 C 
ATOM     19  H   UNL     1      38.611 -21.557 -17.586  0.00  0.00    +0.166 HD
ATOM     20  H   UNL     1      31.183 -21.984 -19.221  0.00  0.00    +0.158 HD
ENDROOT
BRANCH  10  21
ATOM     21  C   UNL     1      35.318 -19.580 -21.163  0.00  0.00    +0.000 C 
ATOM     22  C   UNL     1      35.231 -20.126 -22.444  0.00  0.00    +0.000 C 
ATOM     23  C   UNL     1      35.363 -18.195 -20.999  0.00  0.00    +0.000 C 
ATOM     24  C   UNL     1      35.189 -19.290 -23.559  0.00  0.00    +0.000 C 
ATOM     25  C   UNL     1      35.319 -17.358 -22.114  0.00  0.00    +0.000 C 
ATOM     26  C   UNL     1      35.233 -17.906 -23.394  0.00  0.00    +0.000 C 
ENDBRANCH  10  21
BRANCH  17  27
ATOM     27  O   UNL     1      35.427 -25.206 -13.737  0.00  0.00    -0.506 OA
ATOM     28  H   UNL     1      35.531 -26.135 -13.804  0.00  0.00    +0.292 HD
ENDBRANCH  17  27
TORSDOF 2
ENDMDL
MODEL 9
REMARK VINA RESULT:      -9.4      7.325     11.892
REMARK  Name = 4369491
REMARK  2 active torsions:
REMARK  status: ('A' for Active; 'I' for Inactive)
REMARK    1  A    between atoms: C_10  and  C_21
REMARK    2  A    between atoms: C_17  and  O_27
REMARK                            x       y       z     vdW  Elec       q    Type
REMARK                         _______ _______ _______ _____ _____    ______ ____
ROOT
ATOM      1  O   UNL     1      33.160 -24.685 -14.575  0.00  0.00    -0.270 OA
ATOM      2  O   UNL     1      32.080 -22.198 -18.292  0.00  0.00    -0.270 OA
ATOM      3  N   UNL     1      38.019 -23.202 -15.971  0.00  0.00    -0.353 N 
ATOM      4  N   UNL     1      32.254 -23.518 -16.377  0.00  0.00    -0.248 N 
ATOM      5  C   UNL     1      35.835 -23.606 -15.719  0.00  0.00    +0.022 A 
ATOM      6  C   UNL     1      34.502 -23.460 -16.126  0.00  0.00    +0.060 C 
ATOM      7  C   UNL     1      36.785 -22.949 -16.517  0.00  0.00    +0.057 A 
ATOM      8  C   UNL     1      36.552 -24.268 -14.667  0.00  0.00    +0.020 A 
ATOM      9  C   UNL     1      34.170 -22.708 -17.250  0.00  0.00    +0.058 C 
ATOM     10  C   UNL     1      35.110 -22.067 -18.026  0.00  0.00    +0.006 C 
ATOM     11  C   UNL     1      37.909 -23.995 -14.855  0.00  0.00    +0.057 A 
ATOM     12  C   UNL     1      36.452 -22.186 -17.657  0.00  0.00    +0.017 C 
ATOM     13  C   UNL     1      33.259 -23.984 -15.562  0.00  0.00    +0.252 C 
ATOM     14  C   UNL     1      32.717 -22.746 -17.413  0.00  0.00    +0.252 C 
ATOM     15  C   UNL     1      36.192 -25.078 -13.566  0.00  0.00    +0.038 C 
ATOM     16  C   UNL     1      38.912 -24.485 -14.008  0.00  0.00    +0.020 C 
ATOM     17  C   UNL     1      37.183 -25.575 -12.711  0.00  0.00    +0.134 C 
ATOM     18  C   UNL     1      38.524 -25.281 -12.930  0.00  0.00    +0.038 C 
ATOM     19  H   UNL     1      38.869 -22.861 -16.330  0.00  0.00    +0.166 HD
ATOM     20  H   UNL     1      31.301 -23.718 -16.233  0.00  0.00    +0.158 HD
ENDROOT
BRANCH  10  21
ATOM     21  C   UNL     1      34.762 -21.288 -19.193  0.00  0.00    +0.000 C 
ATOM     22  C   UNL     1      33.422 -21.056 -19.505  0.00  0.00    +0.000 C 
ATOM     23  C   UNL     1      35.767 -20.766 -20.009  0.00  0.00    +0.000 C 
ATOM     24  C   UNL     1      33.087 -20.304 -20.631  0.00  0.00    +0.000 C 
ATOM     25  C   UNL     1      35.431 -20.013 -21.135  0.00  0.00    +0.000 C 
ATOM     26  C   UNL     1      34.091 -19.784 -21.446  0.00  0.00    +0.000 C 
ENDBRANCH  10  21
BRANCH  17  27
ATOM     27  O   UNL     1      36.827 -26.355 -11.651  0.00  0.00    -0.506 OA
ATOM     28  H   UNL     1      37.288 -27.152 -11.481  0.00  0.00    +0.292 HD
ENDBRANCH  17  27
TORSDOF 2
ENDMDL
