MODEL 1
REMARK VINA RESULT:      -8.5      0.000      0.000
REMARK  Name = 3463
REMARK  7 active torsions:
REMARK  status: ('A' for Active; 'I' for Inactive)
REMARK    1  A    between atoms: C_1  and  O_2
REMARK    2  A    between atoms: C_1  and  C_11
REMARK    3  A    between atoms: O_2  and  C_3
REMARK    4  A    between atoms: C_11  and  C_12
REMARK    5  A    between atoms: C_12  and  C_13
REMARK    6  A    between atoms: C_13  and  C_17
REMARK    7  A    between atoms: C_17  and  O_18
REMARK                            x       y       z     vdW  Elec       q    Type
REMARK                         _______ _______ _______ _____ _____    ______ ____
ROOT
ATOM      1  C   UNL     1      36.724 -21.647 -17.734  0.00  0.00    +0.205 C 
ENDROOT
BRANCH   1   2
ATOM      2  O   UNL     1      36.045 -22.204 -18.852  0.00  0.00    -0.476 OA
BRANCH   2   3
ATOM      3  C   UNL     1      35.213 -21.367 -19.548  0.00  0.00    +0.134 C 
ATOM      4  C   UNL     1      33.833 -21.455 -19.392  0.00  0.00    +0.012 C 
ATOM      5  C   UNL     1      35.769 -20.428 -20.410  0.00  0.00    +0.032 C 
ATOM      6  C   UNL     1      34.935 -19.567 -21.125  0.00  0.00    -0.019 C 
ATOM      7  C   UNL     1      33.001 -20.595 -20.109  0.00  0.00    -0.002 C 
ATOM      8  C   UNL     1      33.552 -19.651 -20.974  0.00  0.00    -0.004 C 
ATOM      9  C   UNL     1      33.226 -22.461 -18.471  0.00  0.00    +0.034 C 
ATOM     10  C   UNL     1      35.525 -18.557 -22.052  0.00  0.00    +0.031 C 
ENDBRANCH   2   3
ENDBRANCH   1   2
BRANCH   1  11
ATOM     11  C   UNL     1      36.365 -22.424 -16.471  0.00  0.00    +0.048 C 
BRANCH  11  12
ATOM     12  C   UNL     1      37.621 -22.905 -15.736  0.00  0.00    +0.014 C 
BRANCH  12  13
ATOM     13  C   UNL     1      37.380 -24.033 -14.701  0.00  0.00    +0.090 C 
ATOM     14  C   UNL     1      36.117 -24.837 -15.066  0.00  0.00    +0.011 C 
ATOM     15  C   UNL     1      37.152 -23.415 -13.309  0.00  0.00    +0.011 C 
BRANCH  13  17
ATOM     16  O   UNL     1      39.583 -24.790 -13.956  0.00  0.00    -0.250 OA
ATOM     17  C   UNL     1      38.579 -24.990 -14.628  0.00  0.00    +0.313 C 
BRANCH  17  18
ATOM     18  O   UNL     1      38.437 -26.106 -15.389  0.00  0.00    -0.480 OA
ATOM     19  H   UNL     1      39.085 -26.323 -16.029  0.00  0.00    +0.295 HD
ENDBRANCH  17  18
ENDBRANCH  13  17
ENDBRANCH  12  13
ENDBRANCH  11  12
ENDBRANCH   1  11
TORSDOF 7
ENDMDL
MODEL 2
REMARK VINA RESULT:      -8.5      0.903      1.270
REMARK  Name = 3463
REMARK  7 active torsions:
REMARK  status: ('A' for Active; 'I' for Inactive)
REMARK    1  A    between atoms: C_1  and  O_2
REMARK    2  A    between atoms: C_1  and  C_11
REMARK    3  A    between atoms: O_2  and  C_3
REMARK    4  A    between atoms: C_11  and  C_12
REMARK    5  A    between atoms: C_12  and  C_13
REMARK    6  A    between atoms: C_13  and  C_17
REMARK    7  A    between atoms: C_17  and  O_18
REMARK                            x       y       z     vdW  Elec       q    Type
REMARK                         _______ _______ _______ _____ _____    ______ ____
ROOT
ATOM      1  C   UNL     1      36.833 -21.796 -17.270  0.00  0.00    +0.205 C 
ENDROOT
BRANCH   1   2
ATOM      2  O   UNL     1      36.182 -22.387 -18.387  0.00  0.00    -0.476 OA
BRANCH   2   3
ATOM      3  C   UNL     1      35.426 -21.556 -19.172  0.00  0.00    +0.134 C 
ATOM      4  C   UNL     1      34.039 -21.661 -19.181  0.00  0.00    +0.012 C 
ATOM      5  C   UNL     1      36.068 -20.604 -19.958  0.00  0.00    +0.032 C 
ATOM      6  C   UNL     1      35.314 -19.750 -20.763  0.00  0.00    -0.019 C 
ATOM      7  C   UNL     1      33.286 -20.807 -19.986  0.00  0.00    -0.002 C 
ATOM      8  C   UNL     1      33.923 -19.851 -20.776  0.00  0.00    -0.004 C 
ATOM      9  C   UNL     1      33.340 -22.680 -18.342  0.00  0.00    +0.034 C 
ATOM     10  C   UNL     1      35.995 -18.727 -21.608  0.00  0.00    +0.031 C 
ENDBRANCH   2   3
ENDBRANCH   1   2
BRANCH   1  11
ATOM     11  C   UNL     1      36.301 -22.406 -15.977  0.00  0.00    +0.048 C 
BRANCH  11  12
ATOM     12  C   UNL     1      37.254 -23.475 -15.432  0.00  0.00    +0.014 C 
BRANCH  12  13
ATOM     13  C   UNL     1      36.562 -24.669 -14.726  0.00  0.00    +0.090 C 
ATOM     14  C   UNL     1      35.033 -24.583 -14.901  0.00  0.00    +0.011 C 
ATOM     15  C   UNL     1      36.861 -24.619 -13.216  0.00  0.00    +0.011 C 
BRANCH  13  17
ATOM     16  O   UNL     1      36.322 -26.890 -15.721  0.00  0.00    -0.250 OA
ATOM     17  C   UNL     1      37.055 -26.011 -15.284  0.00  0.00    +0.313 C 
BRANCH  17  18
ATOM     18  O   UNL     1      38.405 -26.155 -15.255  0.00  0.00    -0.480 OA
ATOM     19  H   UNL     1      38.833 -26.695 -15.888  0.00  0.00    +0.295 HD
ENDBRANCH  17  18
ENDBRANCH  13  17
ENDBRANCH  12  13
ENDBRANCH  11  12
ENDBRANCH   1  11
TORSDOF 7
ENDMDL
MODEL 3
REMARK VINA RESULT:      -8.3      1.527      1.991
REMARK  Name = 3463
REMARK  7 active torsions:
REMARK  status: ('A' for Active; 'I' for Inactive)
REMARK    1  A    between atoms: C_1  and  O_2
REMARK    2  A    between atoms: C_1  and  C_11
REMARK    3  A    between atoms: O_2  and  C_3
REMARK    4  A    between atoms: C_11  and  C_12
REMARK    5  A    between atoms: C_12  and  C_13
REMARK    6  A    between atoms: C_13  and  C_17
REMARK    7  A    between atoms: C_17  and  O_18
REMARK                            x       y       z     vdW  Elec       q    Type
REMARK                         _______ _______ _______ _____ _____    ______ ____
ROOT
ATOM      1  C   UNL     1      35.797 -22.532 -15.400  0.00  0.00    +0.205 C 
ENDROOT
BRANCH   1   2
ATOM      2  O   UNL     1      35.761 -23.214 -16.647  0.00  0.00    -0.476 OA
BRANCH   2   3
ATOM      3  C   UNL     1      35.322 -22.497 -17.729  0.00  0.00    +0.134 C 
ATOM      4  C   UNL     1      33.984 -22.537 -18.106  0.00  0.00    +0.012 C 
ATOM      5  C   UNL     1      36.236 -21.729 -18.443  0.00  0.00    +0.032 C 
ATOM      6  C   UNL     1      35.806 -20.993 -19.548  0.00  0.00    -0.019 C 
ATOM      7  C   UNL     1      33.555 -21.800 -19.211  0.00  0.00    -0.002 C 
ATOM      8  C   UNL     1      34.466 -21.029 -19.931  0.00  0.00    -0.004 C 
ATOM      9  C   UNL     1      32.995 -23.359 -17.347  0.00  0.00    +0.034 C 
ATOM     10  C   UNL     1      36.780 -20.167 -20.319  0.00  0.00    +0.031 C 
ENDBRANCH   2   3
ENDBRANCH   1   2
BRANCH   1  11
ATOM     11  C   UNL     1      37.073 -22.898 -14.647  0.00  0.00    +0.048 C 
BRANCH  11  12
ATOM     12  C   UNL     1      37.921 -23.897 -15.440  0.00  0.00    +0.014 C 
BRANCH  12  13
ATOM     13  C   UNL     1      38.539 -25.043 -14.600  0.00  0.00    +0.090 C 
ATOM     14  C   UNL     1      37.801 -26.368 -14.875  0.00  0.00    +0.011 C 
ATOM     15  C   UNL     1      38.381 -24.726 -13.101  0.00  0.00    +0.011 C 
BRANCH  13  17
ATOM     16  O   UNL     1      40.941 -24.805 -14.210  0.00  0.00    -0.250 OA
ATOM     17  C   UNL     1      40.031 -25.226 -14.913  0.00  0.00    +0.313 C 
BRANCH  17  18
ATOM     18  O   UNL     1      40.270 -25.909 -16.062  0.00  0.00    -0.480 OA
ATOM     19  H   UNL     1      39.556 -26.264 -16.554  0.00  0.00    +0.295 HD
ENDBRANCH  17  18
ENDBRANCH  13  17
ENDBRANCH  12  13
ENDBRANCH  11  12
ENDBRANCH   1  11
TORSDOF 7
ENDMDL
MODEL 4
REMARK VINA RESULT:      -8.2      2.059      2.564
REMARK  Name = 3463
REMARK  7 active torsions:
REMARK  status: ('A' for Active; 'I' for Inactive)
REMARK    1  A    between atoms: C_1  and  O_2
REMARK    2  A    between atoms: C_1  and  C_11
REMARK    3  A    between atoms: O_2  and  C_3
REMARK    4  A    between atoms: C_11  and  C_12
REMARK    5  A    between atoms: C_12  and  C_13
REMARK    6  A    between atoms: C_13  and  C_17
REMARK    7  A    between atoms: C_17  and  O_18
REMARK                            x       y       z     vdW  Elec       q    Type
REMARK                         _______ _______ _______ _____ _____    ______ ____
ROOT
ATOM      1  C   UNL     1      36.823 -21.643 -17.310  0.00  0.00    +0.205 C 
ENDROOT
BRANCH   1   2
ATOM      2  O   UNL     1      36.197 -22.283 -18.415  0.00  0.00    -0.476 OA
BRANCH   2   3
ATOM      3  C   UNL     1      35.409 -21.500 -19.217  0.00  0.00    +0.134 C 
ATOM      4  C   UNL     1      34.026 -21.650 -19.210  0.00  0.00    +0.012 C 
ATOM      5  C   UNL     1      36.013 -20.551 -20.035  0.00  0.00    +0.032 C 
ATOM      6  C   UNL     1      35.225 -19.745 -20.857  0.00  0.00    -0.019 C 
ATOM      7  C   UNL     1      33.239 -20.844 -20.032  0.00  0.00    -0.002 C 
ATOM      8  C   UNL     1      33.838 -19.892 -20.855  0.00  0.00    -0.004 C 
ATOM      9  C   UNL     1      33.367 -22.666 -18.336  0.00  0.00    +0.034 C 
ATOM     10  C   UNL     1      35.866 -18.726 -21.738  0.00  0.00    +0.031 C 
ENDBRANCH   2   3
ENDBRANCH   1   2
BRANCH   1  11
ATOM     11  C   UNL     1      36.912 -22.610 -16.134  0.00  0.00    +0.048 C 
BRANCH  11  12
ATOM     12  C   UNL     1      35.571 -22.720 -15.401  0.00  0.00    +0.014 C 
BRANCH  12  13
ATOM     13  C   UNL     1      35.470 -23.895 -14.395  0.00  0.00    +0.090 C 
ATOM     14  C   UNL     1      36.226 -23.556 -13.095  0.00  0.00    +0.011 C 
ATOM     15  C   UNL     1      36.126 -25.150 -15.001  0.00  0.00    +0.011 C 
BRANCH  13  17
ATOM     16  O   UNL     1      33.074 -24.100 -14.838  0.00  0.00    -0.250 OA
ATOM     17  C   UNL     1      34.008 -24.216 -14.054  0.00  0.00    +0.313 C 
BRANCH  17  18
ATOM     18  O   UNL     1      33.824 -24.649 -12.780  0.00  0.00    -0.480 OA
ATOM     19  H   UNL     1      33.155 -25.276 -12.590  0.00  0.00    +0.295 HD
ENDBRANCH  17  18
ENDBRANCH  13  17
ENDBRANCH  12  13
ENDBRANCH  11  12
ENDBRANCH   1  11
TORSDOF 7
ENDMDL
MODEL 5
REMARK VINA RESULT:      -8.0      6.668      9.669
REMARK  Name = 3463
REMARK  7 active torsions:
REMARK  status: ('A' for Active; 'I' for Inactive)
REMARK    1  A    between atoms: C_1  and  O_2
REMARK    2  A    between atoms: C_1  and  C_11
REMARK    3  A    between atoms: O_2  and  C_3
REMARK    4  A    between atoms: C_11  and  C_12
REMARK    5  A    between atoms: C_12  and  C_13
REMARK    6  A    between atoms: C_13  and  C_17
REMARK    7  A    between atoms: C_17  and  O_18
REMARK                            x       y       z     vdW  Elec       q    Type
REMARK                         _______ _______ _______ _____ _____    ______ ____
ROOT
ATOM      1  C   UNL     1      33.078 -14.938 -22.098  0.00  0.00    +0.205 C 
ENDROOT
BRANCH   1   2
ATOM      2  O   UNL     1      33.381 -15.236 -23.455  0.00  0.00    -0.476 OA
BRANCH   2   3
ATOM      3  C   UNL     1      33.469 -14.173 -24.315  0.00  0.00    +0.134 C 
ATOM      4  C   UNL     1      33.262 -14.350 -25.679  0.00  0.00    +0.012 C 
ATOM      5  C   UNL     1      33.767 -12.914 -23.802  0.00  0.00    +0.032 C 
ATOM      6  C   UNL     1      33.860 -11.821 -24.665  0.00  0.00    -0.019 C 
ATOM      7  C   UNL     1      33.356 -13.256 -26.540  0.00  0.00    -0.002 C 
ATOM      8  C   UNL     1      33.655 -11.993 -26.033  0.00  0.00    -0.004 C 
ATOM      9  C   UNL     1      32.943 -15.697 -26.240  0.00  0.00    +0.034 C 
ATOM     10  C   UNL     1      34.180 -10.469 -24.122  0.00  0.00    +0.031 C 
ENDBRANCH   2   3
ENDBRANCH   1   2
BRANCH   1  11
ATOM     11  C   UNL     1      33.521 -16.091 -21.203  0.00  0.00    +0.048 C 
BRANCH  11  12
ATOM     12  C   UNL     1      34.923 -16.581 -21.579  0.00  0.00    +0.014 C 
BRANCH  12  13
ATOM     13  C   UNL     1      35.025 -18.096 -21.892  0.00  0.00    +0.090 C 
ATOM     14  C   UNL     1      33.806 -18.845 -21.318  0.00  0.00    +0.011 C 
ATOM     15  C   UNL     1      36.285 -18.677 -21.223  0.00  0.00    +0.011 C 
BRANCH  13  17
ATOM     16  O   UNL     1      34.913 -19.440 -23.931  0.00  0.00    -0.250 OA
ATOM     17  C   UNL     1      35.102 -18.351 -23.403  0.00  0.00    +0.313 C 
BRANCH  17  18
ATOM     18  O   UNL     1      35.408 -17.246 -24.131  0.00  0.00    -0.480 OA
ATOM     19  H   UNL     1      34.909 -16.461 -24.023  0.00  0.00    +0.295 HD
ENDBRANCH  17  18
ENDBRANCH  13  17
ENDBRANCH  12  13
ENDBRANCH  11  12
ENDBRANCH   1  11
TORSDOF 7
ENDMDL
MODEL 6
REMARK VINA RESULT:      -8.0      3.243      7.877
REMARK  Name = 3463
REMARK  7 active torsions:
REMARK  status: ('A' for Active; 'I' for Inactive)
REMARK    1  A    between atoms: C_1  and  O_2
REMARK    2  A    between atoms: C_1  and  C_11
REMARK    3  A    between atoms: O_2  and  C_3
REMARK    4  A    between atoms: C_11  and  C_12
REMARK    5  A    between atoms: C_12  and  C_13
REMARK    6  A    between atoms: C_13  and  C_17
REMARK    7  A    between atoms: C_17  and  O_18
REMARK                            x       y       z     vdW  Elec       q    Type
REMARK                         _______ _______ _______ _____ _____    ______ ____
ROOT
ATOM      1  C   UNL     1      33.184 -20.671 -19.886  0.00  0.00    +0.205 C 
ENDROOT
BRANCH   1   2
ATOM      2  O   UNL     1      33.855 -21.922 -19.811  0.00  0.00    -0.476 OA
BRANCH   2   3
ATOM      3  C   UNL     1      34.561 -22.176 -18.664  0.00  0.00    +0.134 C 
ATOM      4  C   UNL     1      35.898 -21.804 -18.562  0.00  0.00    +0.012 C 
ATOM      5  C   UNL     1      33.920 -22.809 -17.605  0.00  0.00    +0.032 C 
ATOM      6  C   UNL     1      34.624 -23.075 -16.430  0.00  0.00    -0.019 C 
ATOM      7  C   UNL     1      36.601 -22.070 -17.387  0.00  0.00    -0.002 C 
ATOM      8  C   UNL     1      35.964 -22.705 -16.321  0.00  0.00    -0.004 C 
ATOM      9  C   UNL     1      36.596 -21.125 -19.694  0.00  0.00    +0.034 C 
ATOM     10  C   UNL     1      33.944 -23.754 -15.290  0.00  0.00    +0.031 C 
ENDBRANCH   2   3
ENDBRANCH   1   2
BRANCH   1  11
ATOM     11  C   UNL     1      33.462 -20.015 -21.235  0.00  0.00    +0.048 C 
BRANCH  11  12
ATOM     12  C   UNL     1      34.107 -18.636 -21.062  0.00  0.00    +0.014 C 
BRANCH  12  13
ATOM     13  C   UNL     1      35.030 -18.195 -22.227  0.00  0.00    +0.090 C 
ATOM     14  C   UNL     1      34.720 -19.013 -23.496  0.00  0.00    +0.011 C 
ATOM     15  C   UNL     1      36.499 -18.462 -21.849  0.00  0.00    +0.011 C 
BRANCH  13  17
ATOM     16  O   UNL     1      34.073 -15.961 -21.968  0.00  0.00    -0.250 OA
ATOM     17  C   UNL     1      34.862 -16.702 -22.540  0.00  0.00    +0.313 C 
BRANCH  17  18
ATOM     18  O   UNL     1      35.678 -16.254 -23.528  0.00  0.00    -0.480 OA
ATOM     19  H   UNL     1      36.603 -16.216 -23.392  0.00  0.00    +0.295 HD
ENDBRANCH  17  18
ENDBRANCH  13  17
ENDBRANCH  12  13
ENDBRANCH  11  12
ENDBRANCH   1  11
TORSDOF 7
ENDMDL
MODEL 7
REMARK VINA RESULT:      -8.0      2.737      4.608
REMARK  Name = 3463
REMARK  7 active torsions:
REMARK  status: ('A' for Active; 'I' for Inactive)
REMARK    1  A    between atoms: C_1  and  O_2
REMARK    2  A    between atoms: C_1  and  C_11
REMARK    3  A    between atoms: O_2  and  C_3
REMARK    4  A    between atoms: C_11  and  C_12
REMARK    5  A    between atoms: C_12  and  C_13
REMARK    6  A    between atoms: C_13  and  C_17
REMARK    7  A    between atoms: C_17  and  O_18
REMARK                            x       y       z     vdW  Elec       q    Type
REMARK                         _______ _______ _______ _____ _____    ______ ____
ROOT
ATOM      1  C   UNL     1      35.746 -22.730 -15.576  0.00  0.00    +0.205 C 
ENDROOT
BRANCH   1   2
ATOM      2  O   UNL     1      34.885 -23.735 -16.095  0.00  0.00    -0.476 OA
BRANCH   2   3
ATOM      3  C   UNL     1      33.537 -23.504 -15.997  0.00  0.00    +0.134 C 
ATOM      4  C   UNL     1      32.822 -23.026 -17.090  0.00  0.00    +0.012 C 
ATOM      5  C   UNL     1      32.897 -23.757 -14.789  0.00  0.00    +0.032 C 
ATOM      6  C   UNL     1      31.526 -23.527 -14.672  0.00  0.00    -0.019 C 
ATOM      7  C   UNL     1      31.451 -22.797 -16.972  0.00  0.00    -0.002 C 
ATOM      8  C   UNL     1      30.803 -23.048 -15.764  0.00  0.00    -0.004 C 
ATOM      9  C   UNL     1      33.500 -22.750 -18.392  0.00  0.00    +0.034 C 
ATOM     10  C   UNL     1      30.832 -23.796 -13.379  0.00  0.00    +0.031 C 
ENDBRANCH   2   3
ENDBRANCH   1   2
BRANCH   1  11
ATOM     11  C   UNL     1      36.704 -23.344 -14.560  0.00  0.00    +0.048 C 
BRANCH  11  12
ATOM     12  C   UNL     1      37.978 -23.861 -15.236  0.00  0.00    +0.014 C 
BRANCH  12  13
ATOM     13  C   UNL     1      38.643 -25.074 -14.538  0.00  0.00    +0.090 C 
ATOM     14  C   UNL     1      37.878 -26.370 -14.869  0.00  0.00    +0.011 C 
ATOM     15  C   UNL     1      38.592 -24.881 -13.010  0.00  0.00    +0.011 C 
BRANCH  13  17
ATOM     16  O   UNL     1      41.066 -24.826 -14.324  0.00  0.00    -0.250 OA
ATOM     17  C   UNL     1      40.108 -25.234 -14.968  0.00  0.00    +0.313 C 
BRANCH  17  18
ATOM     18  O   UNL     1      40.264 -25.878 -16.153  0.00  0.00    -0.480 OA
ATOM     19  H   UNL     1      40.580 -26.759 -16.170  0.00  0.00    +0.295 HD
ENDBRANCH  17  18
ENDBRANCH  13  17
ENDBRANCH  12  13
ENDBRANCH  11  12
ENDBRANCH   1  11
TORSDOF 7
ENDMDL
MODEL 8
REMARK VINA RESULT:      -7.8      2.621      4.383
REMARK  Name = 3463
REMARK  7 active torsions:
REMARK  status: ('A' for Active; 'I' for Inactive)
REMARK    1  A    between atoms: C_1  and  O_2
REMARK    2  A    between atoms: C_1  and  C_11
REMARK    3  A    between atoms: O_2  and  C_3
REMARK    4  A    between atoms: C_11  and  C_12
REMARK    5  A    between atoms: C_12  and  C_13
REMARK    6  A    between atoms: C_13  and  C_17
REMARK    7  A    between atoms: C_17  and  O_18
REMARK                            x       y       z     vdW  Elec       q    Type
REMARK                         _______ _______ _______ _____ _____    ______ ____
ROOT
ATOM      1  C   UNL     1      36.220 -22.431 -16.170  0.00  0.00    +0.205 C 
ENDROOT
BRANCH   1   2
ATOM      2  O   UNL     1      35.378 -23.526 -16.507  0.00  0.00    -0.476 OA
BRANCH   2   3
ATOM      3  C   UNL     1      34.030 -23.340 -16.346  0.00  0.00    +0.134 C 
ATOM      4  C   UNL     1      33.228 -23.013 -17.434  0.00  0.00    +0.012 C 
ATOM      5  C   UNL     1      33.477 -23.486 -15.077  0.00  0.00    +0.032 C 
ATOM      6  C   UNL     1      32.106 -23.300 -14.895  0.00  0.00    -0.019 C 
ATOM      7  C   UNL     1      31.857 -22.827 -17.251  0.00  0.00    -0.002 C 
ATOM      8  C   UNL     1      31.297 -22.972 -15.982  0.00  0.00    -0.004 C 
ATOM      9  C   UNL     1      33.811 -22.853 -18.799  0.00  0.00    +0.034 C 
ATOM     10  C   UNL     1      31.507 -23.454 -13.539  0.00  0.00    +0.031 C 
ENDBRANCH   2   3
ENDBRANCH   1   2
BRANCH   1  11
ATOM     11  C   UNL     1      37.066 -22.785 -14.951  0.00  0.00    +0.048 C 
BRANCH  11  12
ATOM     12  C   UNL     1      37.885 -24.058 -15.191  0.00  0.00    +0.014 C 
BRANCH  12  13
ATOM     13  C   UNL     1      37.582 -25.224 -14.216  0.00  0.00    +0.090 C 
ATOM     14  C   UNL     1      36.372 -24.879 -13.326  0.00  0.00    +0.011 C 
ATOM     15  C   UNL     1      38.792 -25.449 -13.290  0.00  0.00    +0.011 C 
BRANCH  13  17
ATOM     16  O   UNL     1      36.312 -26.704 -15.692  0.00  0.00    -0.250 OA
ATOM     17  C   UNL     1      37.289 -26.526 -14.975  0.00  0.00    +0.313 C 
BRANCH  17  18
ATOM     18  O   UNL     1      38.223 -27.494 -14.784  0.00  0.00    -0.480 OA
ATOM     19  H   UNL     1      39.063 -27.422 -15.191  0.00  0.00    +0.295 HD
ENDBRANCH  17  18
ENDBRANCH  13  17
ENDBRANCH  12  13
ENDBRANCH  11  12
ENDBRANCH   1  11
TORSDOF 7
ENDMDL
MODEL 9
REMARK VINA RESULT:      -7.7      5.480      9.168
REMARK  Name = 3463
REMARK  7 active torsions:
REMARK  status: ('A' for Active; 'I' for Inactive)
REMARK    1  A    between atoms: C_1  and  O_2
REMARK    2  A    between atoms: C_1  and  C_11
REMARK    3  A    between atoms: O_2  and  C_3
REMARK    4  A    between atoms: C_11  and  C_12
REMARK    5  A    between atoms: C_12  and  C_13
REMARK    6  A    between atoms: C_13  and  C_17
REMARK    7  A    between atoms: C_17  and  O_18
REMARK                            x       y       z     vdW  Elec       q    Type
REMARK                         _______ _______ _______ _____ _____    ______ ____
ROOT
ATOM      1  C   UNL     1      34.384 -15.180 -22.680  0.00  0.00    +0.205 C 
ENDROOT
BRANCH   1   2
ATOM      2  O   UNL     1      33.258 -14.796 -23.458  0.00  0.00    -0.476 OA
BRANCH   2   3
ATOM      3  C   UNL     1      33.440 -13.763 -24.339  0.00  0.00    +0.134 C 
ATOM      4  C   UNL     1      33.271 -13.963 -25.705  0.00  0.00    +0.012 C 
ATOM      5  C   UNL     1      33.795 -12.512 -23.846  0.00  0.00    +0.032 C 
ATOM      6  C   UNL     1      33.984 -11.449 -24.731  0.00  0.00    -0.019 C 
ATOM      7  C   UNL     1      33.461 -12.900 -26.588  0.00  0.00    -0.002 C 
ATOM      8  C   UNL     1      33.817 -11.643 -26.101  0.00  0.00    -0.004 C 
ATOM      9  C   UNL     1      32.891 -15.303 -26.245  0.00  0.00    +0.034 C 
ATOM     10  C   UNL     1      34.366 -10.104 -24.210  0.00  0.00    +0.031 C 
ENDBRANCH   2   3
ENDBRANCH   1   2
BRANCH   1  11
ATOM     11  C   UNL     1      34.640 -16.675 -22.843  0.00  0.00    +0.048 C 
BRANCH  11  12
ATOM     12  C   UNL     1      34.574 -17.403 -21.497  0.00  0.00    +0.014 C 
BRANCH  12  13
ATOM     13  C   UNL     1      34.717 -18.944 -21.578  0.00  0.00    +0.090 C 
ATOM     14  C   UNL     1      34.805 -19.398 -23.049  0.00  0.00    +0.011 C 
ATOM     15  C   UNL     1      33.474 -19.611 -20.960  0.00  0.00    +0.011 C 
BRANCH  13  17
ATOM     16  O   UNL     1      37.106 -19.052 -21.066  0.00  0.00    -0.250 OA
ATOM     17  C   UNL     1      35.965 -19.431 -20.829  0.00  0.00    +0.313 C 
BRANCH  17  18
ATOM     18  O   UNL     1      35.701 -20.340 -19.856  0.00  0.00    -0.480 OA
ATOM     19  H   UNL     1      34.866 -20.344 -19.432  0.00  0.00    +0.295 HD
ENDBRANCH  17  18
ENDBRANCH  13  17
ENDBRANCH  12  13
ENDBRANCH  11  12
ENDBRANCH   1  11
TORSDOF 7
ENDMDL
