MODEL 1
REMARK VINA RESULT:      -6.3      0.000      0.000
REMARK  Name = 32594
REMARK  3 active torsions:
REMARK  status: ('A' for Active; 'I' for Inactive)
REMARK    1  A    between atoms: C_3  and  C_9
REMARK    2  A    between atoms: C_4  and  O_7
REMARK    3  A    between atoms: C_9  and  C_10
REMARK                            x       y       z     vdW  Elec       q    Type
REMARK                         _______ _______ _______ _____ _____    ______ ____
ROOT
ATOM      1  N   UNL     1      35.149 -18.642 -23.367  0.00  0.00    -0.242 NA
ATOM      2  N   UNL     1      34.780 -15.879 -23.048  0.00  0.00    -0.207 NA
ATOM      3  C   UNL     1      35.189 -18.040 -22.171  0.00  0.00    +0.112 C 
ATOM      4  C   UNL     1      35.011 -16.694 -22.001  0.00  0.00    +0.239 C 
ATOM      5  C   UNL     1      34.917 -17.827 -24.416  0.00  0.00    +0.119 C 
ATOM      6  C   UNL     1      34.735 -16.470 -24.260  0.00  0.00    +0.123 C 
ENDROOT
BRANCH   4   7
ATOM      7  O   UNL     1      35.060 -16.117 -20.762  0.00  0.00    -0.455 OA
ATOM      8  C   UNL     1      34.314 -14.917 -20.582  0.00  0.00    +0.254 C 
ENDBRANCH   4   7
BRANCH   3   9
ATOM      9  C   UNL     1      35.450 -18.936 -20.986  0.00  0.00    +0.051 C 
BRANCH   9  10
ATOM     10  C   UNL     1      34.518 -20.161 -20.915  0.00  0.00    +0.006 C 
ATOM     11  C   UNL     1      34.935 -21.136 -19.812  0.00  0.00    +0.000 C 
ATOM     12  C   UNL     1      33.077 -19.703 -20.680  0.00  0.00    +0.000 C 
ENDBRANCH   9  10
ENDBRANCH   3   9
TORSDOF 3
ENDMDL
MODEL 2
REMARK VINA RESULT:      -6.3      1.628      2.793
REMARK  Name = 32594
REMARK  3 active torsions:
REMARK  status: ('A' for Active; 'I' for Inactive)
REMARK    1  A    between atoms: C_3  and  C_9
REMARK    2  A    between atoms: C_4  and  O_7
REMARK    3  A    between atoms: C_9  and  C_10
REMARK                            x       y       z     vdW  Elec       q    Type
REMARK                         _______ _______ _______ _____ _____    ______ ____
ROOT
ATOM      1  N   UNL     1      34.757 -16.932 -20.679  0.00  0.00    -0.242 NA
ATOM      2  N   UNL     1      34.867 -15.429 -23.045  0.00  0.00    -0.207 NA
ATOM      3  C   UNL     1      34.919 -17.492 -21.885  0.00  0.00    +0.112 C 
ATOM      4  C   UNL     1      34.974 -16.772 -23.047  0.00  0.00    +0.239 C 
ATOM      5  C   UNL     1      34.650 -15.589 -20.676  0.00  0.00    +0.119 C 
ATOM      6  C   UNL     1      34.705 -14.850 -21.837  0.00  0.00    +0.123 C 
ENDROOT
BRANCH   4   7
ATOM      7  O   UNL     1      35.140 -17.381 -24.260  0.00  0.00    -0.455 OA
ATOM      8  C   UNL     1      34.517 -16.761 -25.381  0.00  0.00    +0.254 C 
ENDBRANCH   4   7
BRANCH   3   9
ATOM      9  C   UNL     1      35.038 -18.996 -21.909  0.00  0.00    +0.051 C 
BRANCH   9  10
ATOM     10  C   UNL     1      34.543 -19.680 -20.619  0.00  0.00    +0.006 C 
ATOM     11  C   UNL     1      33.103 -20.180 -20.751  0.00  0.00    +0.000 C 
ATOM     12  C   UNL     1      35.464 -20.851 -20.267  0.00  0.00    +0.000 C 
ENDBRANCH   9  10
ENDBRANCH   3   9
TORSDOF 3
ENDMDL
MODEL 3
REMARK VINA RESULT:      -6.1      3.001      4.470
REMARK  Name = 32594
REMARK  3 active torsions:
REMARK  status: ('A' for Active; 'I' for Inactive)
REMARK    1  A    between atoms: C_3  and  C_9
REMARK    2  A    between atoms: C_4  and  O_7
REMARK    3  A    between atoms: C_9  and  C_10
REMARK                            x       y       z     vdW  Elec       q    Type
REMARK                         _______ _______ _______ _____ _____    ______ ____
ROOT
ATOM      1  N   UNL     1      34.927 -16.830 -22.962  0.00  0.00    -0.242 NA
ATOM      2  N   UNL     1      33.965 -16.680 -25.592  0.00  0.00    -0.207 NA
ATOM      3  C   UNL     1      34.298 -15.749 -23.442  0.00  0.00    +0.112 C 
ATOM      4  C   UNL     1      33.824 -15.661 -24.722  0.00  0.00    +0.239 C 
ATOM      5  C   UNL     1      35.068 -17.849 -23.832  0.00  0.00    +0.119 C 
ATOM      6  C   UNL     1      34.596 -17.776 -25.124  0.00  0.00    +0.123 C 
ENDROOT
BRANCH   4   7
ATOM      7  O   UNL     1      33.186 -14.540 -25.175  0.00  0.00    -0.455 OA
ATOM      8  C   UNL     1      33.031 -14.413 -26.585  0.00  0.00    +0.254 C 
ENDBRANCH   4   7
BRANCH   3   9
ATOM      9  C   UNL     1      34.132 -14.596 -22.482  0.00  0.00    +0.051 C 
BRANCH   9  10
ATOM     10  C   UNL     1      32.762 -14.566 -21.776  0.00  0.00    +0.006 C 
ATOM     11  C   UNL     1      32.853 -15.041 -20.324  0.00  0.00    +0.000 C 
ATOM     12  C   UNL     1      32.189 -13.148 -21.819  0.00  0.00    +0.000 C 
ENDBRANCH   9  10
ENDBRANCH   3   9
TORSDOF 3
ENDMDL
MODEL 4
REMARK VINA RESULT:      -6.1      5.361      7.638
REMARK  Name = 32594
REMARK  3 active torsions:
REMARK  status: ('A' for Active; 'I' for Inactive)
REMARK    1  A    between atoms: C_3  and  C_9
REMARK    2  A    between atoms: C_4  and  O_7
REMARK    3  A    between atoms: C_9  and  C_10
REMARK                            x       y       z     vdW  Elec       q    Type
REMARK                         _______ _______ _______ _____ _____    ______ ____
ROOT
ATOM      1  N   UNL     1      32.060 -22.862 -17.680  0.00  0.00    -0.242 NA
ATOM      2  N   UNL     1      33.788 -23.312 -15.518  0.00  0.00    -0.207 NA
ATOM      3  C   UNL     1      33.393 -22.870 -17.809  0.00  0.00    +0.112 C 
ATOM      4  C   UNL     1      34.248 -23.088 -16.764  0.00  0.00    +0.239 C 
ATOM      5  C   UNL     1      31.599 -23.086 -16.434  0.00  0.00    +0.119 C 
ATOM      6  C   UNL     1      32.448 -23.308 -15.371  0.00  0.00    +0.123 C 
ENDROOT
BRANCH   4   7
ATOM      7  O   UNL     1      35.604 -23.088 -16.936  0.00  0.00    -0.455 OA
ATOM      8  C   UNL     1      36.402 -22.969 -15.762  0.00  0.00    +0.254 C 
ENDBRANCH   4   7
BRANCH   3   9
ATOM      9  C   UNL     1      33.927 -22.619 -19.198  0.00  0.00    +0.051 C 
BRANCH   9  10
ATOM     10  C   UNL     1      34.232 -21.136 -19.489  0.00  0.00    +0.006 C 
ATOM     11  C   UNL     1      35.582 -20.954 -20.187  0.00  0.00    +0.000 C 
ATOM     12  C   UNL     1      33.120 -20.539 -20.354  0.00  0.00    +0.000 C 
ENDBRANCH   9  10
ENDBRANCH   3   9
TORSDOF 3
ENDMDL
MODEL 5
REMARK VINA RESULT:      -6.1      2.702      4.182
REMARK  Name = 32594
REMARK  3 active torsions:
REMARK  status: ('A' for Active; 'I' for Inactive)
REMARK    1  A    between atoms: C_3  and  C_9
REMARK    2  A    between atoms: C_4  and  O_7
REMARK    3  A    between atoms: C_9  and  C_10
REMARK                            x       y       z     vdW  Elec       q    Type
REMARK                         _______ _______ _______ _____ _____    ______ ____
ROOT
ATOM      1  N   UNL     1      33.237 -14.046 -24.316  0.00  0.00    -0.242 NA
ATOM      2  N   UNL     1      33.712 -16.156 -26.102  0.00  0.00    -0.207 NA
ATOM      3  C   UNL     1      34.004 -15.098 -24.004  0.00  0.00    +0.112 C 
ATOM      4  C   UNL     1      34.245 -16.134 -24.864  0.00  0.00    +0.239 C 
ATOM      5  C   UNL     1      32.703 -14.067 -25.553  0.00  0.00    +0.119 C 
ATOM      6  C   UNL     1      32.937 -15.103 -26.431  0.00  0.00    +0.123 C 
ENDROOT
BRANCH   4   7
ATOM      7  O   UNL     1      35.035 -17.192 -24.509  0.00  0.00    -0.455 OA
ATOM      8  C   UNL     1      34.488 -18.494 -24.692  0.00  0.00    +0.254 C 
ENDBRANCH   4   7
BRANCH   3   9
ATOM      9  C   UNL     1      34.609 -15.093 -22.621  0.00  0.00    +0.051 C 
BRANCH   9  10
ATOM     10  C   UNL     1      33.856 -15.979 -21.610  0.00  0.00    +0.006 C 
ATOM     11  C   UNL     1      34.776 -17.010 -20.953  0.00  0.00    +0.000 C 
ATOM     12  C   UNL     1      33.213 -15.102 -20.532  0.00  0.00    +0.000 C 
ENDBRANCH   9  10
ENDBRANCH   3   9
TORSDOF 3
ENDMDL
MODEL 6
REMARK VINA RESULT:      -5.9      1.785      4.114
REMARK  Name = 32594
REMARK  3 active torsions:
REMARK  status: ('A' for Active; 'I' for Inactive)
REMARK    1  A    between atoms: C_3  and  C_9
REMARK    2  A    between atoms: C_4  and  O_7
REMARK    3  A    between atoms: C_9  and  C_10
REMARK                            x       y       z     vdW  Elec       q    Type
REMARK                         _______ _______ _______ _____ _____    ______ ____
ROOT
ATOM      1  N   UNL     1      33.716 -15.150 -24.583  0.00  0.00    -0.242 NA
ATOM      2  N   UNL     1      35.031 -17.559 -24.006  0.00  0.00    -0.207 NA
ATOM      3  C   UNL     1      34.219 -15.428 -23.373  0.00  0.00    +0.112 C 
ATOM      4  C   UNL     1      34.862 -16.598 -23.077  0.00  0.00    +0.239 C 
ATOM      5  C   UNL     1      33.884 -16.112 -25.513  0.00  0.00    +0.119 C 
ATOM      6  C   UNL     1      34.531 -17.295 -25.230  0.00  0.00    +0.123 C 
ENDROOT
BRANCH   4   7
ATOM      7  O   UNL     1      35.363 -16.844 -21.829  0.00  0.00    -0.455 OA
ATOM      8  C   UNL     1      34.983 -18.072 -21.214  0.00  0.00    +0.254 C 
ENDBRANCH   4   7
BRANCH   3   9
ATOM      9  C   UNL     1      34.037 -14.364 -22.318  0.00  0.00    +0.051 C 
BRANCH   9  10
ATOM     10  C   UNL     1      32.642 -14.368 -21.663  0.00  0.00    +0.006 C 
ATOM     11  C   UNL     1      32.678 -14.927 -20.240  0.00  0.00    +0.000 C 
ATOM     12  C   UNL     1      32.075 -12.946 -21.644  0.00  0.00    +0.000 C 
ENDBRANCH   9  10
ENDBRANCH   3   9
TORSDOF 3
ENDMDL
MODEL 7
REMARK VINA RESULT:      -5.9      5.686      8.042
REMARK  Name = 32594
REMARK  3 active torsions:
REMARK  status: ('A' for Active; 'I' for Inactive)
REMARK    1  A    between atoms: C_3  and  C_9
REMARK    2  A    between atoms: C_4  and  O_7
REMARK    3  A    between atoms: C_9  and  C_10
REMARK                            x       y       z     vdW  Elec       q    Type
REMARK                         _______ _______ _______ _____ _____    ______ ____
ROOT
ATOM      1  N   UNL     1      34.792 -23.494 -16.792  0.00  0.00    -0.242 NA
ATOM      2  N   UNL     1      32.434 -23.333 -15.281  0.00  0.00    -0.207 NA
ATOM      3  C   UNL     1      33.613 -23.148 -17.326  0.00  0.00    +0.112 C 
ATOM      4  C   UNL     1      32.456 -23.066 -16.602  0.00  0.00    +0.239 C 
ATOM      5  C   UNL     1      34.772 -23.761 -15.471  0.00  0.00    +0.119 C 
ATOM      6  C   UNL     1      33.614 -23.682 -14.729  0.00  0.00    +0.123 C 
ENDROOT
BRANCH   4   7
ATOM      7  O   UNL     1      31.271 -22.710 -17.183  0.00  0.00    -0.455 OA
ATOM      8  C   UNL     1      30.090 -22.906 -16.411  0.00  0.00    +0.254 C 
ENDBRANCH   4   7
BRANCH   3   9
ATOM      9  C   UNL     1      33.617 -22.847 -18.804  0.00  0.00    +0.051 C 
BRANCH   9  10
ATOM     10  C   UNL     1      34.223 -21.475 -19.159  0.00  0.00    +0.006 C 
ATOM     11  C   UNL     1      35.599 -21.608 -19.815  0.00  0.00    +0.000 C 
ATOM     12  C   UNL     1      33.278 -20.717 -20.093  0.00  0.00    +0.000 C 
ENDBRANCH   9  10
ENDBRANCH   3   9
TORSDOF 3
ENDMDL
MODEL 8
REMARK VINA RESULT:      -5.8      1.917      3.936
REMARK  Name = 32594
REMARK  3 active torsions:
REMARK  status: ('A' for Active; 'I' for Inactive)
REMARK    1  A    between atoms: C_3  and  C_9
REMARK    2  A    between atoms: C_4  and  O_7
REMARK    3  A    between atoms: C_9  and  C_10
REMARK                            x       y       z     vdW  Elec       q    Type
REMARK                         _______ _______ _______ _____ _____    ______ ____
ROOT
ATOM      1  N   UNL     1      35.202 -17.256 -20.735  0.00  0.00    -0.242 NA
ATOM      2  N   UNL     1      35.197 -17.315 -23.540  0.00  0.00    -0.207 NA
ATOM      3  C   UNL     1      34.881 -16.190 -21.481  0.00  0.00    +0.112 C 
ATOM      4  C   UNL     1      34.874 -16.204 -22.849  0.00  0.00    +0.239 C 
ATOM      5  C   UNL     1      35.525 -18.367 -21.426  0.00  0.00    +0.119 C 
ATOM      6  C   UNL     1      35.522 -18.397 -22.803  0.00  0.00    +0.123 C 
ENDROOT
BRANCH   4   7
ATOM      7  O   UNL     1      34.540 -15.095 -23.574  0.00  0.00    -0.455 OA
ATOM      8  C   UNL     1      33.641 -15.285 -24.663  0.00  0.00    +0.254 C 
ENDBRANCH   4   7
BRANCH   3   9
ATOM      9  C   UNL     1      34.518 -14.936 -20.725  0.00  0.00    +0.051 C 
BRANCH   9  10
ATOM     10  C   UNL     1      33.005 -14.767 -20.488  0.00  0.00    +0.006 C 
ATOM     11  C   UNL     1      32.411 -13.647 -21.346  0.00  0.00    +0.000 C 
ATOM     12  C   UNL     1      32.284 -16.083 -20.788  0.00  0.00    +0.000 C 
ENDBRANCH   9  10
ENDBRANCH   3   9
TORSDOF 3
ENDMDL
MODEL 9
REMARK VINA RESULT:      -5.7      2.230      3.002
REMARK  Name = 32594
REMARK  3 active torsions:
REMARK  status: ('A' for Active; 'I' for Inactive)
REMARK    1  A    between atoms: C_3  and  C_9
REMARK    2  A    between atoms: C_4  and  O_7
REMARK    3  A    between atoms: C_9  and  C_10
REMARK                            x       y       z     vdW  Elec       q    Type
REMARK                         _______ _______ _______ _____ _____    ______ ____
ROOT
ATOM      1  N   UNL     1      34.127 -16.240 -25.519  0.00  0.00    -0.242 NA
ATOM      2  N   UNL     1      33.239 -13.887 -24.276  0.00  0.00    -0.207 NA
ATOM      3  C   UNL     1      34.485 -15.899 -24.274  0.00  0.00    +0.112 C 
ATOM      4  C   UNL     1      34.060 -14.756 -23.655  0.00  0.00    +0.239 C 
ATOM      5  C   UNL     1      33.305 -15.371 -26.140  0.00  0.00    +0.119 C 
ATOM      6  C   UNL     1      32.868 -14.216 -25.530  0.00  0.00    +0.123 C 
ENDROOT
BRANCH   4   7
ATOM      7  O   UNL     1      34.449 -14.444 -22.382  0.00  0.00    -0.455 OA
ATOM      8  C   UNL     1      33.434 -14.440 -21.382  0.00  0.00    +0.254 C 
ENDBRANCH   4   7
BRANCH   3   9
ATOM      9  C   UNL     1      35.407 -16.859 -23.563  0.00  0.00    +0.051 C 
BRANCH   9  10
ATOM     10  C   UNL     1      34.678 -17.852 -22.636  0.00  0.00    +0.006 C 
ATOM     11  C   UNL     1      34.759 -19.289 -23.156  0.00  0.00    +0.000 C 
ATOM     12  C   UNL     1      35.274 -17.779 -21.228  0.00  0.00    +0.000 C 
ENDBRANCH   9  10
ENDBRANCH   3   9
TORSDOF 3
ENDMDL
