MODEL 1
REMARK VINA RESULT:      -6.4      0.000      0.000
REMARK  Name = 124434
REMARK  4 active torsions:
REMARK  status: ('A' for Active; 'I' for Inactive)
REMARK    1  A    between atoms: C_2  and  O_11
REMARK    2  A    between atoms: C_4  and  O_13
REMARK    3  A    between atoms: C_7  and  O_15
REMARK    4  A    between atoms: C_8  and  O_17
REMARK                            x       y       z     vdW  Elec       q    Type
REMARK                         _______ _______ _______ _____ _____    ______ ____
ROOT
ATOM      1  N   UNL     1      36.793 -25.918 -12.657  0.00  0.00    +0.406 N 
ATOM      2  C   UNL     1      35.948 -24.718 -12.570  0.00  0.00    +0.076 C 
ATOM      3  C   UNL     1      38.110 -25.373 -13.008  0.00  0.00    -0.028 C 
ATOM      4  C   UNL     1      35.699 -24.163 -13.990  0.00  0.00    +0.146 C 
ATOM      5  C   UNL     1      36.809 -23.801 -11.696  0.00  0.00    +0.007 C 
ATOM      6  C   UNL     1      38.249 -24.219 -12.010  0.00  0.00    -0.018 C 
ATOM      7  C   UNL     1      38.081 -24.914 -14.478  0.00  0.00    +0.121 C 
ATOM      8  C   UNL     1      37.011 -23.841 -14.724  0.00  0.00    +0.162 C 
ATOM      9  H   UNL     1      36.454 -26.551 -13.382  0.00  0.00    -0.081 HD
ATOM     10  H   UNL     1      36.802 -26.467 -11.799  0.00  0.00    -0.081 HD
ENDROOT
BRANCH   2  11
ATOM     11  O   UNL     1      34.708 -24.972 -11.928  0.00  0.00    -0.403 OA
ATOM     12  H   UNL     1      34.047 -25.227 -12.591  0.00  0.00    +0.208 HD
ENDBRANCH   2  11
BRANCH   4  13
ATOM     13  O   UNL     1      34.920 -22.968 -13.898  0.00  0.00    -0.382 OA
ATOM     14  H   UNL     1      34.013 -23.150 -14.190  0.00  0.00    +0.210 HD
ENDBRANCH   4  13
BRANCH   7  15
ATOM     15  O   UNL     1      39.362 -24.428 -14.873  0.00  0.00    -0.384 OA
ATOM     16  H   UNL     1      39.517 -23.561 -14.469  0.00  0.00    +0.210 HD
ENDBRANCH   7  15
BRANCH   8  17
ATOM     17  O   UNL     1      36.737 -23.756 -16.123  0.00  0.00    -0.380 OA
ATOM     18  H   UNL     1      37.398 -24.269 -16.615  0.00  0.00    +0.211 HD
ENDBRANCH   8  17
TORSDOF 4
ENDMDL
MODEL 2
REMARK VINA RESULT:      -6.3      1.521      3.207
REMARK  Name = 124434
REMARK  4 active torsions:
REMARK  status: ('A' for Active; 'I' for Inactive)
REMARK    1  A    between atoms: C_2  and  O_11
REMARK    2  A    between atoms: C_4  and  O_13
REMARK    3  A    between atoms: C_7  and  O_15
REMARK    4  A    between atoms: C_8  and  O_17
REMARK                            x       y       z     vdW  Elec       q    Type
REMARK                         _______ _______ _______ _____ _____    ______ ____
ROOT
ATOM      1  N   UNL     1      37.877 -24.020 -13.652  0.00  0.00    +0.406 N 
ATOM      2  C   UNL     1      36.859 -24.887 -14.263  0.00  0.00    +0.076 C 
ATOM      3  C   UNL     1      37.807 -24.375 -12.230  0.00  0.00    -0.028 C 
ATOM      4  C   UNL     1      35.454 -24.379 -13.873  0.00  0.00    +0.146 C 
ATOM      5  C   UNL     1      37.210 -26.247 -13.653  0.00  0.00    +0.007 C 
ATOM      6  C   UNL     1      37.815 -25.906 -12.288  0.00  0.00    -0.018 C 
ATOM      7  C   UNL     1      36.512 -23.789 -11.636  0.00  0.00    +0.121 C 
ATOM      8  C   UNL     1      35.261 -24.320 -12.349  0.00  0.00    +0.162 C 
ATOM      9  H   UNL     1      37.651 -23.035 -13.795  0.00  0.00    -0.081 HD
ATOM     10  H   UNL     1      38.805 -24.147 -14.052  0.00  0.00    -0.081 HD
ENDROOT
BRANCH   2  11
ATOM     11  O   UNL     1      36.974 -24.947 -15.676  0.00  0.00    -0.403 OA
ATOM     12  H   UNL     1      36.105 -25.142 -16.064  0.00  0.00    +0.208 HD
ENDBRANCH   2  11
BRANCH   4  13
ATOM     13  O   UNL     1      34.466 -25.253 -14.426  0.00  0.00    -0.382 OA
ATOM     14  H   UNL     1      34.009 -25.719 -13.709  0.00  0.00    +0.210 HD
ENDBRANCH   4  13
BRANCH   7  15
ATOM     15  O   UNL     1      36.435 -24.067 -10.239  0.00  0.00    -0.384 OA
ATOM     16  H   UNL     1      37.298 -23.903  -9.830  0.00  0.00    +0.210 HD
ENDBRANCH   7  15
BRANCH   8  17
ATOM     17  O   UNL     1      34.153 -23.464 -12.065  0.00  0.00    -0.380 OA
ATOM     18  H   UNL     1      33.844 -23.624 -11.159  0.00  0.00    +0.211 HD
ENDBRANCH   8  17
TORSDOF 4
ENDMDL
MODEL 3
REMARK VINA RESULT:      -6.3      1.836      3.881
REMARK  Name = 124434
REMARK  4 active torsions:
REMARK  status: ('A' for Active; 'I' for Inactive)
REMARK    1  A    between atoms: C_2  and  O_11
REMARK    2  A    between atoms: C_4  and  O_13
REMARK    3  A    between atoms: C_7  and  O_15
REMARK    4  A    between atoms: C_8  and  O_17
REMARK                            x       y       z     vdW  Elec       q    Type
REMARK                         _______ _______ _______ _____ _____    ______ ____
ROOT
ATOM      1  N   UNL     1      35.829 -25.859 -14.686  0.00  0.00    +0.406 N 
ATOM      2  C   UNL     1      37.106 -25.687 -13.978  0.00  0.00    +0.076 C 
ATOM      3  C   UNL     1      35.134 -24.591 -14.433  0.00  0.00    -0.028 C 
ATOM      4  C   UNL     1      36.858 -25.755 -12.455  0.00  0.00    +0.146 C 
ATOM      5  C   UNL     1      37.543 -24.303 -14.466  0.00  0.00    +0.007 C 
ATOM      6  C   UNL     1      36.229 -23.566 -14.742  0.00  0.00    -0.018 C 
ATOM      7  C   UNL     1      34.666 -24.567 -12.966  0.00  0.00    +0.121 C 
ATOM      8  C   UNL     1      35.840 -24.702 -11.986  0.00  0.00    +0.162 C 
ATOM      9  H   UNL     1      35.303 -26.647 -14.306  0.00  0.00    -0.081 HD
ATOM     10  H   UNL     1      35.944 -26.062 -15.678  0.00  0.00    -0.081 HD
ENDROOT
BRANCH   2  11
ATOM     11  O   UNL     1      38.070 -26.659 -14.352  0.00  0.00    -0.403 OA
ATOM     12  H   UNL     1      38.077 -27.376 -13.698  0.00  0.00    +0.208 HD
ENDBRANCH   2  11
BRANCH   4  13
ATOM     13  O   UNL     1      38.093 -25.536 -11.767  0.00  0.00    -0.382 OA
ATOM     14  H   UNL     1      38.588 -24.830 -12.209  0.00  0.00    +0.210 HD
ENDBRANCH   4  13
BRANCH   7  15
ATOM     15  O   UNL     1      33.938 -23.372 -12.695  0.00  0.00    -0.384 OA
ATOM     16  H   UNL     1      34.516 -22.605 -12.823  0.00  0.00    +0.210 HD
ENDBRANCH   7  15
BRANCH   8  17
ATOM     17  O   UNL     1      35.347 -25.089 -10.703  0.00  0.00    -0.380 OA
ATOM     18  H   UNL     1      34.403 -25.304 -10.770  0.00  0.00    +0.211 HD
ENDBRANCH   8  17
TORSDOF 4
ENDMDL
MODEL 4
REMARK VINA RESULT:      -6.2      0.926      3.274
REMARK  Name = 124434
REMARK  4 active torsions:
REMARK  status: ('A' for Active; 'I' for Inactive)
REMARK    1  A    between atoms: C_2  and  O_11
REMARK    2  A    between atoms: C_4  and  O_13
REMARK    3  A    between atoms: C_7  and  O_15
REMARK    4  A    between atoms: C_8  and  O_17
REMARK                            x       y       z     vdW  Elec       q    Type
REMARK                         _______ _______ _______ _____ _____    ______ ____
ROOT
ATOM      1  N   UNL     1      38.366 -24.523 -13.054  0.00  0.00    +0.406 N 
ATOM      2  C   UNL     1      38.023 -24.627 -14.480  0.00  0.00    +0.076 C 
ATOM      3  C   UNL     1      37.278 -25.255 -12.395  0.00  0.00    -0.028 C 
ATOM      4  C   UNL     1      36.803 -23.729 -14.779  0.00  0.00    +0.146 C 
ATOM      5  C   UNL     1      37.730 -26.124 -14.615  0.00  0.00    +0.007 C 
ATOM      6  C   UNL     1      37.208 -26.535 -13.235  0.00  0.00    -0.018 C 
ATOM      7  C   UNL     1      35.996 -24.405 -12.462  0.00  0.00    +0.121 C 
ATOM      8  C   UNL     1      35.588 -24.093 -13.909  0.00  0.00    +0.162 C 
ATOM      9  H   UNL     1      38.385 -23.548 -12.754  0.00  0.00    -0.081 HD
ATOM     10  H   UNL     1      39.290 -24.894 -12.835  0.00  0.00    -0.081 HD
ENDROOT
BRANCH   2  11
ATOM     11  O   UNL     1      39.104 -24.268 -15.327  0.00  0.00    -0.403 OA
ATOM     12  H   UNL     1      39.916 -24.700 -15.016  0.00  0.00    +0.208 HD
ENDBRANCH   2  11
BRANCH   4  13
ATOM     13  O   UNL     1      36.440 -23.872 -16.155  0.00  0.00    -0.382 OA
ATOM     14  H   UNL     1      35.488 -24.049 -16.221  0.00  0.00    +0.210 HD
ENDBRANCH   4  13
BRANCH   7  15
ATOM     15  O   UNL     1      34.928 -25.060 -11.783  0.00  0.00    -0.384 OA
ATOM     16  H   UNL     1      34.824 -25.957 -12.135  0.00  0.00    +0.210 HD
ENDBRANCH   7  15
BRANCH   8  17
ATOM     17  O   UNL     1      34.678 -22.992 -13.919  0.00  0.00    -0.380 OA
ATOM     18  H   UNL     1      34.979 -22.316 -13.291  0.00  0.00    +0.211 HD
ENDBRANCH   8  17
TORSDOF 4
ENDMDL
MODEL 5
REMARK VINA RESULT:      -6.2      1.843      3.489
REMARK  Name = 124434
REMARK  4 active torsions:
REMARK  status: ('A' for Active; 'I' for Inactive)
REMARK    1  A    between atoms: C_2  and  O_11
REMARK    2  A    between atoms: C_4  and  O_13
REMARK    3  A    between atoms: C_7  and  O_15
REMARK    4  A    between atoms: C_8  and  O_17
REMARK                            x       y       z     vdW  Elec       q    Type
REMARK                         _______ _______ _______ _____ _____    ______ ____
ROOT
ATOM      1  N   UNL     1      37.619 -23.641 -13.959  0.00  0.00    +0.406 N 
ATOM      2  C   UNL     1      38.388 -24.877 -13.750  0.00  0.00    +0.076 C 
ATOM      3  C   UNL     1      36.258 -24.024 -13.565  0.00  0.00    -0.028 C 
ATOM      4  C   UNL     1      38.013 -25.903 -14.841  0.00  0.00    +0.146 C 
ATOM      5  C   UNL     1      37.934 -25.284 -12.345  0.00  0.00    +0.007 C 
ATOM      6  C   UNL     1      36.507 -24.740 -12.234  0.00  0.00    -0.018 C 
ATOM      7  C   UNL     1      35.666 -24.939 -14.653  0.00  0.00    +0.121 C 
ATOM      8  C   UNL     1      36.506 -26.207 -14.859  0.00  0.00    +0.162 C 
ATOM      9  H   UNL     1      37.649 -23.354 -14.938  0.00  0.00    -0.081 HD
ATOM     10  H   UNL     1      37.981 -22.848 -13.431  0.00  0.00    -0.081 HD
ENDROOT
BRANCH   2  11
ATOM     11  O   UNL     1      39.789 -24.653 -13.760  0.00  0.00    -0.403 OA
ATOM     12  H   UNL     1      40.221 -25.280 -13.158  0.00  0.00    +0.208 HD
ENDBRANCH   2  11
BRANCH   4  13
ATOM     13  O   UNL     1      38.724 -27.122 -14.606  0.00  0.00    -0.382 OA
ATOM     14  H   UNL     1      39.429 -26.964 -13.959  0.00  0.00    +0.210 HD
ENDBRANCH   4  13
BRANCH   7  15
ATOM     15  O   UNL     1      34.321 -25.288 -14.332  0.00  0.00    -0.384 OA
ATOM     16  H   UNL     1      33.996 -25.939 -14.972  0.00  0.00    +0.210 HD
ENDBRANCH   7  15
BRANCH   8  17
ATOM     17  O   UNL     1      36.177 -26.797 -16.117  0.00  0.00    -0.380 OA
ATOM     18  H   UNL     1      35.838 -26.113 -16.717  0.00  0.00    +0.211 HD
ENDBRANCH   8  17
TORSDOF 4
ENDMDL
MODEL 6
REMARK VINA RESULT:      -6.1      1.685      1.958
REMARK  Name = 124434
REMARK  4 active torsions:
REMARK  status: ('A' for Active; 'I' for Inactive)
REMARK    1  A    between atoms: C_2  and  O_11
REMARK    2  A    between atoms: C_4  and  O_13
REMARK    3  A    between atoms: C_7  and  O_15
REMARK    4  A    between atoms: C_8  and  O_17
REMARK                            x       y       z     vdW  Elec       q    Type
REMARK                         _______ _______ _______ _____ _____    ______ ____
ROOT
ATOM      1  N   UNL     1      35.631 -25.108 -12.463  0.00  0.00    +0.406 N 
ATOM      2  C   UNL     1      35.346 -24.222 -13.601  0.00  0.00    +0.076 C 
ATOM      3  C   UNL     1      37.058 -25.413 -12.627  0.00  0.00    -0.028 C 
ATOM      4  C   UNL     1      35.351 -25.049 -14.906  0.00  0.00    +0.146 C 
ATOM      5  C   UNL     1      36.502 -23.221 -13.506  0.00  0.00    +0.007 C 
ATOM      6  C   UNL     1      37.648 -24.023 -12.883  0.00  0.00    -0.018 C 
ATOM      7  C   UNL     1      37.225 -26.380 -13.814  0.00  0.00    +0.121 C 
ATOM      8  C   UNL     1      36.684 -25.785 -15.121  0.00  0.00    +0.162 C 
ATOM      9  H   UNL     1      35.067 -25.958 -12.511  0.00  0.00    -0.081 HD
ATOM     10  H   UNL     1      35.412 -24.687 -11.561  0.00  0.00    -0.081 HD
ENDROOT
BRANCH   2  11
ATOM     11  O   UNL     1      34.107 -23.544 -13.466  0.00  0.00    -0.403 OA
ATOM     12  H   UNL     1      34.270 -22.607 -13.275  0.00  0.00    +0.208 HD
ENDBRANCH   2  11
BRANCH   4  13
ATOM     13  O   UNL     1      35.125 -24.177 -16.017  0.00  0.00    -0.382 OA
ATOM     14  H   UNL     1      35.676 -24.456 -16.764  0.00  0.00    +0.210 HD
ENDBRANCH   4  13
BRANCH   7  15
ATOM     15  O   UNL     1      38.594 -26.744 -13.970  0.00  0.00    -0.384 OA
ATOM     16  H   UNL     1      39.158 -26.014 -13.674  0.00  0.00    +0.210 HD
ENDBRANCH   7  15
BRANCH   8  17
ATOM     17  O   UNL     1      36.475 -26.831 -16.070  0.00  0.00    -0.380 OA
ATOM     18  H   UNL     1      36.601 -27.691 -15.637  0.00  0.00    +0.211 HD
ENDBRANCH   8  17
TORSDOF 4
ENDMDL
MODEL 7
REMARK VINA RESULT:      -6.1      2.054      3.218
REMARK  Name = 124434
REMARK  4 active torsions:
REMARK  status: ('A' for Active; 'I' for Inactive)
REMARK    1  A    between atoms: C_2  and  O_11
REMARK    2  A    between atoms: C_4  and  O_13
REMARK    3  A    between atoms: C_7  and  O_15
REMARK    4  A    between atoms: C_8  and  O_17
REMARK                            x       y       z     vdW  Elec       q    Type
REMARK                         _______ _______ _______ _____ _____    ______ ____
ROOT
ATOM      1  N   UNL     1      35.742 -25.187 -13.281  0.00  0.00    +0.406 N 
ATOM      2  C   UNL     1      36.332 -25.449 -14.602  0.00  0.00    +0.076 C 
ATOM      3  C   UNL     1      36.557 -24.080 -12.766  0.00  0.00    -0.028 C 
ATOM      4  C   UNL     1      37.711 -26.121 -14.422  0.00  0.00    +0.146 C 
ATOM      5  C   UNL     1      36.411 -24.035 -15.187  0.00  0.00    +0.007 C 
ATOM      6  C   UNL     1      36.589 -23.129 -13.965  0.00  0.00    -0.018 C 
ATOM      7  C   UNL     1      37.944 -24.625 -12.376  0.00  0.00    +0.121 C 
ATOM      8  C   UNL     1      38.665 -25.267 -13.570  0.00  0.00    +0.162 C 
ATOM      9  H   UNL     1      35.817 -26.008 -12.679  0.00  0.00    -0.081 HD
ATOM     10  H   UNL     1      34.748 -24.968 -13.321  0.00  0.00    -0.081 HD
ENDROOT
BRANCH   2  11
ATOM     11  O   UNL     1      35.503 -26.263 -15.416  0.00  0.00    -0.403 OA
ATOM     12  H   UNL     1      34.702 -25.771 -15.656  0.00  0.00    +0.208 HD
ENDBRANCH   2  11
BRANCH   4  13
ATOM     13  O   UNL     1      38.305 -26.328 -15.706  0.00  0.00    -0.382 OA
ATOM     14  H   UNL     1      39.162 -26.770 -15.598  0.00  0.00    +0.210 HD
ENDBRANCH   4  13
BRANCH   7  15
ATOM     15  O   UNL     1      38.747 -23.588 -11.819  0.00  0.00    -0.384 OA
ATOM     16  H   UNL     1      38.438 -22.729 -12.144  0.00  0.00    +0.210 HD
ENDBRANCH   7  15
BRANCH   8  17
ATOM     17  O   UNL     1      39.719 -26.105 -13.093  0.00  0.00    -0.380 OA
ATOM     18  H   UNL     1      39.952 -25.849 -12.187  0.00  0.00    +0.211 HD
ENDBRANCH   8  17
TORSDOF 4
ENDMDL
MODEL 8
REMARK VINA RESULT:      -6.1      1.371      2.360
REMARK  Name = 124434
REMARK  4 active torsions:
REMARK  status: ('A' for Active; 'I' for Inactive)
REMARK    1  A    between atoms: C_2  and  O_11
REMARK    2  A    between atoms: C_4  and  O_13
REMARK    3  A    between atoms: C_7  and  O_15
REMARK    4  A    between atoms: C_8  and  O_17
REMARK                            x       y       z     vdW  Elec       q    Type
REMARK                         _______ _______ _______ _____ _____    ______ ____
ROOT
ATOM      1  N   UNL     1      36.852 -26.542 -14.056  0.00  0.00    +0.406 N 
ATOM      2  C   UNL     1      37.103 -25.827 -12.797  0.00  0.00    +0.076 C 
ATOM      3  C   UNL     1      37.349 -25.609 -15.074  0.00  0.00    -0.028 C 
ATOM      4  C   UNL     1      36.110 -24.651 -12.669  0.00  0.00    +0.146 C 
ATOM      5  C   UNL     1      38.557 -25.382 -12.983  0.00  0.00    +0.007 C 
ATOM      6  C   UNL     1      38.711 -25.211 -14.497  0.00  0.00    -0.018 C 
ATOM      7  C   UNL     1      36.363 -24.432 -15.192  0.00  0.00    +0.121 C 
ATOM      8  C   UNL     1      36.200 -23.684 -13.861  0.00  0.00    +0.162 C 
ATOM      9  H   UNL     1      35.855 -26.723 -14.181  0.00  0.00    -0.081 HD
ATOM     10  H   UNL     1      37.301 -27.456 -14.096  0.00  0.00    -0.081 HD
ENDROOT
BRANCH   2  11
ATOM     11  O   UNL     1      36.997 -26.671 -11.661  0.00  0.00    -0.403 OA
ATOM     12  H   UNL     1      37.881 -26.977 -11.401  0.00  0.00    +0.208 HD
ENDBRANCH   2  11
BRANCH   4  13
ATOM     13  O   UNL     1      36.389 -23.926 -11.469  0.00  0.00    -0.382 OA
ATOM     14  H   UNL     1      37.281 -24.148 -11.158  0.00  0.00    +0.210 HD
ENDBRANCH   4  13
BRANCH   7  15
ATOM     15  O   UNL     1      36.785 -23.530 -16.212  0.00  0.00    -0.384 OA
ATOM     16  H   UNL     1      37.314 -24.009 -16.868  0.00  0.00    +0.210 HD
ENDBRANCH   7  15
BRANCH   8  17
ATOM     17  O   UNL     1      35.007 -22.900 -13.900  0.00  0.00    -0.380 OA
ATOM     18  H   UNL     1      34.840 -22.608 -14.810  0.00  0.00    +0.211 HD
ENDBRANCH   8  17
TORSDOF 4
ENDMDL
MODEL 9
REMARK VINA RESULT:      -6.0      1.655      3.717
REMARK  Name = 124434
REMARK  4 active torsions:
REMARK  status: ('A' for Active; 'I' for Inactive)
REMARK    1  A    between atoms: C_2  and  O_11
REMARK    2  A    between atoms: C_4  and  O_13
REMARK    3  A    between atoms: C_7  and  O_15
REMARK    4  A    between atoms: C_8  and  O_17
REMARK                            x       y       z     vdW  Elec       q    Type
REMARK                         _______ _______ _______ _____ _____    ______ ____
ROOT
ATOM      1  N   UNL     1      36.822 -26.479 -13.149  0.00  0.00    +0.406 N 
ATOM      2  C   UNL     1      37.912 -26.040 -14.033  0.00  0.00    +0.076 C 
ATOM      3  C   UNL     1      36.003 -25.270 -13.003  0.00  0.00    -0.028 C 
ATOM      4  C   UNL     1      38.858 -25.102 -13.251  0.00  0.00    +0.146 C 
ATOM      5  C   UNL     1      37.135 -25.334 -15.148  0.00  0.00    +0.007 C 
ATOM      6  C   UNL     1      35.878 -24.798 -14.455  0.00  0.00    -0.018 C 
ATOM      7  C   UNL     1      36.748 -24.274 -12.095  0.00  0.00    +0.121 C 
ATOM      8  C   UNL     1      38.118 -23.887 -12.668  0.00  0.00    +0.162 C 
ATOM      9  H   UNL     1      37.186 -26.786 -12.246  0.00  0.00    -0.081 HD
ATOM     10  H   UNL     1      36.301 -27.274 -13.518  0.00  0.00    -0.081 HD
ENDROOT
BRANCH   2  11
ATOM     11  O   UNL     1      38.648 -27.127 -14.570  0.00  0.00    -0.403 OA
ATOM     12  H   UNL     1      38.946 -27.704 -13.849  0.00  0.00    +0.208 HD
ENDBRANCH   2  11
BRANCH   4  13
ATOM     13  O   UNL     1      39.888 -24.636 -14.126  0.00  0.00    -0.382 OA
ATOM     14  H   UNL     1      40.709 -24.515 -13.623  0.00  0.00    +0.210 HD
ENDBRANCH   4  13
BRANCH   7  15
ATOM     15  O   UNL     1      35.958 -23.106 -11.884  0.00  0.00    -0.384 OA
ATOM     16  H   UNL     1      36.151 -22.739 -11.008  0.00  0.00    +0.210 HD
ENDBRANCH   7  15
BRANCH   8  17
ATOM     17  O   UNL     1      38.924 -23.320 -11.633  0.00  0.00    -0.380 OA
ATOM     18  H   UNL     1      39.159 -22.409 -11.868  0.00  0.00    +0.211 HD
ENDBRANCH   8  17
TORSDOF 4
ENDMDL
