MODEL 1
REMARK VINA RESULT:      -4.4      0.000      0.000
REMARK  Name = 3657
REMARK  1 active torsions:
REMARK  status: ('A' for Active; 'I' for Inactive)
REMARK    1  A    between atoms: N_2  and  O_8
REMARK                            x       y       z     vdW  Elec       q    Type
REMARK                         _______ _______ _______ _____ _____    ______ ____
ROOT
ATOM      1  O   UNL     1      38.529 -26.979 -14.638  0.00  0.00    -0.251 OA
ATOM      2  N   UNL     1      36.314 -27.014 -15.297  0.00  0.00    -0.181 N 
ATOM      3  N   UNL     1      36.871 -26.391 -13.166  0.00  0.00    -0.312 N 
ATOM      4  C   UNL     1      37.335 -26.809 -14.398  0.00  0.00    +0.320 C 
ATOM      5  H   UNL     1      35.370 -26.863 -15.060  0.00  0.00    +0.184 HD
ATOM      6  H   UNL     1      37.506 -26.210 -12.436  0.00  0.00    +0.147 HD
ATOM      7  H   UNL     1      35.905 -26.274 -13.017  0.00  0.00    +0.147 HD
ENDROOT
BRANCH   2   8
ATOM      8  O   UNL     1      36.700 -27.452 -16.572  0.00  0.00    -0.294 OA
ATOM      9  H   UNL     1      37.165 -26.736 -17.032  0.00  0.00    +0.241 HD
ENDBRANCH   2   8
TORSDOF 1
ENDMDL
MODEL 2
REMARK VINA RESULT:      -3.9      1.714      1.864
REMARK  Name = 3657
REMARK  1 active torsions:
REMARK  status: ('A' for Active; 'I' for Inactive)
REMARK    1  A    between atoms: N_2  and  O_8
REMARK                            x       y       z     vdW  Elec       q    Type
REMARK                         _______ _______ _______ _____ _____    ______ ____
ROOT
ATOM      1  O   UNL     1      36.334 -24.697 -15.698  0.00  0.00    -0.251 OA
ATOM      2  N   UNL     1      36.252 -26.931 -15.110  0.00  0.00    -0.181 N 
ATOM      3  N   UNL     1      35.645 -25.321 -13.600  0.00  0.00    -0.312 N 
ATOM      4  C   UNL     1      36.097 -25.584 -14.879  0.00  0.00    +0.320 C 
ATOM      5  H   UNL     1      36.049 -27.606 -14.423  0.00  0.00    +0.184 HD
ATOM      6  H   UNL     1      35.494 -24.391 -13.312  0.00  0.00    +0.147 HD
ATOM      7  H   UNL     1      35.475 -26.063 -12.976  0.00  0.00    +0.147 HD
ENDROOT
BRANCH   2   8
ATOM      8  O   UNL     1      36.719 -27.283 -16.384  0.00  0.00    -0.294 OA
ATOM      9  H   UNL     1      36.044 -27.806 -16.843  0.00  0.00    +0.241 HD
ENDBRANCH   2   8
TORSDOF 1
ENDMDL
MODEL 3
REMARK VINA RESULT:      -3.9      2.329      2.738
REMARK  Name = 3657
REMARK  1 active torsions:
REMARK  status: ('A' for Active; 'I' for Inactive)
REMARK    1  A    between atoms: N_2  and  O_8
REMARK                            x       y       z     vdW  Elec       q    Type
REMARK                         _______ _______ _______ _____ _____    ______ ____
ROOT
ATOM      1  O   UNL     1      38.413 -26.992 -14.637  0.00  0.00    -0.251 OA
ATOM      2  N   UNL     1      39.599 -25.142 -15.355  0.00  0.00    -0.181 N 
ATOM      3  N   UNL     1      37.767 -24.882 -14.008  0.00  0.00    -0.312 N 
ATOM      4  C   UNL     1      38.589 -25.775 -14.668  0.00  0.00    +0.320 C 
ATOM      5  H   UNL     1      39.701 -24.163 -15.350  0.00  0.00    +0.184 HD
ATOM      6  H   UNL     1      37.005 -25.213 -13.478  0.00  0.00    +0.147 HD
ATOM      7  H   UNL     1      37.942 -23.916 -14.066  0.00  0.00    +0.147 HD
ENDROOT
BRANCH   2   8
ATOM      8  O   UNL     1      40.474 -25.978 -16.064  0.00  0.00    -0.294 OA
ATOM      9  H   UNL     1      39.961 -26.588 -16.617  0.00  0.00    +0.241 HD
ENDBRANCH   2   8
TORSDOF 1
ENDMDL
MODEL 4
REMARK VINA RESULT:      -3.9     13.164     13.577
REMARK  Name = 3657
REMARK  1 active torsions:
REMARK  status: ('A' for Active; 'I' for Inactive)
REMARK    1  A    between atoms: N_2  and  O_8
REMARK                            x       y       z     vdW  Elec       q    Type
REMARK                         _______ _______ _______ _____ _____    ______ ____
ROOT
ATOM      1  O   UNL     1      40.870 -15.549 -14.723  0.00  0.00    -0.251 OA
ATOM      2  N   UNL     1      41.024 -13.258 -14.461  0.00  0.00    -0.181 N 
ATOM      3  N   UNL     1      41.229 -14.194 -16.540  0.00  0.00    -0.312 N 
ATOM      4  C   UNL     1      41.024 -14.423 -15.193  0.00  0.00    +0.320 C 
ATOM      5  H   UNL     1      41.151 -12.376 -14.881  0.00  0.00    +0.184 HD
ATOM      6  H   UNL     1      41.249 -14.950 -17.170  0.00  0.00    +0.147 HD
ATOM      7  H   UNL     1      41.354 -13.275 -16.870  0.00  0.00    +0.147 HD
ENDROOT
BRANCH   2   8
ATOM      8  O   UNL     1      40.834 -13.403 -13.080  0.00  0.00    -0.294 OA
ATOM      9  H   UNL     1      39.890 -13.527 -12.895  0.00  0.00    +0.241 HD
ENDBRANCH   2   8
TORSDOF 1
ENDMDL
MODEL 5
REMARK VINA RESULT:      -3.9      3.719      4.218
REMARK  Name = 3657
REMARK  1 active torsions:
REMARK  status: ('A' for Active; 'I' for Inactive)
REMARK    1  A    between atoms: N_2  and  O_8
REMARK                            x       y       z     vdW  Elec       q    Type
REMARK                         _______ _______ _______ _____ _____    ______ ____
ROOT
ATOM      1  O   UNL     1      35.322 -24.996 -10.547  0.00  0.00    -0.251 OA
ATOM      2  N   UNL     1      36.312 -25.415 -12.593  0.00  0.00    -0.181 N 
ATOM      3  N   UNL     1      35.014 -23.553 -12.303  0.00  0.00    -0.312 N 
ATOM      4  C   UNL     1      35.540 -24.687 -11.717  0.00  0.00    +0.320 C 
ATOM      5  H   UNL     1      36.460 -25.128 -13.523  0.00  0.00    +0.184 HD
ATOM      6  H   UNL     1      34.442 -22.946 -11.778  0.00  0.00    +0.147 HD
ATOM      7  H   UNL     1      35.210 -23.349 -13.246  0.00  0.00    +0.147 HD
ENDROOT
BRANCH   2   8
ATOM      8  O   UNL     1      36.876 -26.591 -12.079  0.00  0.00    -0.294 OA
ATOM      9  H   UNL     1      37.828 -26.463 -11.946  0.00  0.00    +0.241 HD
ENDBRANCH   2   8
TORSDOF 1
ENDMDL
MODEL 6
REMARK VINA RESULT:      -3.8     10.137     10.674
REMARK  Name = 3657
REMARK  1 active torsions:
REMARK  status: ('A' for Active; 'I' for Inactive)
REMARK    1  A    between atoms: N_2  and  O_8
REMARK                            x       y       z     vdW  Elec       q    Type
REMARK                         _______ _______ _______ _____ _____    ______ ____
ROOT
ATOM      1  O   UNL     1      27.506 -23.634 -17.653  0.00  0.00    -0.251 OA
ATOM      2  N   UNL     1      27.532 -22.166 -15.868  0.00  0.00    -0.181 N 
ATOM      3  N   UNL     1      29.489 -22.769 -16.890  0.00  0.00    -0.312 N 
ATOM      4  C   UNL     1      28.116 -22.911 -16.866  0.00  0.00    +0.320 C 
ATOM      5  H   UNL     1      28.062 -21.600 -15.260  0.00  0.00    +0.184 HD
ATOM      6  H   UNL     1      30.023 -23.253 -17.562  0.00  0.00    +0.147 HD
ATOM      7  H   UNL     1      29.936 -22.184 -16.236  0.00  0.00    +0.147 HD
ENDROOT
BRANCH   2   8
ATOM      8  O   UNL     1      26.137 -22.263 -15.767  0.00  0.00    -0.294 OA
ATOM      9  H   UNL     1      25.868 -22.109 -14.848  0.00  0.00    +0.241 HD
ENDBRANCH   2   8
TORSDOF 1
ENDMDL
MODEL 7
REMARK VINA RESULT:      -3.8      1.645      2.300
REMARK  Name = 3657
REMARK  1 active torsions:
REMARK  status: ('A' for Active; 'I' for Inactive)
REMARK    1  A    between atoms: N_2  and  O_8
REMARK                            x       y       z     vdW  Elec       q    Type
REMARK                         _______ _______ _______ _____ _____    ______ ____
ROOT
ATOM      1  O   UNL     1      38.390 -27.009 -14.650  0.00  0.00    -0.251 OA
ATOM      2  N   UNL     1      37.532 -24.958 -15.287  0.00  0.00    -0.181 N 
ATOM      3  N   UNL     1      36.153 -26.776 -15.104  0.00  0.00    -0.312 N 
ATOM      4  C   UNL     1      37.443 -26.298 -14.984  0.00  0.00    +0.320 C 
ATOM      5  H   UNL     1      36.745 -24.428 -15.550  0.00  0.00    +0.184 HD
ATOM      6  H   UNL     1      35.958 -27.723 -14.913  0.00  0.00    +0.147 HD
ATOM      7  H   UNL     1      35.427 -26.172 -15.381  0.00  0.00    +0.147 HD
ENDROOT
BRANCH   2   8
ATOM      8  O   UNL     1      38.813 -24.396 -15.201  0.00  0.00    -0.294 OA
ATOM      9  H   UNL     1      39.437 -24.930 -15.717  0.00  0.00    +0.241 HD
ENDBRANCH   2   8
TORSDOF 1
ENDMDL
MODEL 8
REMARK VINA RESULT:      -3.7      4.923      4.923
REMARK  Name = 3657
REMARK  1 active torsions:
REMARK  status: ('A' for Active; 'I' for Inactive)
REMARK    1  A    between atoms: N_2  and  O_8
REMARK                            x       y       z     vdW  Elec       q    Type
REMARK                         _______ _______ _______ _____ _____    ______ ____
ROOT
ATOM      1  O   UNL     1      35.335 -24.961 -10.554  0.00  0.00    -0.251 OA
ATOM      2  N   UNL     1      35.319 -23.455 -12.307  0.00  0.00    -0.181 N 
ATOM      3  N   UNL     1      37.253 -23.850 -11.147  0.00  0.00    -0.312 N 
ATOM      4  C   UNL     1      35.913 -24.156 -11.283  0.00  0.00    +0.320 C 
ATOM      5  H   UNL     1      35.823 -22.819 -12.866  0.00  0.00    +0.184 HD
ATOM      6  H   UNL     1      37.790 -24.289 -10.448  0.00  0.00    +0.147 HD
ATOM      7  H   UNL     1      37.672 -23.194 -11.750  0.00  0.00    +0.147 HD
ENDROOT
BRANCH   2   8
ATOM      8  O   UNL     1      33.953 -23.699 -12.504  0.00  0.00    -0.294 OA
ATOM      9  H   UNL     1      33.619 -23.118 -13.205  0.00  0.00    +0.241 HD
ENDBRANCH   2   8
TORSDOF 1
ENDMDL
MODEL 9
REMARK VINA RESULT:      -3.7     12.552     12.834
REMARK  Name = 3657
REMARK  1 active torsions:
REMARK  status: ('A' for Active; 'I' for Inactive)
REMARK    1  A    between atoms: N_2  and  O_8
REMARK                            x       y       z     vdW  Elec       q    Type
REMARK                         _______ _______ _______ _____ _____    ______ ____
ROOT
ATOM      1  O   UNL     1      40.987 -14.835 -17.190  0.00  0.00    -0.251 OA
ATOM      2  N   UNL     1      40.582 -15.161 -14.938  0.00  0.00    -0.181 N 
ATOM      3  N   UNL     1      41.783 -13.343 -15.640  0.00  0.00    -0.312 N 
ATOM      4  C   UNL     1      41.100 -14.482 -16.017  0.00  0.00    +0.320 C 
ATOM      5  H   UNL     1      40.697 -14.839 -14.014  0.00  0.00    +0.184 HD
ATOM      6  H   UNL     1      42.200 -12.769 -16.324  0.00  0.00    +0.147 HD
ATOM      7  H   UNL     1      41.853 -13.103 -14.688  0.00  0.00    +0.147 HD
ENDROOT
BRANCH   2   8
ATOM      8  O   UNL     1      39.882 -16.338 -15.234  0.00  0.00    -0.294 OA
ATOM      9  H   UNL     1      39.274 -16.177 -15.972  0.00  0.00    +0.241 HD
ENDBRANCH   2   8
TORSDOF 1
ENDMDL
