MODEL 1
REMARK VINA RESULT:      -7.6      0.000      0.000
REMARK  Name = 7000165
REMARK  5 active torsions:
REMARK  status: ('A' for Active; 'I' for Inactive)
REMARK    1  A    between atoms: C_1  and  C_4
REMARK    2  A    between atoms: C_1  and  CA_12
REMARK    3  A    between atoms: CA_12  and  N_13
REMARK    4  A    between atoms: CA_12  and  C_18
REMARK    5  A    between atoms: C_18  and  O_19
REMARK                            x       y       z     vdW  Elec       q    Type
REMARK                         _______ _______ _______ _____ _____    ______ ____
ROOT
ATOM      1  C   UNL     1      34.842 -18.199 -22.217  0.00  0.00    +0.017 C 
ENDROOT
BRANCH   1   4
ATOM      2  N   UNL     1      32.694 -20.477 -20.328  0.00  0.00    -0.297 N 
ATOM      3  N   UNL     1      34.105 -21.908 -18.999  0.00  0.00    -0.229 NA
ATOM      4  C   UNL     1      34.220 -19.221 -21.352  0.00  0.00    -0.006 C 
ATOM      5  C   UNL     1      34.895 -20.143 -20.508  0.00  0.00    +0.029 C 
ATOM      6  C   UNL     1      33.916 -20.911 -19.884  0.00  0.00    +0.132 C 
ATOM      7  C   UNL     1      32.867 -19.451 -21.221  0.00  0.00    +0.059 C 
ATOM      8  C   UNL     1      36.235 -20.424 -20.192  0.00  0.00    +0.004 C 
ATOM      9  C   UNL     1      36.488 -21.446 -19.281  0.00  0.00    +0.021 C 
ATOM     10  C   UNL     1      35.413 -22.133 -18.733  0.00  0.00    +0.100 C 
ATOM     11  H   UNL     1      31.825 -20.846 -20.049  0.00  0.00    +0.154 HD
ENDBRANCH   1   4
BRANCH   1  12
ATOM     12  CA  UNL     1      34.432 -18.298 -23.708  0.00  0.00    +0.040 C 
BRANCH  12  13
ATOM     13  N   UNL     1      34.967 -19.513 -24.318  0.00  0.00    +0.389 N 
ATOM     14  H1  UNL     1      34.648 -19.577 -25.285  0.00  0.00    -0.088 HD
ATOM     15  H2  UNL     1      34.639 -20.327 -23.797  0.00  0.00    -0.088 HD
ATOM     16  H3  UNL     1      35.986 -19.484 -24.298  0.00  0.00    -0.088 HD
ENDBRANCH  12  13
BRANCH  12  18
ATOM     17  OXT UNL     1      34.786 -16.967 -25.717  0.00  0.00    -0.253 OA
ATOM     18  C   UNL     1      34.972 -17.131 -24.518  0.00  0.00    +0.293 C 
BRANCH  18  19
ATOM     19  O   UNL     1      35.668 -16.250 -23.754  0.00  0.00    -0.482 OA
ATOM     20  H   UNL     1      35.542 -15.328 -23.868  0.00  0.00    +0.295 HD
ENDBRANCH  18  19
ENDBRANCH  12  18
ENDBRANCH   1  12
TORSDOF 5
ENDMDL
MODEL 2
REMARK VINA RESULT:      -7.6      1.730      2.400
REMARK  Name = 7000165
REMARK  5 active torsions:
REMARK  status: ('A' for Active; 'I' for Inactive)
REMARK    1  A    between atoms: C_1  and  C_4
REMARK    2  A    between atoms: C_1  and  CA_12
REMARK    3  A    between atoms: CA_12  and  N_13
REMARK    4  A    between atoms: CA_12  and  C_18
REMARK    5  A    between atoms: C_18  and  O_19
REMARK                            x       y       z     vdW  Elec       q    Type
REMARK                         _______ _______ _______ _____ _____    ______ ____
ROOT
ATOM      1  C   UNL     1      34.489 -18.007 -22.182  0.00  0.00    +0.017 C 
ENDROOT
BRANCH   1   4
ATOM      2  N   UNL     1      36.831 -20.014 -20.218  0.00  0.00    -0.297 N 
ATOM      3  N   UNL     1      35.573 -21.713 -19.062  0.00  0.00    -0.229 NA
ATOM      4  C   UNL     1      35.203 -18.961 -21.310  0.00  0.00    -0.006 C 
ATOM      5  C   UNL     1      34.623 -20.018 -20.559  0.00  0.00    +0.029 C 
ATOM      6  C   UNL     1      35.665 -20.655 -19.890  0.00  0.00    +0.132 C 
ATOM      7  C   UNL     1      36.561 -18.982 -21.080  0.00  0.00    +0.059 C 
ATOM      8  C   UNL     1      33.327 -20.521 -20.362  0.00  0.00    +0.004 C 
ATOM      9  C   UNL     1      33.175 -21.615 -19.514  0.00  0.00    +0.021 C 
ATOM     10  C   UNL     1      34.303 -22.153 -18.910  0.00  0.00    +0.100 C 
ATOM     11  H   UNL     1      37.725 -20.257 -19.886  0.00  0.00    +0.154 HD
ENDBRANCH   1   4
BRANCH   1  12
ATOM     12  CA  UNL     1      35.271 -17.613 -23.461  0.00  0.00    +0.040 C 
BRANCH  12  13
ATOM     13  N   UNL     1      35.326 -16.161 -23.615  0.00  0.00    +0.389 N 
ATOM     14  H1  UNL     1      34.753 -15.721 -22.894  0.00  0.00    -0.088 HD
ATOM     15  H2  UNL     1      34.969 -15.903 -24.536  0.00  0.00    -0.088 HD
ATOM     16  H3  UNL     1      36.291 -15.844 -23.523  0.00  0.00    -0.088 HD
ENDBRANCH  12  13
BRANCH  12  18
ATOM     17  OXT UNL     1      34.132 -17.470 -25.609  0.00  0.00    -0.253 OA
ATOM     18  C   UNL     1      34.609 -18.158 -24.715  0.00  0.00    +0.293 C 
BRANCH  18  19
ATOM     19  O   UNL     1      34.628 -19.515 -24.762  0.00  0.00    -0.482 OA
ATOM     20  H   UNL     1      33.826 -19.993 -24.838  0.00  0.00    +0.295 HD
ENDBRANCH  18  19
ENDBRANCH  12  18
ENDBRANCH   1  12
TORSDOF 5
ENDMDL
MODEL 3
REMARK VINA RESULT:      -7.5      1.521      1.931
REMARK  Name = 7000165
REMARK  5 active torsions:
REMARK  status: ('A' for Active; 'I' for Inactive)
REMARK    1  A    between atoms: C_1  and  C_4
REMARK    2  A    between atoms: C_1  and  CA_12
REMARK    3  A    between atoms: CA_12  and  N_13
REMARK    4  A    between atoms: CA_12  and  C_18
REMARK    5  A    between atoms: C_18  and  O_19
REMARK                            x       y       z     vdW  Elec       q    Type
REMARK                         _______ _______ _______ _____ _____    ______ ____
ROOT
ATOM      1  C   UNL     1      35.428 -18.553 -21.704  0.00  0.00    +0.017 C 
ENDROOT
BRANCH   1   4
ATOM      2  N   UNL     1      32.451 -20.334 -20.550  0.00  0.00    -0.297 N 
ATOM      3  N   UNL     1      33.154 -22.049 -19.011  0.00  0.00    -0.229 NA
ATOM      4  C   UNL     1      34.410 -19.426 -21.087  0.00  0.00    -0.006 C 
ATOM      5  C   UNL     1      34.646 -20.480 -20.164  0.00  0.00    +0.029 C 
ATOM      6  C   UNL     1      33.404 -21.026 -19.850  0.00  0.00    +0.132 C 
ATOM      7  C   UNL     1      33.051 -19.360 -21.306  0.00  0.00    +0.059 C 
ATOM      8  C   UNL     1      35.774 -21.047 -19.549  0.00  0.00    +0.004 C 
ATOM      9  C   UNL     1      35.573 -22.110 -18.672  0.00  0.00    +0.021 C 
ATOM     10  C   UNL     1      34.277 -22.555 -18.449  0.00  0.00    +0.100 C 
ATOM     11  H   UNL     1      31.483 -20.509 -20.516  0.00  0.00    +0.154 HD
ENDBRANCH   1   4
BRANCH   1  12
ATOM     12  CA  UNL     1      34.839 -17.376 -22.523  0.00  0.00    +0.040 C 
BRANCH  12  13
ATOM     13  N   UNL     1      35.606 -17.155 -23.747  0.00  0.00    +0.389 N 
ATOM     14  H1  UNL     1      35.136 -17.610 -24.530  0.00  0.00    -0.088 HD
ATOM     15  H2  UNL     1      36.542 -17.547 -23.637  0.00  0.00    -0.088 HD
ATOM     16  H3  UNL     1      35.677 -16.154 -23.929  0.00  0.00    -0.088 HD
ENDBRANCH  12  13
BRANCH  12  18
ATOM     17  OXT UNL     1      34.944 -15.990 -20.523  0.00  0.00    -0.253 OA
ATOM     18  C   UNL     1      34.878 -16.073 -21.743  0.00  0.00    +0.293 C 
BRANCH  18  19
ATOM     19  O   UNL     1      34.867 -14.985 -22.555  0.00  0.00    -0.482 OA
ATOM     20  H   UNL     1      35.595 -14.394 -22.558  0.00  0.00    +0.295 HD
ENDBRANCH  18  19
ENDBRANCH  12  18
ENDBRANCH   1  12
TORSDOF 5
ENDMDL
MODEL 4
REMARK VINA RESULT:      -7.5      1.950      2.713
REMARK  Name = 7000165
REMARK  5 active torsions:
REMARK  status: ('A' for Active; 'I' for Inactive)
REMARK    1  A    between atoms: C_1  and  C_4
REMARK    2  A    between atoms: C_1  and  CA_12
REMARK    3  A    between atoms: CA_12  and  N_13
REMARK    4  A    between atoms: CA_12  and  C_18
REMARK    5  A    between atoms: C_18  and  O_19
REMARK                            x       y       z     vdW  Elec       q    Type
REMARK                         _______ _______ _______ _____ _____    ______ ____
ROOT
ATOM      1  C   UNL     1      34.318 -18.029 -22.013  0.00  0.00    +0.017 C 
ENDROOT
BRANCH   1   4
ATOM      2  N   UNL     1      36.828 -20.002 -20.230  0.00  0.00    -0.297 N 
ATOM      3  N   UNL     1      35.692 -21.776 -19.060  0.00  0.00    -0.229 NA
ATOM      4  C   UNL     1      35.109 -18.980 -21.207  0.00  0.00    -0.006 C 
ATOM      5  C   UNL     1      34.607 -20.077 -20.457  0.00  0.00    +0.029 C 
ATOM      6  C   UNL     1      35.703 -20.694 -19.861  0.00  0.00    +0.132 C 
ATOM      7  C   UNL     1      36.478 -18.958 -21.047  0.00  0.00    +0.059 C 
ATOM      8  C   UNL     1      33.341 -20.632 -20.208  0.00  0.00    +0.004 C 
ATOM      9  C   UNL     1      33.271 -21.753 -19.386  0.00  0.00    +0.021 C 
ATOM     10  C   UNL     1      34.448 -22.266 -18.856  0.00  0.00    +0.100 C 
ATOM     11  H   UNL     1      37.746 -20.221 -19.951  0.00  0.00    +0.154 HD
ENDBRANCH   1   4
BRANCH   1  12
ATOM     12  CA  UNL     1      34.475 -16.549 -21.580  0.00  0.00    +0.040 C 
BRANCH  12  13
ATOM     13  N   UNL     1      33.219 -16.023 -21.050  0.00  0.00    +0.389 N 
ATOM     14  H1  UNL     1      32.877 -15.281 -21.660  0.00  0.00    -0.088 HD
ATOM     15  H2  UNL     1      33.376 -15.649 -20.113  0.00  0.00    -0.088 HD
ATOM     16  H3  UNL     1      32.528 -16.772 -21.005  0.00  0.00    -0.088 HD
ENDBRANCH  12  13
BRANCH  12  18
ATOM     17  OXT UNL     1      34.469 -14.510 -22.911  0.00  0.00    -0.253 OA
ATOM     18  C   UNL     1      34.861 -15.659 -22.749  0.00  0.00    +0.293 C 
BRANCH  18  19
ATOM     19  O   UNL     1      35.728 -16.267 -23.598  0.00  0.00    -0.482 OA
ATOM     20  H   UNL     1      36.569 -16.545 -23.290  0.00  0.00    +0.295 HD
ENDBRANCH  18  19
ENDBRANCH  12  18
ENDBRANCH   1  12
TORSDOF 5
ENDMDL
MODEL 5
REMARK VINA RESULT:      -7.2      6.927      8.905
REMARK  Name = 7000165
REMARK  5 active torsions:
REMARK  status: ('A' for Active; 'I' for Inactive)
REMARK    1  A    between atoms: C_1  and  C_4
REMARK    2  A    between atoms: C_1  and  CA_12
REMARK    3  A    between atoms: CA_12  and  N_13
REMARK    4  A    between atoms: CA_12  and  C_18
REMARK    5  A    between atoms: C_18  and  O_19
REMARK                            x       y       z     vdW  Elec       q    Type
REMARK                         _______ _______ _______ _____ _____    ______ ____
ROOT
ATOM      1  C   UNL     1      34.995 -23.526 -15.309  0.00  0.00    +0.017 C 
ENDROOT
BRANCH   1   4
ATOM      2  N   UNL     1      32.449 -22.864 -17.848  0.00  0.00    -0.297 N 
ATOM      3  N   UNL     1      30.302 -22.800 -16.756  0.00  0.00    -0.229 NA
ATOM      4  C   UNL     1      33.785 -23.273 -16.116  0.00  0.00    -0.006 C 
ATOM      5  C   UNL     1      32.449 -23.202 -15.640  0.00  0.00    +0.029 C 
ATOM      6  C   UNL     1      31.640 -22.946 -16.744  0.00  0.00    +0.132 C 
ATOM      7  C   UNL     1      33.754 -23.062 -17.478  0.00  0.00    +0.059 C 
ATOM      8  C   UNL     1      31.817 -23.324 -14.391  0.00  0.00    +0.004 C 
ATOM      9  C   UNL     1      30.432 -23.182 -14.346  0.00  0.00    +0.021 C 
ATOM     10  C   UNL     1      29.748 -22.928 -15.527  0.00  0.00    +0.100 C 
ATOM     11  H   UNL     1      32.140 -22.690 -18.766  0.00  0.00    +0.154 HD
ENDBRANCH   1   4
BRANCH   1  12
ATOM     12  CA  UNL     1      35.096 -24.970 -14.756  0.00  0.00    +0.040 C 
BRANCH  12  13
ATOM     13  N   UNL     1      35.307 -24.964 -13.310  0.00  0.00    +0.389 N 
ATOM     14  H1  UNL     1      34.949 -25.831 -12.910  0.00  0.00    -0.088 HD
ATOM     15  H2  UNL     1      34.814 -24.171 -12.899  0.00  0.00    -0.088 HD
ATOM     16  H3  UNL     1      36.305 -24.884 -13.112  0.00  0.00    -0.088 HD
ENDBRANCH  12  13
BRANCH  12  18
ATOM     17  OXT UNL     1      36.231 -26.892 -15.731  0.00  0.00    -0.253 OA
ATOM     18  C   UNL     1      36.267 -25.724 -15.364  0.00  0.00    +0.293 C 
BRANCH  18  19
ATOM     19  O   UNL     1      37.372 -24.946 -15.491  0.00  0.00    -0.482 OA
ATOM     20  H   UNL     1      37.589 -24.571 -16.322  0.00  0.00    +0.295 HD
ENDBRANCH  18  19
ENDBRANCH  12  18
ENDBRANCH   1  12
TORSDOF 5
ENDMDL
MODEL 6
REMARK VINA RESULT:      -7.2      3.433      5.704
REMARK  Name = 7000165
REMARK  5 active torsions:
REMARK  status: ('A' for Active; 'I' for Inactive)
REMARK    1  A    between atoms: C_1  and  C_4
REMARK    2  A    between atoms: C_1  and  CA_12
REMARK    3  A    between atoms: CA_12  and  N_13
REMARK    4  A    between atoms: CA_12  and  C_18
REMARK    5  A    between atoms: C_18  and  O_19
REMARK                            x       y       z     vdW  Elec       q    Type
REMARK                         _______ _______ _______ _____ _____    ______ ____
ROOT
ATOM      1  C   UNL     1      34.979 -19.578 -20.666  0.00  0.00    +0.017 C 
ENDROOT
BRANCH   1   4
ATOM      2  N   UNL     1      35.323 -17.689 -23.778  0.00  0.00    -0.297 N 
ATOM      3  N   UNL     1      34.895 -15.367 -23.295  0.00  0.00    -0.229 NA
ATOM      4  C   UNL     1      35.053 -18.591 -21.761  0.00  0.00    -0.006 C 
ATOM      5  C   UNL     1      34.831 -17.191 -21.657  0.00  0.00    +0.029 C 
ATOM      6  C   UNL     1      35.008 -16.658 -22.930  0.00  0.00    +0.132 C 
ATOM      7  C   UNL     1      35.353 -18.867 -23.078  0.00  0.00    +0.059 C 
ATOM      8  C   UNL     1      34.499 -16.299 -20.624  0.00  0.00    +0.004 C 
ATOM      9  C   UNL     1      34.369 -14.950 -20.946  0.00  0.00    +0.021 C 
ATOM     10  C   UNL     1      34.573 -14.555 -22.261  0.00  0.00    +0.100 C 
ATOM     11  H   UNL     1      35.501 -17.597 -24.742  0.00  0.00    +0.154 HD
ENDBRANCH   1   4
BRANCH   1  12
ATOM     12  CA  UNL     1      33.730 -20.495 -20.726  0.00  0.00    +0.040 C 
BRANCH  12  13
ATOM     13  N   UNL     1      32.505 -19.725 -20.518  0.00  0.00    +0.389 N 
ATOM     14  H1  UNL     1      32.356 -19.587 -19.518  0.00  0.00    -0.088 HD
ATOM     15  H2  UNL     1      31.714 -20.233 -20.914  0.00  0.00    -0.088 HD
ATOM     16  H3  UNL     1      32.591 -18.818 -20.977  0.00  0.00    -0.088 HD
ENDBRANCH  12  13
BRANCH  12  18
ATOM     17  OXT UNL     1      32.773 -22.091 -19.155  0.00  0.00    -0.253 OA
ATOM     18  C   UNL     1      33.763 -21.560 -19.643  0.00  0.00    +0.293 C 
BRANCH  18  19
ATOM     19  O   UNL     1      35.029 -21.895 -19.286  0.00  0.00    -0.482 OA
ATOM     20  H   UNL     1      35.174 -22.550 -18.631  0.00  0.00    +0.295 HD
ENDBRANCH  18  19
ENDBRANCH  12  18
ENDBRANCH   1  12
TORSDOF 5
ENDMDL
MODEL 7
REMARK VINA RESULT:      -7.1      3.288      5.645
REMARK  Name = 7000165
REMARK  5 active torsions:
REMARK  status: ('A' for Active; 'I' for Inactive)
REMARK    1  A    between atoms: C_1  and  C_4
REMARK    2  A    between atoms: C_1  and  CA_12
REMARK    3  A    between atoms: CA_12  and  N_13
REMARK    4  A    between atoms: CA_12  and  C_18
REMARK    5  A    between atoms: C_18  and  O_19
REMARK                            x       y       z     vdW  Elec       q    Type
REMARK                         _______ _______ _______ _____ _____    ______ ____
ROOT
ATOM      1  C   UNL     1      35.039 -19.791 -20.651  0.00  0.00    +0.017 C 
ENDROOT
BRANCH   1   4
ATOM      2  N   UNL     1      34.926 -16.334 -21.837  0.00  0.00    -0.297 N 
ATOM      3  N   UNL     1      34.624 -16.372 -24.227  0.00  0.00    -0.229 NA
ATOM      4  C   UNL     1      34.961 -18.513 -21.386  0.00  0.00    -0.006 C 
ATOM      5  C   UNL     1      34.785 -18.350 -22.786  0.00  0.00    +0.029 C 
ATOM      6  C   UNL     1      34.768 -16.981 -23.035  0.00  0.00    +0.132 C 
ATOM      7  C   UNL     1      35.045 -17.255 -20.828  0.00  0.00    +0.059 C 
ATOM      8  C   UNL     1      34.637 -19.208 -23.889  0.00  0.00    +0.004 C 
ATOM      9  C   UNL     1      34.484 -18.630 -25.147  0.00  0.00    +0.021 C 
ATOM     10  C   UNL     1      34.485 -17.246 -25.250  0.00  0.00    +0.100 C 
ATOM     11  H   UNL     1      34.951 -15.357 -21.718  0.00  0.00    +0.154 HD
ENDBRANCH   1   4
BRANCH   1  12
ATOM     12  CA  UNL     1      33.717 -20.600 -20.648  0.00  0.00    +0.040 C 
BRANCH  12  13
ATOM     13  N   UNL     1      32.569 -19.725 -20.423  0.00  0.00    +0.389 N 
ATOM     14  H1  UNL     1      31.714 -20.206 -20.705  0.00  0.00    -0.088 HD
ATOM     15  H2  UNL     1      32.678 -18.873 -20.976  0.00  0.00    -0.088 HD
ATOM     16  H3  UNL     1      32.512 -19.484 -19.434  0.00  0.00    -0.088 HD
ENDBRANCH  12  13
BRANCH  12  18
ATOM     17  OXT UNL     1      32.686 -22.033 -18.971  0.00  0.00    -0.253 OA
ATOM     18  C   UNL     1      33.696 -21.639 -19.540  0.00  0.00    +0.293 C 
BRANCH  18  19
ATOM     19  O   UNL     1      34.934 -22.120 -19.259  0.00  0.00    -0.482 OA
ATOM     20  H   UNL     1      35.446 -22.520 -19.934  0.00  0.00    +0.295 HD
ENDBRANCH  18  19
ENDBRANCH  12  18
ENDBRANCH   1  12
TORSDOF 5
ENDMDL
MODEL 8
REMARK VINA RESULT:      -7.1      6.925      8.748
REMARK  Name = 7000165
REMARK  5 active torsions:
REMARK  status: ('A' for Active; 'I' for Inactive)
REMARK    1  A    between atoms: C_1  and  C_4
REMARK    2  A    between atoms: C_1  and  CA_12
REMARK    3  A    between atoms: CA_12  and  N_13
REMARK    4  A    between atoms: CA_12  and  C_18
REMARK    5  A    between atoms: C_18  and  O_19
REMARK                            x       y       z     vdW  Elec       q    Type
REMARK                         _______ _______ _______ _____ _____    ______ ____
ROOT
ATOM      1  C   UNL     1      29.595 -22.694 -14.960  0.00  0.00    +0.017 C 
ENDROOT
BRANCH   1   4
ATOM      2  N   UNL     1      32.953 -23.417 -13.707  0.00  0.00    -0.297 N 
ATOM      3  N   UNL     1      34.464 -23.440 -15.585  0.00  0.00    -0.229 NA
ATOM      4  C   UNL     1      31.027 -22.966 -14.727  0.00  0.00    -0.006 C 
ATOM      5  C   UNL     1      32.051 -23.017 -15.711  0.00  0.00    +0.029 C 
ATOM      6  C   UNL     1      33.239 -23.300 -15.043  0.00  0.00    +0.132 C 
ATOM      7  C   UNL     1      31.612 -23.216 -13.504  0.00  0.00    +0.059 C 
ATOM      8  C   UNL     1      32.117 -22.856 -17.104  0.00  0.00    +0.004 C 
ATOM      9  C   UNL     1      33.360 -22.991 -17.717  0.00  0.00    +0.021 C 
ATOM     10  C   UNL     1      34.466 -23.275 -16.928  0.00  0.00    +0.100 C 
ATOM     11  H   UNL     1      33.611 -23.614 -13.001  0.00  0.00    +0.154 HD
ENDBRANCH   1   4
BRANCH   1  12
ATOM     12  CA  UNL     1      28.801 -23.910 -15.500  0.00  0.00    +0.040 C 
BRANCH  12  13
ATOM     13  N   UNL     1      29.656 -25.092 -15.597  0.00  0.00    +0.389 N 
ATOM     14  H1  UNL     1      29.376 -25.773 -14.891  0.00  0.00    -0.088 HD
ATOM     15  H2  UNL     1      30.628 -24.821 -15.441  0.00  0.00    -0.088 HD
ATOM     16  H3  UNL     1      29.563 -25.505 -16.524  0.00  0.00    -0.088 HD
ENDBRANCH  12  13
BRANCH  12  18
ATOM     17  OXT UNL     1      27.670 -24.479 -17.581  0.00  0.00    -0.253 OA
ATOM     18  C   UNL     1      28.258 -23.652 -16.896  0.00  0.00    +0.293 C 
BRANCH  18  19
ATOM     19  O   UNL     1      28.466 -22.373 -17.302  0.00  0.00    -0.482 OA
ATOM     20  H   UNL     1      27.976 -21.673 -16.918  0.00  0.00    +0.295 HD
ENDBRANCH  18  19
ENDBRANCH  12  18
ENDBRANCH   1  12
TORSDOF 5
ENDMDL
MODEL 9
REMARK VINA RESULT:      -7.0      7.160      9.810
REMARK  Name = 7000165
REMARK  5 active torsions:
REMARK  status: ('A' for Active; 'I' for Inactive)
REMARK    1  A    between atoms: C_1  and  C_4
REMARK    2  A    between atoms: C_1  and  CA_12
REMARK    3  A    between atoms: CA_12  and  N_13
REMARK    4  A    between atoms: CA_12  and  C_18
REMARK    5  A    between atoms: C_18  and  O_19
REMARK                            x       y       z     vdW  Elec       q    Type
REMARK                         _______ _______ _______ _____ _____    ______ ____
ROOT
ATOM      1  C   UNL     1      36.904 -23.547 -13.599  0.00  0.00    +0.017 C 
ENDROOT
BRANCH   1   4
ATOM      2  N   UNL     1      33.980 -23.790 -15.780  0.00  0.00    -0.297 N 
ATOM      3  N   UNL     1      34.493 -22.664 -17.848  0.00  0.00    -0.229 NA
ATOM      4  C   UNL     1      35.882 -23.498 -14.663  0.00  0.00    -0.006 C 
ATOM      5  C   UNL     1      36.014 -22.881 -15.936  0.00  0.00    +0.029 C 
ATOM      6  C   UNL     1      34.812 -23.081 -16.608  0.00  0.00    +0.132 C 
ATOM      7  C   UNL     1      34.620 -24.048 -14.596  0.00  0.00    +0.059 C 
ATOM      8  C   UNL     1      37.019 -22.168 -16.610  0.00  0.00    +0.004 C 
ATOM      9  C   UNL     1      36.743 -21.713 -17.897  0.00  0.00    +0.021 C 
ATOM     10  C   UNL     1      35.498 -21.984 -18.448  0.00  0.00    +0.100 C 
ATOM     11  H   UNL     1      33.063 -24.071 -16.002  0.00  0.00    +0.154 HD
ENDBRANCH   1   4
BRANCH   1  12
ATOM     12  CA  UNL     1      36.322 -23.533 -12.162  0.00  0.00    +0.040 C 
BRANCH  12  13
ATOM     13  N   UNL     1      37.208 -22.819 -11.245  0.00  0.00    +0.389 N 
ATOM     14  H1  UNL     1      36.840 -21.883 -11.078  0.00  0.00    -0.088 HD
ATOM     15  H2  UNL     1      38.139 -22.750 -11.659  0.00  0.00    -0.088 HD
ATOM     16  H3  UNL     1      37.265 -23.326 -10.362  0.00  0.00    -0.088 HD
ENDBRANCH  12  13
BRANCH  12  18
ATOM     17  OXT UNL     1      36.778 -25.920 -12.002  0.00  0.00    -0.253 OA
ATOM     18  C   UNL     1      36.162 -24.938 -11.607  0.00  0.00    +0.293 C 
BRANCH  18  19
ATOM     19  O   UNL     1      35.271 -24.991 -10.583  0.00  0.00    -0.482 OA
ATOM     20  H   UNL     1      34.376 -24.755 -10.728  0.00  0.00    +0.295 HD
ENDBRANCH  18  19
ENDBRANCH  12  18
ENDBRANCH   1  12
TORSDOF 5
ENDMDL
