MODEL 1
REMARK VINA RESULT:     -10.7      0.000      0.000
REMARK  Name = 16122556
REMARK  12 active torsions:
REMARK  status: ('A' for Active; 'I' for Inactive)
REMARK    1  A    between atoms: C_1  and  O_19
REMARK    2  A    between atoms: C_2  and  C_7
REMARK    3  A    between atoms: C_8  and  C_13
REMARK    4  A    between atoms: O_19  and  C_20
REMARK    5  A    between atoms: C_20  and  C_21
REMARK    6  A    between atoms: C_21  and  P_22
REMARK    7  A    between atoms: C_21  and  P_28
REMARK    8  A    between atoms: C_21  and  O_34
REMARK    9  A    between atoms: P_22  and  O_24
REMARK   10  A    between atoms: P_22  and  O_26
REMARK   11  A    between atoms: P_28  and  O_30
REMARK   12  A    between atoms: P_28  and  O_32
REMARK                            x       y       z     vdW  Elec       q    Type
REMARK                         _______ _______ _______ _____ _____    ______ ____
ROOT
ATOM      1  C   UNL     1      34.450 -22.797 -17.712  0.00  0.00    +0.139 C 
ATOM      2  C   UNL     1      34.649 -21.151 -19.456  0.00  0.00    +0.003 C 
ATOM      3  C   UNL     1      35.246 -21.991 -18.517  0.00  0.00    +0.037 C 
ATOM      4  C   UNL     1      33.066 -22.776 -17.833  0.00  0.00    +0.037 C 
ATOM      5  C   UNL     1      33.261 -21.124 -19.586  0.00  0.00    +0.000 C 
ATOM      6  C   UNL     1      32.469 -21.936 -18.774  0.00  0.00    +0.003 C 
ENDROOT
BRANCH   2   7
ATOM      7  C   UNL     1      35.470 -20.308 -20.298  0.00  0.00    +0.000 C 
ATOM      8  C   UNL     1      35.674 -18.728 -22.115  0.00  0.00    +0.000 C 
ATOM      9  C   UNL     1      34.882 -19.539 -21.303  0.00  0.00    +0.000 C 
ATOM     10  C   UNL     1      36.851 -20.264 -20.104  0.00  0.00    +0.000 C 
ATOM     11  C   UNL     1      37.054 -18.684 -21.922  0.00  0.00    +0.000 C 
ATOM     12  C   UNL     1      37.643 -19.452 -20.917  0.00  0.00    +0.000 C 
BRANCH   8  13
ATOM     13  C   UNL     1      35.065 -17.932 -23.158  0.00  0.00    +0.000 C 
ATOM     14  C   UNL     1      34.853 -16.568 -22.960  0.00  0.00    +0.000 C 
ATOM     15  C   UNL     1      34.689 -18.528 -24.362  0.00  0.00    +0.000 C 
ATOM     16  C   UNL     1      34.267 -15.799 -23.965  0.00  0.00    +0.000 C 
ATOM     17  C   UNL     1      34.103 -17.761 -25.368  0.00  0.00    +0.000 C 
ATOM     18  C   UNL     1      33.892 -16.396 -25.169  0.00  0.00    +0.000 C 
ENDBRANCH   8  13
ENDBRANCH   2   7
BRANCH   1  19
ATOM     19  O   UNL     1      35.035 -23.623 -16.786  0.00  0.00    -0.472 OA
BRANCH  19  20
ATOM     20  C   UNL     1      35.088 -23.155 -15.448  0.00  0.00    +0.256 C 
BRANCH  20  21
ATOM     21  C   UNL     1      35.758 -24.188 -14.533  0.00  0.00    +0.315 C 
BRANCH  21  22
ATOM     22  P   UNL     1      35.079 -24.075 -12.844  0.00  0.00    +0.375 P 
ATOM     23  O   UNL     1      33.590 -23.894 -12.775  0.00  0.00    -0.255 OA
BRANCH  22  24
ATOM     24  O   UNL     1      35.640 -25.404 -12.115  0.00  0.00    -0.322 OA
ATOM     25  H   UNL     1      34.899 -25.996 -11.910  0.00  0.00    +0.220 HD
ENDBRANCH  22  24
BRANCH  22  26
ATOM     26  O   UNL     1      35.946 -22.891 -12.169  0.00  0.00    -0.322 OA
ATOM     27  H   UNL     1      36.628 -23.277 -11.595  0.00  0.00    +0.220 HD
ENDBRANCH  22  26
ENDBRANCH  21  22
BRANCH  21  28
ATOM     28  P   UNL     1      37.543 -24.296 -14.892  0.00  0.00    +0.375 P 
ATOM     29  O   UNL     1      38.438 -24.093 -13.705  0.00  0.00    -0.255 OA
BRANCH  28  30
ATOM     30  O   UNL     1      37.693 -25.726 -15.628  0.00  0.00    -0.322 OA
ATOM     31  H   UNL     1      37.590 -25.610 -16.586  0.00  0.00    +0.220 HD
ENDBRANCH  28  30
BRANCH  28  32
ATOM     32  O   UNL     1      37.757 -23.238 -16.096  0.00  0.00    -0.322 OA
ATOM     33  H   UNL     1      37.554 -23.667 -16.943  0.00  0.00    +0.220 HD
ENDBRANCH  28  32
ENDBRANCH  21  28
BRANCH  21  34
ATOM     34  O   UNL     1      35.283 -25.467 -14.971  0.00  0.00    -0.364 OA
ATOM     35  H   UNL     1      35.563 -25.620 -15.886  0.00  0.00    +0.212 HD
ENDBRANCH  21  34
ENDBRANCH  20  21
ENDBRANCH  19  20
ENDBRANCH   1  19
TORSDOF 12
ENDMDL
MODEL 2
REMARK VINA RESULT:     -10.6      4.654      7.400
REMARK  Name = 16122556
REMARK  12 active torsions:
REMARK  status: ('A' for Active; 'I' for Inactive)
REMARK    1  A    between atoms: C_1  and  O_19
REMARK    2  A    between atoms: C_2  and  C_7
REMARK    3  A    between atoms: C_8  and  C_13
REMARK    4  A    between atoms: O_19  and  C_20
REMARK    5  A    between atoms: C_20  and  C_21
REMARK    6  A    between atoms: C_21  and  P_22
REMARK    7  A    between atoms: C_21  and  P_28
REMARK    8  A    between atoms: C_21  and  O_34
REMARK    9  A    between atoms: P_22  and  O_24
REMARK   10  A    between atoms: P_22  and  O_26
REMARK   11  A    between atoms: P_28  and  O_30
REMARK   12  A    between atoms: P_28  and  O_32
REMARK                            x       y       z     vdW  Elec       q    Type
REMARK                         _______ _______ _______ _____ _____    ______ ____
ROOT
ATOM      1  C   UNL     1      35.140 -22.932 -15.605  0.00  0.00    +0.139 C 
ATOM      2  C   UNL     1      32.838 -23.405 -16.125  0.00  0.00    +0.003 C 
ATOM      3  C   UNL     1      33.869 -23.312 -15.190  0.00  0.00    +0.037 C 
ATOM      4  C   UNL     1      35.395 -22.643 -16.940  0.00  0.00    +0.037 C 
ATOM      5  C   UNL     1      33.085 -23.116 -17.467  0.00  0.00    +0.000 C 
ATOM      6  C   UNL     1      34.363 -22.735 -17.874  0.00  0.00    +0.003 C 
ENDROOT
BRANCH   2   7
ATOM      7  C   UNL     1      31.512 -23.800 -15.702  0.00  0.00    +0.000 C 
ATOM      8  C   UNL     1      29.116 -23.497 -15.771  0.00  0.00    +0.000 C 
ATOM      9  C   UNL     1      30.394 -23.116 -16.179  0.00  0.00    +0.000 C 
ATOM     10  C   UNL     1      31.352 -24.866 -14.817  0.00  0.00    +0.000 C 
ATOM     11  C   UNL     1      28.956 -24.562 -14.885  0.00  0.00    +0.000 C 
ATOM     12  C   UNL     1      30.073 -25.247 -14.408  0.00  0.00    +0.000 C 
BRANCH   8  13
ATOM     13  C   UNL     1      27.955 -22.787 -16.264  0.00  0.00    +0.000 C 
ATOM     14  C   UNL     1      27.781 -22.603 -17.635  0.00  0.00    +0.000 C 
ATOM     15  C   UNL     1      27.011 -22.286 -15.367  0.00  0.00    +0.000 C 
ATOM     16  C   UNL     1      26.663 -21.919 -18.111  0.00  0.00    +0.000 C 
ATOM     17  C   UNL     1      25.893 -21.602 -15.843  0.00  0.00    +0.000 C 
ATOM     18  C   UNL     1      25.718 -21.419 -17.215  0.00  0.00    +0.000 C 
ENDBRANCH   8  13
ENDBRANCH   2   7
BRANCH   1  19
ATOM     19  O   UNL     1      36.155 -22.841 -14.687  0.00  0.00    -0.472 OA
BRANCH  19  20
ATOM     20  C   UNL     1      37.380 -23.476 -15.018  0.00  0.00    +0.256 C 
BRANCH  20  21
ATOM     21  C   UNL     1      37.782 -24.486 -13.935  0.00  0.00    +0.315 C 
BRANCH  21  22
ATOM     22  P   UNL     1      37.293 -26.173 -14.429  0.00  0.00    +0.375 P 
ATOM     23  O   UNL     1      36.342 -26.239 -15.588  0.00  0.00    -0.255 OA
BRANCH  22  24
ATOM     24  O   UNL     1      38.704 -26.928 -14.660  0.00  0.00    -0.322 OA
ATOM     25  H   UNL     1      38.552 -27.884 -14.719  0.00  0.00    +0.220 HD
ENDBRANCH  22  24
BRANCH  22  26
ATOM     26  O   UNL     1      36.748 -26.824 -13.055  0.00  0.00    -0.322 OA
ATOM     27  H   UNL     1      37.473 -26.876 -12.412  0.00  0.00    +0.220 HD
ENDBRANCH  22  26
ENDBRANCH  21  22
BRANCH  21  28
ATOM     28  P   UNL     1      37.474 -23.797 -12.274  0.00  0.00    +0.375 P 
ATOM     29  O   UNL     1      38.101 -22.458 -12.021  0.00  0.00    -0.255 OA
BRANCH  28  30
ATOM     30  O   UNL     1      35.864 -23.836 -12.145  0.00  0.00    -0.322 OA
ATOM     31  H   UNL     1      35.464 -23.570 -12.988  0.00  0.00    +0.220 HD
ENDBRANCH  28  30
BRANCH  28  32
ATOM     32  O   UNL     1      37.952 -24.975 -11.276  0.00  0.00    -0.322 OA
ATOM     33  H   UNL     1      37.860 -25.832 -11.721  0.00  0.00    +0.220 HD
ENDBRANCH  28  32
ENDBRANCH  21  28
BRANCH  21  34
ATOM     34  O   UNL     1      39.212 -24.556 -13.975  0.00  0.00    -0.364 OA
ATOM     35  H   UNL     1      39.500 -25.441 -13.704  0.00  0.00    +0.212 HD
ENDBRANCH  21  34
ENDBRANCH  20  21
ENDBRANCH  19  20
ENDBRANCH   1  19
TORSDOF 12
ENDMDL
MODEL 3
REMARK VINA RESULT:     -10.6      0.723      2.441
REMARK  Name = 16122556
REMARK  12 active torsions:
REMARK  status: ('A' for Active; 'I' for Inactive)
REMARK    1  A    between atoms: C_1  and  O_19
REMARK    2  A    between atoms: C_2  and  C_7
REMARK    3  A    between atoms: C_8  and  C_13
REMARK    4  A    between atoms: O_19  and  C_20
REMARK    5  A    between atoms: C_20  and  C_21
REMARK    6  A    between atoms: C_21  and  P_22
REMARK    7  A    between atoms: C_21  and  P_28
REMARK    8  A    between atoms: C_21  and  O_34
REMARK    9  A    between atoms: P_22  and  O_24
REMARK   10  A    between atoms: P_22  and  O_26
REMARK   11  A    between atoms: P_28  and  O_30
REMARK   12  A    between atoms: P_28  and  O_32
REMARK                            x       y       z     vdW  Elec       q    Type
REMARK                         _______ _______ _______ _____ _____    ______ ____
ROOT
ATOM      1  C   UNL     1      34.655 -22.752 -17.645  0.00  0.00    +0.139 C 
ATOM      2  C   UNL     1      34.795 -21.172 -19.455  0.00  0.00    +0.003 C 
ATOM      3  C   UNL     1      35.418 -21.924 -18.460  0.00  0.00    +0.037 C 
ATOM      4  C   UNL     1      33.278 -22.838 -17.811  0.00  0.00    +0.037 C 
ATOM      5  C   UNL     1      33.413 -21.253 -19.629  0.00  0.00    +0.000 C 
ATOM      6  C   UNL     1      32.655 -22.086 -18.807  0.00  0.00    +0.003 C 
ENDROOT
BRANCH   2   7
ATOM      7  C   UNL     1      35.581 -20.307 -20.308  0.00  0.00    +0.000 C 
ATOM      8  C   UNL     1      35.719 -18.730 -22.133  0.00  0.00    +0.000 C 
ATOM      9  C   UNL     1      34.961 -19.562 -21.311  0.00  0.00    +0.000 C 
ATOM     10  C   UNL     1      36.962 -20.219 -20.127  0.00  0.00    +0.000 C 
ATOM     11  C   UNL     1      37.100 -18.642 -21.953  0.00  0.00    +0.000 C 
ATOM     12  C   UNL     1      37.721 -19.386 -20.950  0.00  0.00    +0.000 C 
BRANCH   8  13
ATOM     13  C   UNL     1      35.077 -17.958 -23.175  0.00  0.00    +0.000 C 
ATOM     14  C   UNL     1      34.702 -18.575 -24.368  0.00  0.00    +0.000 C 
ATOM     15  C   UNL     1      34.833 -16.598 -22.986  0.00  0.00    +0.000 C 
ATOM     16  C   UNL     1      34.082 -17.832 -25.373  0.00  0.00    +0.000 C 
ATOM     17  C   UNL     1      34.213 -15.854 -23.990  0.00  0.00    +0.000 C 
ATOM     18  C   UNL     1      33.837 -16.471 -25.183  0.00  0.00    +0.000 C 
ENDBRANCH   8  13
ENDBRANCH   2   7
BRANCH   1  19
ATOM     19  O   UNL     1      35.266 -23.493 -16.666  0.00  0.00    -0.472 OA
BRANCH  19  20
ATOM     20  C   UNL     1      36.036 -22.783 -15.709  0.00  0.00    +0.256 C 
BRANCH  20  21
ATOM     21  C   UNL     1      36.234 -23.618 -14.437  0.00  0.00    +0.315 C 
BRANCH  21  22
ATOM     22  P   UNL     1      37.605 -24.801 -14.662  0.00  0.00    +0.375 P 
ATOM     23  O   UNL     1      38.167 -25.361 -13.388  0.00  0.00    -0.255 OA
BRANCH  22  24
ATOM     24  O   UNL     1      37.000 -25.898 -15.683  0.00  0.00    -0.322 OA
ATOM     25  H   UNL     1      37.140 -25.601 -16.595  0.00  0.00    +0.220 HD
ENDBRANCH  22  24
BRANCH  22  26
ATOM     26  O   UNL     1      38.657 -23.987 -15.577  0.00  0.00    -0.322 OA
ATOM     27  H   UNL     1      38.437 -24.113 -16.514  0.00  0.00    +0.220 HD
ENDBRANCH  22  26
ENDBRANCH  21  22
BRANCH  21  28
ATOM     28  P   UNL     1      34.621 -24.076 -13.718  0.00  0.00    +0.375 P 
ATOM     29  O   UNL     1      34.620 -24.240 -12.227  0.00  0.00    -0.255 OA
BRANCH  28  30
ATOM     30  O   UNL     1      33.622 -22.939 -14.283  0.00  0.00    -0.322 OA
ATOM     31  H   UNL     1      33.067 -23.315 -14.985  0.00  0.00    +0.220 HD
ENDBRANCH  28  30
BRANCH  28  32
ATOM     32  O   UNL     1      34.189 -25.392 -14.551  0.00  0.00    -0.322 OA
ATOM     33  H   UNL     1      34.399 -25.264 -15.489  0.00  0.00    +0.220 HD
ENDBRANCH  28  32
ENDBRANCH  21  28
BRANCH  21  34
ATOM     34  O   UNL     1      36.761 -22.719 -13.454  0.00  0.00    -0.364 OA
ATOM     35  H   UNL     1      36.881 -23.191 -12.616  0.00  0.00    +0.212 HD
ENDBRANCH  21  34
ENDBRANCH  20  21
ENDBRANCH  19  20
ENDBRANCH   1  19
TORSDOF 12
ENDMDL
MODEL 4
REMARK VINA RESULT:     -10.2      1.510      3.022
REMARK  Name = 16122556
REMARK  12 active torsions:
REMARK  status: ('A' for Active; 'I' for Inactive)
REMARK    1  A    between atoms: C_1  and  O_19
REMARK    2  A    between atoms: C_2  and  C_7
REMARK    3  A    between atoms: C_8  and  C_13
REMARK    4  A    between atoms: O_19  and  C_20
REMARK    5  A    between atoms: C_20  and  C_21
REMARK    6  A    between atoms: C_21  and  P_22
REMARK    7  A    between atoms: C_21  and  P_28
REMARK    8  A    between atoms: C_21  and  O_34
REMARK    9  A    between atoms: P_22  and  O_24
REMARK   10  A    between atoms: P_22  and  O_26
REMARK   11  A    between atoms: P_28  and  O_30
REMARK   12  A    between atoms: P_28  and  O_32
REMARK                            x       y       z     vdW  Elec       q    Type
REMARK                         _______ _______ _______ _____ _____    ______ ____
ROOT
ATOM      1  C   UNL     1      35.972 -23.127 -15.967  0.00  0.00    +0.139 C 
ATOM      2  C   UNL     1      35.547 -21.858 -17.968  0.00  0.00    +0.003 C 
ATOM      3  C   UNL     1      35.082 -22.668 -16.932  0.00  0.00    +0.037 C 
ATOM      4  C   UNL     1      37.318 -22.787 -16.023  0.00  0.00    +0.037 C 
ATOM      5  C   UNL     1      36.896 -21.511 -18.031  0.00  0.00    +0.000 C 
ATOM      6  C   UNL     1      37.782 -21.976 -17.058  0.00  0.00    +0.003 C 
ENDROOT
BRANCH   2   7
ATOM      7  C   UNL     1      34.629 -21.376 -18.977  0.00  0.00    +0.000 C 
ATOM      8  C   UNL     1      34.146 -19.920 -20.844  0.00  0.00    +0.000 C 
ATOM      9  C   UNL     1      35.032 -20.386 -19.873  0.00  0.00    +0.000 C 
ATOM     10  C   UNL     1      33.339 -21.902 -19.053  0.00  0.00    +0.000 C 
ATOM     11  C   UNL     1      32.857 -20.446 -20.921  0.00  0.00    +0.000 C 
ATOM     12  C   UNL     1      32.453 -21.436 -20.025  0.00  0.00    +0.000 C 
BRANCH   8  13
ATOM     13  C   UNL     1      34.563 -18.892 -21.773  0.00  0.00    +0.000 C 
ATOM     14  C   UNL     1      34.697 -17.574 -21.339  0.00  0.00    +0.000 C 
ATOM     15  C   UNL     1      34.830 -19.219 -23.102  0.00  0.00    +0.000 C 
ATOM     16  C   UNL     1      35.099 -16.582 -22.233  0.00  0.00    +0.000 C 
ATOM     17  C   UNL     1      35.231 -18.228 -23.997  0.00  0.00    +0.000 C 
ATOM     18  C   UNL     1      35.366 -16.909 -23.562  0.00  0.00    +0.000 C 
ENDBRANCH   8  13
ENDBRANCH   2   7
BRANCH   1  19
ATOM     19  O   UNL     1      35.517 -23.925 -14.948  0.00  0.00    -0.472 OA
BRANCH  19  20
ATOM     20  C   UNL     1      36.183 -25.162 -14.753  0.00  0.00    +0.256 C 
BRANCH  20  21
ATOM     21  C   UNL     1      36.689 -25.289 -13.311  0.00  0.00    +0.315 C 
BRANCH  21  22
ATOM     22  P   UNL     1      35.502 -24.529 -12.152  0.00  0.00    +0.375 P 
ATOM     23  O   UNL     1      35.606 -25.016 -10.736  0.00  0.00    -0.255 OA
BRANCH  22  24
ATOM     24  O   UNL     1      35.739 -22.942 -12.348  0.00  0.00    -0.322 OA
ATOM     25  H   UNL     1      36.654 -22.785 -12.631  0.00  0.00    +0.220 HD
ENDBRANCH  22  24
BRANCH  22  26
ATOM     26  O   UNL     1      34.073 -24.778 -12.861  0.00  0.00    -0.322 OA
ATOM     27  H   UNL     1      33.608 -23.931 -12.960  0.00  0.00    +0.220 HD
ENDBRANCH  22  26
ENDBRANCH  21  22
BRANCH  21  28
ATOM     28  P   UNL     1      38.489 -24.998 -13.239  0.00  0.00    +0.375 P 
ATOM     29  O   UNL     1      39.135 -24.714 -14.562  0.00  0.00    -0.255 OA
BRANCH  28  30
ATOM     30  O   UNL     1      38.635 -23.824 -12.139  0.00  0.00    -0.322 OA
ATOM     31  H   UNL     1      37.782 -23.684 -11.698  0.00  0.00    +0.220 HD
ENDBRANCH  28  30
BRANCH  28  32
ATOM     32  O   UNL     1      39.057 -26.299 -12.466  0.00  0.00    -0.322 OA
ATOM     33  H   UNL     1      38.327 -26.750 -12.013  0.00  0.00    +0.220 HD
ENDBRANCH  28  32
ENDBRANCH  21  28
BRANCH  21  34
ATOM     34  O   UNL     1      36.593 -26.680 -12.982  0.00  0.00    -0.364 OA
ATOM     35  H   UNL     1      36.338 -27.181 -13.771  0.00  0.00    +0.212 HD
ENDBRANCH  21  34
ENDBRANCH  20  21
ENDBRANCH  19  20
ENDBRANCH   1  19
TORSDOF 12
ENDMDL
MODEL 5
REMARK VINA RESULT:     -10.1      1.166      2.662
REMARK  Name = 16122556
REMARK  12 active torsions:
REMARK  status: ('A' for Active; 'I' for Inactive)
REMARK    1  A    between atoms: C_1  and  O_19
REMARK    2  A    between atoms: C_2  and  C_7
REMARK    3  A    between atoms: C_8  and  C_13
REMARK    4  A    between atoms: O_19  and  C_20
REMARK    5  A    between atoms: C_20  and  C_21
REMARK    6  A    between atoms: C_21  and  P_22
REMARK    7  A    between atoms: C_21  and  P_28
REMARK    8  A    between atoms: C_21  and  O_34
REMARK    9  A    between atoms: P_22  and  O_24
REMARK   10  A    between atoms: P_22  and  O_26
REMARK   11  A    between atoms: P_28  and  O_30
REMARK   12  A    between atoms: P_28  and  O_32
REMARK                            x       y       z     vdW  Elec       q    Type
REMARK                         _______ _______ _______ _____ _____    ______ ____
ROOT
ATOM      1  C   UNL     1      35.265 -22.801 -17.264  0.00  0.00    +0.139 C 
ATOM      2  C   UNL     1      35.035 -21.301 -19.132  0.00  0.00    +0.003 C 
ATOM      3  C   UNL     1      35.824 -21.873 -18.135  0.00  0.00    +0.037 C 
ATOM      4  C   UNL     1      33.929 -23.165 -17.376  0.00  0.00    +0.037 C 
ATOM      5  C   UNL     1      33.693 -21.661 -19.252  0.00  0.00    +0.000 C 
ATOM      6  C   UNL     1      33.140 -22.593 -18.374  0.00  0.00    +0.003 C 
ENDROOT
BRANCH   2   7
ATOM      7  C   UNL     1      35.608 -20.333 -20.042  0.00  0.00    +0.000 C 
ATOM      8  C   UNL     1      35.396 -18.323 -21.366  0.00  0.00    +0.000 C 
ATOM      9  C   UNL     1      34.843 -19.254 -20.488  0.00  0.00    +0.000 C 
ATOM     10  C   UNL     1      36.926 -20.479 -20.476  0.00  0.00    +0.000 C 
ATOM     11  C   UNL     1      36.713 -18.469 -21.800  0.00  0.00    +0.000 C 
ATOM     12  C   UNL     1      37.478 -19.547 -21.355  0.00  0.00    +0.000 C 
BRANCH   8  13
ATOM     13  C   UNL     1      34.603 -17.204 -21.830  0.00  0.00    +0.000 C 
ATOM     14  C   UNL     1      34.763 -16.729 -23.131  0.00  0.00    +0.000 C 
ATOM     15  C   UNL     1      33.680 -16.602 -20.975  0.00  0.00    +0.000 C 
ATOM     16  C   UNL     1      34.000 -15.651 -23.579  0.00  0.00    +0.000 C 
ATOM     17  C   UNL     1      32.916 -15.524 -21.422  0.00  0.00    +0.000 C 
ATOM     18  C   UNL     1      33.076 -15.049 -22.725  0.00  0.00    +0.000 C 
ENDBRANCH   8  13
ENDBRANCH   2   7
BRANCH   1  19
ATOM     19  O   UNL     1      36.040 -23.364 -16.283  0.00  0.00    -0.472 OA
BRANCH  19  20
ATOM     20  C   UNL     1      35.384 -23.741 -15.083  0.00  0.00    +0.256 C 
BRANCH  20  21
ATOM     21  C   UNL     1      36.384 -24.312 -14.069  0.00  0.00    +0.315 C 
BRANCH  21  22
ATOM     22  P   UNL     1      37.077 -25.886 -14.679  0.00  0.00    +0.375 P 
ATOM     23  O   UNL     1      37.318 -26.920 -13.618  0.00  0.00    -0.255 OA
BRANCH  22  24
ATOM     24  O   UNL     1      36.050 -26.330 -15.845  0.00  0.00    -0.322 OA
ATOM     25  H   UNL     1      36.516 -26.344 -16.696  0.00  0.00    +0.220 HD
ENDBRANCH  22  24
BRANCH  22  26
ATOM     26  O   UNL     1      38.390 -25.426 -15.499  0.00  0.00    -0.322 OA
ATOM     27  H   UNL     1      38.140 -25.198 -16.409  0.00  0.00    +0.220 HD
ENDBRANCH  22  26
ENDBRANCH  21  22
BRANCH  21  28
ATOM     28  P   UNL     1      35.771 -24.078 -12.367  0.00  0.00    +0.375 P 
ATOM     29  O   UNL     1      35.876 -25.289 -11.488  0.00  0.00    -0.255 OA
BRANCH  28  30
ATOM     30  O   UNL     1      36.586 -22.783 -11.849  0.00  0.00    -0.322 OA
ATOM     31  H   UNL     1      36.957 -22.963 -10.971  0.00  0.00    +0.220 HD
ENDBRANCH  28  30
BRANCH  28  32
ATOM     32  O   UNL     1      34.272 -23.511 -12.574  0.00  0.00    -0.322 OA
ATOM     33  H   UNL     1      33.970 -23.718 -13.472  0.00  0.00    +0.220 HD
ENDBRANCH  28  32
ENDBRANCH  21  28
BRANCH  21  34
ATOM     34  O   UNL     1      37.521 -23.441 -14.105  0.00  0.00    -0.364 OA
ATOM     35  H   UNL     1      38.020 -23.527 -13.278  0.00  0.00    +0.212 HD
ENDBRANCH  21  34
ENDBRANCH  20  21
ENDBRANCH  19  20
ENDBRANCH   1  19
TORSDOF 12
ENDMDL
MODEL 6
REMARK VINA RESULT:      -9.7      2.674      4.279
REMARK  Name = 16122556
REMARK  12 active torsions:
REMARK  status: ('A' for Active; 'I' for Inactive)
REMARK    1  A    between atoms: C_1  and  O_19
REMARK    2  A    between atoms: C_2  and  C_7
REMARK    3  A    between atoms: C_8  and  C_13
REMARK    4  A    between atoms: O_19  and  C_20
REMARK    5  A    between atoms: C_20  and  C_21
REMARK    6  A    between atoms: C_21  and  P_22
REMARK    7  A    between atoms: C_21  and  P_28
REMARK    8  A    between atoms: C_21  and  O_34
REMARK    9  A    between atoms: P_22  and  O_24
REMARK   10  A    between atoms: P_22  and  O_26
REMARK   11  A    between atoms: P_28  and  O_30
REMARK   12  A    between atoms: P_28  and  O_32
REMARK                            x       y       z     vdW  Elec       q    Type
REMARK                         _______ _______ _______ _____ _____    ______ ____
ROOT
ATOM      1  C   UNL     1      33.727 -21.975 -18.586  0.00  0.00    +0.139 C 
ATOM      2  C   UNL     1      34.785 -20.526 -20.191  0.00  0.00    +0.003 C 
ATOM      3  C   UNL     1      33.626 -21.062 -19.630  0.00  0.00    +0.037 C 
ATOM      4  C   UNL     1      34.970 -22.358 -18.095  0.00  0.00    +0.037 C 
ATOM      5  C   UNL     1      36.035 -20.904 -19.704  0.00  0.00    +0.000 C 
ATOM      6  C   UNL     1      36.128 -21.820 -18.657  0.00  0.00    +0.003 C 
ENDROOT
BRANCH   2   7
ATOM      7  C   UNL     1      34.688 -19.576 -21.278  0.00  0.00    +0.000 C 
ATOM      8  C   UNL     1      34.085 -17.383 -22.094  0.00  0.00    +0.000 C 
ATOM      9  C   UNL     1      34.179 -18.298 -21.046  0.00  0.00    +0.000 C 
ATOM     10  C   UNL     1      35.105 -19.938 -22.559  0.00  0.00    +0.000 C 
ATOM     11  C   UNL     1      34.501 -17.745 -23.375  0.00  0.00    +0.000 C 
ATOM     12  C   UNL     1      35.011 -19.023 -23.608  0.00  0.00    +0.000 C 
BRANCH   8  13
ATOM     13  C   UNL     1      33.555 -16.058 -21.855  0.00  0.00    +0.000 C 
ATOM     14  C   UNL     1      33.188 -15.677 -20.565  0.00  0.00    +0.000 C 
ATOM     15  C   UNL     1      33.410 -15.163 -22.914  0.00  0.00    +0.000 C 
ATOM     16  C   UNL     1      32.677 -14.400 -20.333  0.00  0.00    +0.000 C 
ATOM     17  C   UNL     1      32.900 -13.885 -22.684  0.00  0.00    +0.000 C 
ATOM     18  C   UNL     1      32.534 -13.504 -21.392  0.00  0.00    +0.000 C 
ENDBRANCH   8  13
ENDBRANCH   2   7
BRANCH   1  19
ATOM     19  O   UNL     1      32.589 -22.504 -18.033  0.00  0.00    -0.472 OA
BRANCH  19  20
ATOM     20  C   UNL     1      32.745 -23.651 -17.212  0.00  0.00    +0.256 C 
BRANCH  20  21
ATOM     21  C   UNL     1      32.106 -23.429 -15.836  0.00  0.00    +0.315 C 
BRANCH  21  22
ATOM     22  P   UNL     1      33.070 -24.284 -14.543  0.00  0.00    +0.375 P 
ATOM     23  O   UNL     1      34.477 -24.631 -14.935  0.00  0.00    -0.255 OA
BRANCH  22  24
ATOM     24  O   UNL     1      32.938 -23.309 -13.260  0.00  0.00    -0.322 OA
ATOM     25  H   UNL     1      32.012 -23.043 -13.152  0.00  0.00    +0.220 HD
ENDBRANCH  22  24
BRANCH  22  26
ATOM     26  O   UNL     1      32.138 -25.541 -14.148  0.00  0.00    -0.322 OA
ATOM     27  H   UNL     1      31.406 -25.238 -13.587  0.00  0.00    +0.220 HD
ENDBRANCH  22  26
ENDBRANCH  21  22
BRANCH  21  28
ATOM     28  P   UNL     1      30.288 -23.519 -15.955  0.00  0.00    +0.375 P 
ATOM     29  O   UNL     1      29.734 -24.904 -16.106  0.00  0.00    -0.255 OA
BRANCH  28  30
ATOM     30  O   UNL     1      29.786 -22.719 -14.644  0.00  0.00    -0.322 OA
ATOM     31  H   UNL     1      29.020 -23.174 -14.260  0.00  0.00    +0.220 HD
ENDBRANCH  28  30
BRANCH  28  32
ATOM     32  O   UNL     1      29.933 -22.505 -17.163  0.00  0.00    -0.322 OA
ATOM     33  H   UNL     1      28.975 -22.511 -17.319  0.00  0.00    +0.220 HD
ENDBRANCH  28  32
ENDBRANCH  21  28
BRANCH  21  34
ATOM     34  O   UNL     1      32.322 -22.049 -15.519  0.00  0.00    -0.364 OA
ATOM     35  H   UNL     1      31.487 -21.564 -15.605  0.00  0.00    +0.212 HD
ENDBRANCH  21  34
ENDBRANCH  20  21
ENDBRANCH  19  20
ENDBRANCH   1  19
TORSDOF 12
ENDMDL
MODEL 7
REMARK VINA RESULT:      -9.7     10.614     13.152
REMARK  Name = 16122556
REMARK  12 active torsions:
REMARK  status: ('A' for Active; 'I' for Inactive)
REMARK    1  A    between atoms: C_1  and  O_19
REMARK    2  A    between atoms: C_2  and  C_7
REMARK    3  A    between atoms: C_8  and  C_13
REMARK    4  A    between atoms: O_19  and  C_20
REMARK    5  A    between atoms: C_20  and  C_21
REMARK    6  A    between atoms: C_21  and  P_22
REMARK    7  A    between atoms: C_21  and  P_28
REMARK    8  A    between atoms: C_21  and  O_34
REMARK    9  A    between atoms: P_22  and  O_24
REMARK   10  A    between atoms: P_22  and  O_26
REMARK   11  A    between atoms: P_28  and  O_30
REMARK   12  A    between atoms: P_28  and  O_32
REMARK                            x       y       z     vdW  Elec       q    Type
REMARK                         _______ _______ _______ _____ _____    ______ ____
ROOT
ATOM      1  C   UNL     1      31.805 -11.494 -22.051  0.00  0.00    +0.139 C 
ATOM      2  C   UNL     1      32.756 -13.704 -21.961  0.00  0.00    +0.003 C 
ATOM      3  C   UNL     1      32.394 -12.575 -22.697  0.00  0.00    +0.037 C 
ATOM      4  C   UNL     1      31.573 -11.526 -20.681  0.00  0.00    +0.037 C 
ATOM      5  C   UNL     1      32.528 -13.743 -20.586  0.00  0.00    +0.000 C 
ATOM      6  C   UNL     1      31.936 -12.654 -19.946  0.00  0.00    +0.003 C 
ENDROOT
BRANCH   2   7
ATOM      7  C   UNL     1      33.369 -14.833 -22.625  0.00  0.00    +0.000 C 
ATOM      8  C   UNL     1      34.368 -17.031 -22.524  0.00  0.00    +0.000 C 
ATOM      9  C   UNL     1      33.776 -15.943 -21.884  0.00  0.00    +0.000 C 
ATOM     10  C   UNL     1      33.555 -14.813 -24.008  0.00  0.00    +0.000 C 
ATOM     11  C   UNL     1      34.554 -17.011 -23.907  0.00  0.00    +0.000 C 
ATOM     12  C   UNL     1      34.147 -15.901 -24.648  0.00  0.00    +0.000 C 
BRANCH   8  13
ATOM     13  C   UNL     1      34.792 -18.182 -21.756  0.00  0.00    +0.000 C 
ATOM     14  C   UNL     1      36.147 -18.389 -21.501  0.00  0.00    +0.000 C 
ATOM     15  C   UNL     1      33.845 -19.084 -21.272  0.00  0.00    +0.000 C 
ATOM     16  C   UNL     1      36.557 -19.498 -20.761  0.00  0.00    +0.000 C 
ATOM     17  C   UNL     1      34.254 -20.194 -20.532  0.00  0.00    +0.000 C 
ATOM     18  C   UNL     1      35.610 -20.400 -20.275  0.00  0.00    +0.000 C 
ENDBRANCH   8  13
ENDBRANCH   2   7
BRANCH   1  19
ATOM     19  O   UNL     1      31.448 -10.384 -22.772  0.00  0.00    -0.472 OA
BRANCH  19  20
ATOM     20  C   UNL     1      32.413  -9.866 -23.675  0.00  0.00    +0.256 C 
BRANCH  20  21
ATOM     21  C   UNL     1      32.868  -8.466 -23.244  0.00  0.00    +0.315 C 
BRANCH  21  22
ATOM     22  P   UNL     1      31.482  -7.285 -23.360  0.00  0.00    +0.375 P 
ATOM     23  O   UNL     1      31.162  -6.564 -22.083  0.00  0.00    -0.255 OA
BRANCH  22  24
ATOM     24  O   UNL     1      31.894  -6.331 -24.598  0.00  0.00    -0.322 OA
ATOM     25  H   UNL     1      32.488  -5.632 -24.283  0.00  0.00    +0.220 HD
ENDBRANCH  22  24
BRANCH  22  26
ATOM     26  O   UNL     1      30.278  -8.175 -23.965  0.00  0.00    -0.322 OA
ATOM     27  H   UNL     1      29.481  -7.628 -24.049  0.00  0.00    +0.220 HD
ENDBRANCH  22  26
ENDBRANCH  21  22
BRANCH  21  28
ATOM     28  P   UNL     1      34.541  -8.115 -23.881  0.00  0.00    +0.375 P 
ATOM     29  O   UNL     1      34.579  -7.280 -25.126  0.00  0.00    -0.255 OA
BRANCH  28  30
ATOM     30  O   UNL     1      35.302  -7.479 -22.606  0.00  0.00    -0.322 OA
ATOM     31  H   UNL     1      36.260  -7.489 -22.762  0.00  0.00    +0.220 HD
ENDBRANCH  28  30
BRANCH  28  32
ATOM     32  O   UNL     1      35.213  -9.578 -24.019  0.00  0.00    -0.322 OA
ATOM     33  H   UNL     1      34.932 -10.134 -23.276  0.00  0.00    +0.220 HD
ENDBRANCH  28  32
ENDBRANCH  21  28
BRANCH  21  34
ATOM     34  O   UNL     1      33.090  -8.542 -21.831  0.00  0.00    -0.364 OA
ATOM     35  H   UNL     1      32.529  -7.891 -21.381  0.00  0.00    +0.212 HD
ENDBRANCH  21  34
ENDBRANCH  20  21
ENDBRANCH  19  20
ENDBRANCH   1  19
TORSDOF 12
ENDMDL
MODEL 8
REMARK VINA RESULT:      -9.7      5.822      9.856
REMARK  Name = 16122556
REMARK  12 active torsions:
REMARK  status: ('A' for Active; 'I' for Inactive)
REMARK    1  A    between atoms: C_1  and  O_19
REMARK    2  A    between atoms: C_2  and  C_7
REMARK    3  A    between atoms: C_8  and  C_13
REMARK    4  A    between atoms: O_19  and  C_20
REMARK    5  A    between atoms: C_20  and  C_21
REMARK    6  A    between atoms: C_21  and  P_22
REMARK    7  A    between atoms: C_21  and  P_28
REMARK    8  A    between atoms: C_21  and  O_34
REMARK    9  A    between atoms: P_22  and  O_24
REMARK   10  A    between atoms: P_22  and  O_26
REMARK   11  A    between atoms: P_28  and  O_30
REMARK   12  A    between atoms: P_28  and  O_32
REMARK                            x       y       z     vdW  Elec       q    Type
REMARK                         _______ _______ _______ _____ _____    ______ ____
ROOT
ATOM      1  C   UNL     1      34.988 -20.349 -20.668  0.00  0.00    +0.139 C 
ATOM      2  C   UNL     1      35.005 -21.757 -18.715  0.00  0.00    +0.003 C 
ATOM      3  C   UNL     1      34.296 -21.036 -19.676  0.00  0.00    +0.037 C 
ATOM      4  C   UNL     1      36.376 -20.373 -20.712  0.00  0.00    +0.037 C 
ATOM      5  C   UNL     1      36.399 -21.787 -18.753  0.00  0.00    +0.000 C 
ATOM      6  C   UNL     1      37.084 -21.095 -19.751  0.00  0.00    +0.003 C 
ENDROOT
BRANCH   2   7
ATOM      7  C   UNL     1      34.294 -22.474 -17.679  0.00  0.00    +0.000 C 
ATOM      8  C   UNL     1      34.303 -23.684 -15.588  0.00  0.00    +0.000 C 
ATOM      9  C   UNL     1      34.988 -22.992 -16.586  0.00  0.00    +0.000 C 
ATOM     10  C   UNL     1      32.913 -22.648 -17.774  0.00  0.00    +0.000 C 
ATOM     11  C   UNL     1      32.922 -23.859 -15.683  0.00  0.00    +0.000 C 
ATOM     12  C   UNL     1      32.227 -23.341 -16.776  0.00  0.00    +0.000 C 
BRANCH   8  13
ATOM     13  C   UNL     1      35.022 -24.223 -14.454  0.00  0.00    +0.000 C 
ATOM     14  C   UNL     1      36.148 -25.020 -14.658  0.00  0.00    +0.000 C 
ATOM     15  C   UNL     1      34.589 -23.947 -13.157  0.00  0.00    +0.000 C 
ATOM     16  C   UNL     1      36.843 -25.539 -13.565  0.00  0.00    +0.000 C 
ATOM     17  C   UNL     1      35.282 -24.466 -12.064  0.00  0.00    +0.000 C 
ATOM     18  C   UNL     1      36.410 -25.262 -12.269  0.00  0.00    +0.000 C 
ENDBRANCH   8  13
ENDBRANCH   2   7
BRANCH   1  19
ATOM     19  O   UNL     1      34.292 -19.640 -21.613  0.00  0.00    -0.472 OA
BRANCH  19  20
ATOM     20  C   UNL     1      33.591 -18.490 -21.167  0.00  0.00    +0.256 C 
BRANCH  20  21
ATOM     21  C   UNL     1      34.310 -17.207 -21.603  0.00  0.00    +0.315 C 
BRANCH  21  22
ATOM     22  P   UNL     1      33.284 -15.745 -21.228  0.00  0.00    +0.375 P 
ATOM     23  O   UNL     1      32.028 -16.039 -20.462  0.00  0.00    -0.255 OA
BRANCH  22  24
ATOM     24  O   UNL     1      34.311 -14.735 -20.495  0.00  0.00    -0.322 OA
ATOM     25  H   UNL     1      34.002 -14.559 -19.593  0.00  0.00    +0.220 HD
ENDBRANCH  22  24
BRANCH  22  26
ATOM     26  O   UNL     1      33.062 -15.061 -22.674  0.00  0.00    -0.322 OA
ATOM     27  H   UNL     1      32.138 -14.775 -22.758  0.00  0.00    +0.220 HD
ENDBRANCH  22  26
ENDBRANCH  21  22
BRANCH  21  28
ATOM     28  P   UNL     1      35.152 -17.459 -23.202  0.00  0.00    +0.375 P 
ATOM     29  O   UNL     1      34.358 -18.228 -24.217  0.00  0.00    -0.255 OA
BRANCH  28  30
ATOM     30  O   UNL     1      35.568 -15.963 -23.647  0.00  0.00    -0.322 OA
ATOM     31  H   UNL     1      35.161 -15.321 -23.045  0.00  0.00    +0.220 HD
ENDBRANCH  28  30
BRANCH  28  32
ATOM     32  O   UNL     1      36.565 -18.128 -22.790  0.00  0.00    -0.322 OA
ATOM     33  H   UNL     1      37.250 -17.844 -23.415  0.00  0.00    +0.220 HD
ENDBRANCH  28  32
ENDBRANCH  21  28
BRANCH  21  34
ATOM     34  O   UNL     1      35.412 -17.049 -20.701  0.00  0.00    -0.364 OA
ATOM     35  H   UNL     1      36.241 -17.234 -21.169  0.00  0.00    +0.212 HD
ENDBRANCH  21  34
ENDBRANCH  20  21
ENDBRANCH  19  20
ENDBRANCH   1  19
TORSDOF 12
ENDMDL
MODEL 9
REMARK VINA RESULT:      -9.6      4.606      7.273
REMARK  Name = 16122556
REMARK  12 active torsions:
REMARK  status: ('A' for Active; 'I' for Inactive)
REMARK    1  A    between atoms: C_1  and  O_19
REMARK    2  A    between atoms: C_2  and  C_7
REMARK    3  A    between atoms: C_8  and  C_13
REMARK    4  A    between atoms: O_19  and  C_20
REMARK    5  A    between atoms: C_20  and  C_21
REMARK    6  A    between atoms: C_21  and  P_22
REMARK    7  A    between atoms: C_21  and  P_28
REMARK    8  A    between atoms: C_21  and  O_34
REMARK    9  A    between atoms: P_22  and  O_24
REMARK   10  A    between atoms: P_22  and  O_26
REMARK   11  A    between atoms: P_28  and  O_30
REMARK   12  A    between atoms: P_28  and  O_32
REMARK                            x       y       z     vdW  Elec       q    Type
REMARK                         _______ _______ _______ _____ _____    ______ ____
ROOT
ATOM      1  C   UNL     1      35.433 -23.573 -15.881  0.00  0.00    +0.139 C 
ATOM      2  C   UNL     1      33.036 -23.493 -16.085  0.00  0.00    +0.003 C 
ATOM      3  C   UNL     1      34.174 -23.905 -15.393  0.00  0.00    +0.037 C 
ATOM      4  C   UNL     1      35.569 -22.835 -17.051  0.00  0.00    +0.037 C 
ATOM      5  C   UNL     1      33.163 -22.752 -17.260  0.00  0.00    +0.000 C 
ATOM      6  C   UNL     1      34.429 -22.423 -17.742  0.00  0.00    +0.003 C 
ENDROOT
BRANCH   2   7
ATOM      7  C   UNL     1      31.722 -23.835 -15.584  0.00  0.00    +0.000 C 
ATOM      8  C   UNL     1      29.325 -23.527 -15.613  0.00  0.00    +0.000 C 
ATOM      9  C   UNL     1      30.591 -23.198 -16.097  0.00  0.00    +0.000 C 
ATOM     10  C   UNL     1      31.586 -24.802 -14.588  0.00  0.00    +0.000 C 
ATOM     11  C   UNL     1      29.189 -24.494 -14.617  0.00  0.00    +0.000 C 
ATOM     12  C   UNL     1      30.319 -25.131 -14.104  0.00  0.00    +0.000 C 
BRANCH   8  13
ATOM     13  C   UNL     1      28.152 -22.866 -16.143  0.00  0.00    +0.000 C 
ATOM     14  C   UNL     1      27.960 -22.787 -17.522  0.00  0.00    +0.000 C 
ATOM     15  C   UNL     1      27.215 -22.308 -15.275  0.00  0.00    +0.000 C 
ATOM     16  C   UNL     1      26.830 -22.150 -18.033  0.00  0.00    +0.000 C 
ATOM     17  C   UNL     1      26.084 -21.671 -15.785  0.00  0.00    +0.000 C 
ATOM     18  C   UNL     1      25.891 -21.592 -17.165  0.00  0.00    +0.000 C 
ENDBRANCH   8  13
ENDBRANCH   2   7
BRANCH   1  19
ATOM     19  O   UNL     1      36.554 -23.977 -15.202  0.00  0.00    -0.472 OA
BRANCH  19  20
ATOM     20  C   UNL     1      36.847 -25.365 -15.213  0.00  0.00    +0.256 C 
BRANCH  20  21
ATOM     21  C   UNL     1      37.817 -25.728 -14.082  0.00  0.00    +0.315 C 
BRANCH  21  22
ATOM     22  P   UNL     1      37.110 -25.263 -12.466  0.00  0.00    +0.375 P 
ATOM     23  O   UNL     1      37.782 -24.101 -11.796  0.00  0.00    -0.255 OA
BRANCH  22  24
ATOM     24  O   UNL     1      35.538 -25.054 -12.782  0.00  0.00    -0.322 OA
ATOM     25  H   UNL     1      35.434 -24.363 -13.455  0.00  0.00    +0.220 HD
ENDBRANCH  22  24
BRANCH  22  26
ATOM     26  O   UNL     1      37.136 -26.646 -11.632  0.00  0.00    -0.322 OA
ATOM     27  H   UNL     1      36.250 -27.043 -11.634  0.00  0.00    +0.220 HD
ENDBRANCH  22  26
ENDBRANCH  21  22
BRANCH  21  28
ATOM     28  P   UNL     1      39.535 -25.356 -14.570  0.00  0.00    +0.375 P 
ATOM     29  O   UNL     1      40.334 -26.543 -15.017  0.00  0.00    -0.255 OA
BRANCH  28  30
ATOM     30  O   UNL     1      39.366 -24.188 -15.674  0.00  0.00    -0.322 OA
ATOM     31  H   UNL     1      39.106 -24.579 -16.523  0.00  0.00    +0.220 HD
ENDBRANCH  28  30
BRANCH  28  32
ATOM     32  O   UNL     1      40.135 -24.570 -13.292  0.00  0.00    -0.322 OA
ATOM     33  H   UNL     1      39.440 -24.021 -12.895  0.00  0.00    +0.220 HD
ENDBRANCH  28  32
ENDBRANCH  21  28
BRANCH  21  34
ATOM     34  O   UNL     1      37.824 -27.159 -14.015  0.00  0.00    -0.364 OA
ATOM     35  H   UNL     1      38.357 -27.514 -14.742  0.00  0.00    +0.212 HD
ENDBRANCH  21  34
ENDBRANCH  20  21
ENDBRANCH  19  20
ENDBRANCH   1  19
TORSDOF 12
ENDMDL
