MODEL 1
REMARK VINA RESULT:      -8.2      0.000      0.000
REMARK  Name = 71613
REMARK  1 active torsions:
REMARK  status: ('A' for Active; 'I' for Inactive)
REMARK    1  A    between atoms: C_20  and  O_22
REMARK                            x       y       z     vdW  Elec       q    Type
REMARK                         _______ _______ _______ _____ _____    ______ ____
ROOT
ATOM      1 BR   UNL     1      37.242 -22.753 -11.974  0.00  0.00    -0.074 Br
ATOM      2  O   UNL     1      34.850 -24.860 -12.400  0.00  0.00    -0.295 OA
ATOM      3  C   UNL     1      34.550 -22.506 -17.046  0.00  0.00    +0.000 C 
ATOM      4  C   UNL     1      34.352 -22.164 -18.569  0.00  0.00    +0.000 C 
ATOM      5  C   UNL     1      35.985 -23.063 -16.755  0.00  0.00    +0.000 C 
ATOM      6  C   UNL     1      36.100 -23.318 -15.249  0.00  0.00    +0.008 C 
ATOM      7  C   UNL     1      35.477 -21.157 -18.971  0.00  0.00    +0.002 C 
ATOM      8  C   UNL     1      35.073 -24.364 -14.768  0.00  0.00    +0.052 C 
ATOM      9  C   UNL     1      33.437 -23.401 -16.436  0.00  0.00    +0.000 C 
ATOM     10  C   UNL     1      37.069 -22.096 -17.252  0.00  0.00    +0.000 C 
ATOM     11  C   UNL     1      33.680 -23.775 -14.961  0.00  0.00    +0.007 C 
ATOM     12  C   UNL     1      36.882 -21.717 -18.720  0.00  0.00    +0.000 C 
ATOM     13  C   UNL     1      32.984 -21.462 -18.800  0.00  0.00    +0.002 C 
ATOM     14  C   UNL     1      37.428 -23.788 -14.656  0.00  0.00    +0.019 C 
ATOM     15  C   UNL     1      35.330 -20.639 -20.407  0.00  0.00    +0.029 C 
ATOM     16  C   UNL     1      34.390 -23.453 -19.432  0.00  0.00    +0.000 C 
ATOM     17  C   UNL     1      35.558 -24.511 -13.335  0.00  0.00    +0.160 C 
ATOM     18  C   UNL     1      37.044 -24.211 -13.232  0.00  0.00    +0.114 C 
ATOM     19  C   UNL     1      32.816 -20.901 -20.214  0.00  0.00    +0.029 C 
ATOM     20  C   UNL     1      33.966 -19.983 -20.616  0.00  0.00    +0.111 C 
ATOM     21  C   UNL     1      35.183 -25.760 -15.411  0.00  0.00    +0.007 C 
ENDROOT
BRANCH  20  22
ATOM     22  O   UNL     1      33.809 -19.631 -21.987  0.00  0.00    -0.384 OA
ATOM     23  H   UNL     1      33.005 -19.099 -22.094  0.00  0.00    +0.210 HD
ENDBRANCH  20  22
TORSDOF 1
ENDMDL
MODEL 2
REMARK VINA RESULT:      -7.1     15.784     19.990
REMARK  Name = 71613
REMARK  1 active torsions:
REMARK  status: ('A' for Active; 'I' for Inactive)
REMARK    1  A    between atoms: C_20  and  O_22
REMARK                            x       y       z     vdW  Elec       q    Type
REMARK                         _______ _______ _______ _____ _____    ______ ____
ROOT
ATOM      1 BR   UNL     1      32.738  -3.145 -29.557  0.00  0.00    -0.074 Br
ATOM      2  O   UNL     1      30.766  -1.786 -27.411  0.00  0.00    -0.295 OA
ATOM      3  C   UNL     1      31.872  -6.110 -24.711  0.00  0.00    +0.000 C 
ATOM      4  C   UNL     1      32.168  -7.166 -23.583  0.00  0.00    +0.000 C 
ATOM      5  C   UNL     1      33.161  -5.328 -25.131  0.00  0.00    +0.000 C 
ATOM      6  C   UNL     1      32.787  -4.365 -26.262  0.00  0.00    +0.008 C 
ATOM      7  C   UNL     1      33.294  -8.111 -24.112  0.00  0.00    +0.002 C 
ATOM      8  C   UNL     1      31.730  -3.337 -25.809  0.00  0.00    +0.052 C 
ATOM      9  C   UNL     1      30.680  -5.160 -24.409  0.00  0.00    +0.000 C 
ATOM     10  C   UNL     1      34.283  -6.288 -25.551  0.00  0.00    +0.000 C 
ATOM     11  C   UNL     1      30.444  -4.095 -25.497  0.00  0.00    +0.007 C 
ATOM     12  C   UNL     1      34.570  -7.349 -24.489  0.00  0.00    +0.000 C 
ATOM     13  C   UNL     1      30.911  -8.039 -23.304  0.00  0.00    +0.002 C 
ATOM     14  C   UNL     1      33.870  -3.523 -26.935  0.00  0.00    +0.019 C 
ATOM     15  C   UNL     1      33.598  -9.272 -23.158  0.00  0.00    +0.029 C 
ATOM     16  C   UNL     1      32.574  -6.461 -22.262  0.00  0.00    +0.000 C 
ATOM     17  C   UNL     1      31.721  -2.463 -27.051  0.00  0.00    +0.160 C 
ATOM     18  C   UNL     1      33.064  -2.509 -27.757  0.00  0.00    +0.114 C 
ATOM     19  C   UNL     1      31.185  -9.228 -22.382  0.00  0.00    +0.029 C 
ATOM     20  C   UNL     1      32.340 -10.093 -22.875  0.00  0.00    +0.111 C 
ATOM     21  C   UNL     1      32.138  -2.425 -24.636  0.00  0.00    +0.007 C 
ENDROOT
BRANCH  20  22
ATOM     22  O   UNL     1      32.624 -11.079 -21.888  0.00  0.00    -0.384 OA
ATOM     23  H   UNL     1      33.561 -11.028 -21.640  0.00  0.00    +0.210 HD
ENDBRANCH  20  22
TORSDOF 1
ENDMDL
MODEL 3
REMARK VINA RESULT:      -6.8      3.446      5.173
REMARK  Name = 71613
REMARK  1 active torsions:
REMARK  status: ('A' for Active; 'I' for Inactive)
REMARK    1  A    between atoms: C_20  and  O_22
REMARK                            x       y       z     vdW  Elec       q    Type
REMARK                         _______ _______ _______ _____ _____    ______ ____
ROOT
ATOM      1 BR   UNL     1      37.955 -26.977 -14.714  0.00  0.00    -0.074 Br
ATOM      2  O   UNL     1      38.482 -23.914 -15.543  0.00  0.00    -0.295 OA
ATOM      3  C   UNL     1      33.269 -23.743 -15.500  0.00  0.00    +0.000 C 
ATOM      4  C   UNL     1      31.761 -23.315 -15.362  0.00  0.00    +0.000 C 
ATOM      5  C   UNL     1      33.856 -24.255 -14.141  0.00  0.00    +0.000 C 
ATOM      6  C   UNL     1      35.303 -24.694 -14.384  0.00  0.00    +0.008 C 
ATOM      7  C   UNL     1      30.977 -24.542 -14.796  0.00  0.00    +0.002 C 
ATOM      8  C   UNL     1      36.180 -23.523 -14.874  0.00  0.00    +0.052 C 
ATOM      9  C   UNL     1      34.182 -22.682 -16.173  0.00  0.00    +0.000 C 
ATOM     10  C   UNL     1      33.006 -25.394 -13.561  0.00  0.00    +0.000 C 
ATOM     11  C   UNL     1      35.665 -23.095 -16.244  0.00  0.00    +0.007 C 
ATOM     12  C   UNL     1      31.530 -25.020 -13.449  0.00  0.00    +0.000 C 
ATOM     13  C   UNL     1      31.159 -22.970 -16.755  0.00  0.00    +0.002 C 
ATOM     14  C   UNL     1      36.110 -25.321 -13.247  0.00  0.00    +0.019 C 
ATOM     15  C   UNL     1      29.464 -24.305 -14.728  0.00  0.00    +0.029 C 
ATOM     16  C   UNL     1      31.624 -22.068 -14.450  0.00  0.00    +0.000 C 
ATOM     17  C   UNL     1      37.528 -24.223 -14.842  0.00  0.00    +0.160 C 
ATOM     18  C   UNL     1      37.542 -25.323 -13.795  0.00  0.00    +0.114 C 
ATOM     19  C   UNL     1      29.644 -22.761 -16.730  0.00  0.00    +0.029 C 
ATOM     20  C   UNL     1      28.903 -23.937 -16.101  0.00  0.00    +0.111 C 
ATOM     21  C   UNL     1      36.290 -22.319 -13.918  0.00  0.00    +0.007 C 
ENDROOT
BRANCH  20  22
ATOM     22  O   UNL     1      27.526 -23.595 -15.981  0.00  0.00    -0.384 OA
ATOM     23  H   UNL     1      27.066 -23.816 -16.806  0.00  0.00    +0.210 HD
ENDBRANCH  20  22
TORSDOF 1
ENDMDL
MODEL 4
REMARK VINA RESULT:      -6.8      4.024      6.212
REMARK  Name = 71613
REMARK  1 active torsions:
REMARK  status: ('A' for Active; 'I' for Inactive)
REMARK    1  A    between atoms: C_20  and  O_22
REMARK                            x       y       z     vdW  Elec       q    Type
REMARK                         _______ _______ _______ _____ _____    ______ ____
ROOT
ATOM      1 BR   UNL     1      29.698 -24.517 -16.992  0.00  0.00    -0.074 Br
ATOM      2  O   UNL     1      29.549 -24.522 -13.779  0.00  0.00    -0.295 OA
ATOM      3  C   UNL     1      34.745 -24.445 -14.242  0.00  0.00    +0.000 C 
ATOM      4  C   UNL     1      36.287 -24.204 -14.045  0.00  0.00    +0.000 C 
ATOM      5  C   UNL     1      34.063 -23.265 -15.013  0.00  0.00    +0.000 C 
ATOM      6  C   UNL     1      32.583 -23.610 -15.200  0.00  0.00    +0.008 C 
ATOM      7  C   UNL     1      36.909 -23.976 -15.460  0.00  0.00    +0.002 C 
ATOM      8  C   UNL     1      31.861 -23.779 -13.848  0.00  0.00    +0.052 C 
ATOM      9  C   UNL     1      33.979 -24.819 -12.943  0.00  0.00    +0.000 C 
ATOM     10  C   UNL     1      34.760 -23.001 -16.355  0.00  0.00    +0.000 C 
ATOM     11  C   UNL     1      32.461 -24.992 -13.145  0.00  0.00    +0.007 C 
ATOM     12  C   UNL     1      36.266 -22.798 -16.200  0.00  0.00    +0.000 C 
ATOM     13  C   UNL     1      36.965 -25.460 -13.427  0.00  0.00    +0.002 C 
ATOM     14  C   UNL     1      31.677 -22.673 -16.000  0.00  0.00    +0.019 C 
ATOM     15  C   UNL     1      38.436 -23.851 -15.429  0.00  0.00    +0.029 C 
ATOM     16  C   UNL     1      36.539 -22.999 -13.100  0.00  0.00    +0.000 C 
ATOM     17  C   UNL     1      30.441 -23.927 -14.369  0.00  0.00    +0.160 C 
ATOM     18  C   UNL     1      30.270 -23.200 -15.692  0.00  0.00    +0.114 C 
ATOM     19  C   UNL     1      38.492 -25.385 -13.411  0.00  0.00    +0.029 C 
ATOM     20  C   UNL     1      39.075 -25.083 -14.788  0.00  0.00    +0.111 C 
ATOM     21  C   UNL     1      31.861 -22.543 -12.927  0.00  0.00    +0.007 C 
ENDROOT
BRANCH  20  22
ATOM     22  O   UNL     1      40.478 -24.881 -14.654  0.00  0.00    -0.384 OA
ATOM     23  H   UNL     1      40.755 -25.126 -13.758  0.00  0.00    +0.210 HD
ENDBRANCH  20  22
TORSDOF 1
ENDMDL
MODEL 5
REMARK VINA RESULT:      -6.6     14.046     18.218
REMARK  Name = 71613
REMARK  1 active torsions:
REMARK  status: ('A' for Active; 'I' for Inactive)
REMARK    1  A    between atoms: C_20  and  O_22
REMARK                            x       y       z     vdW  Elec       q    Type
REMARK                         _______ _______ _______ _____ _____    ______ ____
ROOT
ATOM      1 BR   UNL     1      32.696  -4.250 -28.365  0.00  0.00    -0.074 Br
ATOM      2  O   UNL     1      30.863  -3.100 -25.986  0.00  0.00    -0.295 OA
ATOM      3  C   UNL     1      31.855  -7.782 -23.910  0.00  0.00    +0.000 C 
ATOM      4  C   UNL     1      32.140  -8.986 -22.939  0.00  0.00    +0.000 C 
ATOM      5  C   UNL     1      33.165  -7.006 -24.276  0.00  0.00    +0.000 C 
ATOM      6  C   UNL     1      32.798  -5.889 -25.258  0.00  0.00    +0.008 C 
ATOM      7  C   UNL     1      33.202  -9.901 -23.629  0.00  0.00    +0.002 C 
ATOM      8  C   UNL     1      31.806  -4.886 -24.636  0.00  0.00    +0.052 C 
ATOM      9  C   UNL     1      30.720  -6.830 -23.441  0.00  0.00    +0.000 C 
ATOM     10  C   UNL     1      34.226  -7.950 -24.860  0.00  0.00    +0.000 C 
ATOM     11  C   UNL     1      30.498  -5.623 -24.373  0.00  0.00    +0.007 C 
ATOM     12  C   UNL     1      34.498  -9.150 -23.956  0.00  0.00    +0.000 C 
ATOM     13  C   UNL     1      30.853  -9.835 -22.725  0.00  0.00    +0.002 C 
ATOM     14  C   UNL     1      33.897  -5.013 -25.860  0.00  0.00    +0.019 C 
ATOM     15  C   UNL     1      33.483 -11.188 -22.845  0.00  0.00    +0.029 C 
ATOM     16  C   UNL     1      32.623  -8.477 -21.556  0.00  0.00    +0.000 C 
ATOM     17  C   UNL     1      31.796  -3.857 -25.754  0.00  0.00    +0.160 C 
ATOM     18  C   UNL     1      33.112  -3.868 -26.513  0.00  0.00    +0.114 C 
ATOM     19  C   UNL     1      31.103 -11.144 -21.975  0.00  0.00    +0.029 C 
ATOM     20  C   UNL     1      32.199 -11.986 -22.621  0.00  0.00    +0.111 C 
ATOM     21  C   UNL     1      32.296  -4.151 -23.373  0.00  0.00    +0.007 C 
ENDROOT
BRANCH  20  22
ATOM     22  O   UNL     1      32.469 -13.103 -21.780  0.00  0.00    -0.384 OA
ATOM     23  H   UNL     1      32.726 -13.863 -22.326  0.00  0.00    +0.210 HD
ENDBRANCH  20  22
TORSDOF 1
ENDMDL
MODEL 6
REMARK VINA RESULT:      -6.5      2.477      6.821
REMARK  Name = 71613
REMARK  1 active torsions:
REMARK  status: ('A' for Active; 'I' for Inactive)
REMARK    1  A    between atoms: C_20  and  O_22
REMARK                            x       y       z     vdW  Elec       q    Type
REMARK                         _______ _______ _______ _____ _____    ______ ____
ROOT
ATOM      1 BR   UNL     1      33.251 -18.598 -20.660  0.00  0.00    -0.074 Br
ATOM      2  O   UNL     1      36.287 -19.552 -21.122  0.00  0.00    -0.295 OA
ATOM      3  C   UNL     1      35.346 -22.283 -16.779  0.00  0.00    +0.000 C 
ATOM      4  C   UNL     1      35.310 -23.371 -15.643  0.00  0.00    +0.000 C 
ATOM      5  C   UNL     1      34.298 -22.579 -17.903  0.00  0.00    +0.000 C 
ATOM      6  C   UNL     1      34.371 -21.447 -18.932  0.00  0.00    +0.008 C 
ATOM      7  C   UNL     1      33.848 -23.427 -15.096  0.00  0.00    +0.002 C 
ATOM      8  C   UNL     1      35.765 -21.361 -19.587  0.00  0.00    +0.052 C 
ATOM      9  C   UNL     1      36.761 -21.998 -17.354  0.00  0.00    +0.000 C 
ATOM     10  C   UNL     1      32.885 -22.727 -17.322  0.00  0.00    +0.000 C 
ATOM     11  C   UNL     1      36.767 -20.974 -18.506  0.00  0.00    +0.007 C 
ATOM     12  C   UNL     1      32.825 -23.752 -16.191  0.00  0.00    +0.000 C 
ATOM     13  C   UNL     1      36.240 -22.966 -14.464  0.00  0.00    +0.002 C 
ATOM     14  C   UNL     1      33.396 -21.422 -20.109  0.00  0.00    +0.019 C 
ATOM     15  C   UNL     1      33.695 -24.364 -13.892  0.00  0.00    +0.029 C 
ATOM     16  C   UNL     1      35.781 -24.747 -16.184  0.00  0.00    +0.000 C 
ATOM     17  C   UNL     1      35.455 -20.307 -20.637  0.00  0.00    +0.160 C 
ATOM     18  C   UNL     1      33.989 -20.349 -21.032  0.00  0.00    +0.114 C 
ATOM     19  C   UNL     1      36.089 -23.859 -13.231  0.00  0.00    +0.029 C 
ATOM     20  C   UNL     1      34.642 -23.963 -12.762  0.00  0.00    +0.111 C 
ATOM     21  C   UNL     1      36.226 -22.617 -20.353  0.00  0.00    +0.007 C 
ENDROOT
BRANCH  20  22
ATOM     22  O   UNL     1      34.572 -24.925 -11.714  0.00  0.00    -0.384 OA
ATOM     23  H   UNL     1      35.318 -25.541 -11.791  0.00  0.00    +0.210 HD
ENDBRANCH  20  22
TORSDOF 1
ENDMDL
MODEL 7
REMARK VINA RESULT:      -6.2      2.523      4.250
REMARK  Name = 71613
REMARK  1 active torsions:
REMARK  status: ('A' for Active; 'I' for Inactive)
REMARK    1  A    between atoms: C_20  and  O_22
REMARK                            x       y       z     vdW  Elec       q    Type
REMARK                         _______ _______ _______ _____ _____    ______ ____
ROOT
ATOM      1 BR   UNL     1      35.330 -22.363 -15.097  0.00  0.00    -0.074 Br
ATOM      2  O   UNL     1      32.867 -23.585 -16.764  0.00  0.00    -0.295 OA
ATOM      3  C   UNL     1      34.342 -19.976 -20.231  0.00  0.00    +0.000 C 
ATOM      4  C   UNL     1      34.662 -19.164 -21.539  0.00  0.00    +0.000 C 
ATOM      5  C   UNL     1      35.516 -20.933 -19.835  0.00  0.00    +0.000 C 
ATOM      6  C   UNL     1      35.137 -21.639 -18.530  0.00  0.00    +0.008 C 
ATOM      7  C   UNL     1      36.002 -18.398 -21.298  0.00  0.00    +0.002 C 
ATOM      8  C   UNL     1      33.860 -22.489 -18.692  0.00  0.00    +0.052 C 
ATOM      9  C   UNL     1      32.969 -20.703 -20.242  0.00  0.00    +0.000 C 
ATOM     10  C   UNL     1      36.839 -20.166 -19.703  0.00  0.00    +0.000 C 
ATOM     11  C   UNL     1      32.700 -21.541 -18.977  0.00  0.00    +0.007 C 
ATOM     12  C   UNL     1      37.160 -19.339 -20.946  0.00  0.00    +0.000 C 
ATOM     13  C   UNL     1      33.555 -18.106 -21.815  0.00  0.00    +0.002 C 
ATOM     14  C   UNL     1      36.135 -22.578 -17.854  0.00  0.00    +0.019 C 
ATOM     15  C   UNL     1      36.373 -17.462 -22.454  0.00  0.00    +0.029 C 
ATOM     16  C   UNL     1      34.747 -20.110 -22.767  0.00  0.00    +0.000 C 
ATOM     17  C   UNL     1      33.868 -23.166 -17.331  0.00  0.00    +0.160 C 
ATOM     18  C   UNL     1      35.283 -23.290 -16.796  0.00  0.00    +0.114 C 
ATOM     19  C   UNL     1      33.907 -17.132 -22.941  0.00  0.00    +0.029 C 
ATOM     20  C   UNL     1      35.256 -16.454 -22.724  0.00  0.00    +0.111 C 
ATOM     21  C   UNL     1      33.931 -23.616 -19.740  0.00  0.00    +0.007 C 
ENDROOT
BRANCH  20  22
ATOM     22  O   UNL     1      35.571 -15.689 -23.882  0.00  0.00    -0.384 OA
ATOM     23  H   UNL     1      34.777 -15.592 -24.432  0.00  0.00    +0.210 HD
ENDBRANCH  20  22
TORSDOF 1
ENDMDL
MODEL 8
REMARK VINA RESULT:      -6.1      9.711     13.983
REMARK  Name = 71613
REMARK  1 active torsions:
REMARK  status: ('A' for Active; 'I' for Inactive)
REMARK    1  A    between atoms: C_20  and  O_22
REMARK                            x       y       z     vdW  Elec       q    Type
REMARK                         _______ _______ _______ _____ _____    ______ ____
ROOT
ATOM      1 BR   UNL     1      33.073  -6.661 -20.238  0.00  0.00    -0.074 Br
ATOM      2  O   UNL     1      33.326  -6.709 -23.443  0.00  0.00    -0.295 OA
ATOM      3  C   UNL     1      33.418 -11.865 -22.652  0.00  0.00    +0.000 C 
ATOM      4  C   UNL     1      33.254 -13.425 -22.767  0.00  0.00    +0.000 C 
ATOM      5  C   UNL     1      32.154 -11.190 -22.019  0.00  0.00    +0.000 C 
ATOM      6  C   UNL     1      32.425  -9.687 -21.902  0.00  0.00    +0.008 C 
ATOM      7  C   UNL     1      32.940 -13.968 -21.336  0.00  0.00    +0.002 C 
ATOM      8  C   UNL     1      32.671  -9.043 -23.282  0.00  0.00    +0.052 C 
ATOM      9  C   UNL     1      33.862 -11.164 -23.965  0.00  0.00    +0.000 C 
ATOM     10  C   UNL     1      31.813 -11.814 -20.659  0.00  0.00    +0.000 C 
ATOM     11  C   UNL     1      33.959  -9.631 -23.849  0.00  0.00    +0.007 C 
ATOM     12  C   UNL     1      31.682 -13.334 -20.731  0.00  0.00    +0.000 C 
ATOM     13  C   UNL     1      34.581 -14.083 -23.242  0.00  0.00    +0.002 C 
ATOM     14  C   UNL     1      31.393  -8.777 -21.237  0.00  0.00    +0.019 C 
ATOM     15  C   UNL     1      32.878 -15.499 -21.277  0.00  0.00    +0.029 C 
ATOM     16  C   UNL     1      32.139 -13.788 -23.783  0.00  0.00    +0.000 C 
ATOM     17  C   UNL     1      32.722  -7.589 -22.844  0.00  0.00    +0.160 C 
ATOM     18  C   UNL     1      31.887  -7.369 -21.595  0.00  0.00    +0.114 C 
ATOM     19  C   UNL     1      34.567 -15.611 -23.164  0.00  0.00    +0.029 C 
ATOM     20  C   UNL     1      34.181 -16.120 -21.779  0.00  0.00    +0.111 C 
ATOM     21  C   UNL     1      31.514  -9.155 -24.293  0.00  0.00    +0.007 C 
ENDROOT
BRANCH  20  22
ATOM     22  O   UNL     1      34.045 -17.537 -21.837  0.00  0.00    -0.384 OA
ATOM     23  H   UNL     1      33.298 -17.766 -22.412  0.00  0.00    +0.210 HD
ENDBRANCH  20  22
TORSDOF 1
ENDMDL
MODEL 9
REMARK VINA RESULT:      -5.4      3.730      8.164
REMARK  Name = 71613
REMARK  1 active torsions:
REMARK  status: ('A' for Active; 'I' for Inactive)
REMARK    1  A    between atoms: C_20  and  O_22
REMARK                            x       y       z     vdW  Elec       q    Type
REMARK                         _______ _______ _______ _____ _____    ______ ____
ROOT
ATOM      1 BR   UNL     1      33.243 -15.140 -22.274  0.00  0.00    -0.074 Br
ATOM      2  O   UNL     1      36.058 -16.061 -23.527  0.00  0.00    -0.295 OA
ATOM      3  C   UNL     1      35.491 -19.970 -20.119  0.00  0.00    +0.000 C 
ATOM      4  C   UNL     1      35.510 -21.358 -19.378  0.00  0.00    +0.000 C 
ATOM      5  C   UNL     1      34.261 -19.837 -21.079  0.00  0.00    +0.000 C 
ATOM      6  C   UNL     1      34.301 -18.444 -21.713  0.00  0.00    +0.008 C 
ATOM      7  C   UNL     1      34.147 -21.504 -18.627  0.00  0.00    +0.002 C 
ATOM      8  C   UNL     1      35.582 -18.232 -22.545  0.00  0.00    +0.052 C 
ATOM      9  C   UNL     1      36.826 -19.595 -20.819  0.00  0.00    +0.000 C 
ATOM     10  C   UNL     1      32.943 -20.085 -20.332  0.00  0.00    +0.000 C 
ATOM     11  C   UNL     1      36.770 -18.262 -21.589  0.00  0.00    +0.007 C 
ATOM     12  C   UNL     1      32.944 -21.410 -19.572  0.00  0.00    +0.000 C 
ATOM     13  C   UNL     1      36.643 -21.397 -18.313  0.00  0.00    +0.002 C 
ATOM     14  C   UNL     1      33.169 -17.996 -22.638  0.00  0.00    +0.019 C 
ATOM     15  C   UNL     1      34.077 -22.764 -17.755  0.00  0.00    +0.029 C 
ATOM     16  C   UNL     1      35.746 -22.516 -20.383  0.00  0.00    +0.000 C 
ATOM     17  C   UNL     1      35.232 -16.885 -23.155  0.00  0.00    +0.160 C 
ATOM     18  C   UNL     1      33.728 -16.721 -23.281  0.00  0.00    +0.114 C 
ATOM     19  C   UNL     1      36.583 -22.624 -17.401  0.00  0.00    +0.029 C 
ATOM     20  C   UNL     1      35.219 -22.793 -16.740  0.00  0.00    +0.111 C 
ATOM     21  C   UNL     1      35.788 -19.204 -23.722  0.00  0.00    +0.007 C 
ENDROOT
BRANCH  20  22
ATOM     22  O   UNL     1      35.205 -24.031 -16.038  0.00  0.00    -0.384 OA
ATOM     23  H   UNL     1      34.527 -24.611 -16.420  0.00  0.00    +0.210 HD
ENDBRANCH  20  22
TORSDOF 1
ENDMDL
