MODEL 1
REMARK VINA RESULT:      -7.5      0.000      0.000
REMARK  Name = 6857699
REMARK  4 active torsions:
REMARK  status: ('A' for Active; 'I' for Inactive)
REMARK    1  A    between atoms: C_2  and  C_21
REMARK    2  A    between atoms: C_7  and  C_13
REMARK    3  A    between atoms: C_18  and  O_19
REMARK    4  A    between atoms: C_21  and  O_22
REMARK                            x       y       z     vdW  Elec       q    Type
REMARK                         _______ _______ _______ _____ _____    ______ ____
ROOT
ATOM      1  O   UNL     1      34.320 -24.770 -12.681  0.00  0.00    -0.351 OA
ATOM      2  C   UNL     1      36.717 -24.305 -13.113  0.00  0.00    +0.059 C 
ATOM      3  C   UNL     1      36.291 -22.966 -13.794  0.00  0.00    +0.011 C 
ATOM      4  C   UNL     1      34.913 -23.206 -14.471  0.00  0.00    +0.050 C 
ATOM      5  C   UNL     1      36.886 -25.420 -14.212  0.00  0.00    +0.026 C 
ATOM      6  C   UNL     1      35.607 -24.642 -12.080  0.00  0.00    +0.145 C 
ATOM      7  C   UNL     1      33.899 -23.573 -13.351  0.00  0.00    +0.141 C 
ATOM      8  C   UNL     1      35.023 -24.312 -15.512  0.00  0.00    -0.046 C 
ATOM      9  C   UNL     1      35.909 -25.313 -15.365  0.00  0.00    -0.035 C 
ATOM     10  C   UNL     1      37.320 -22.369 -14.763  0.00  0.00    +0.001 C 
ATOM     11  C   UNL     1      36.871 -26.851 -13.661  0.00  0.00    +0.005 C 
ATOM     12  C   UNL     1      34.150 -24.213 -16.730  0.00  0.00    +0.026 C 
ENDROOT
BRANCH   7  13
ATOM     13  C   UNL     1      32.504 -23.785 -13.833  0.00  0.00    +0.005 C 
ATOM     14  C   UNL     1      31.928 -25.053 -13.766  0.00  0.00    +0.001 C 
ATOM     15  C   UNL     1      31.776 -22.714 -14.354  0.00  0.00    +0.001 C 
ATOM     16  C   UNL     1      30.623 -25.251 -14.218  0.00  0.00    +0.036 C 
ATOM     17  C   UNL     1      30.472 -22.913 -14.805  0.00  0.00    +0.036 C 
ATOM     18  C   UNL     1      29.894 -24.181 -14.737  0.00  0.00    +0.134 C 
BRANCH  18  19
ATOM     19  O   UNL     1      28.622 -24.374 -15.179  0.00  0.00    -0.506 OA
ATOM     20  H   UNL     1      28.460 -24.534 -16.088  0.00  0.00    +0.292 HD
ENDBRANCH  18  19
ENDBRANCH   7  13
BRANCH   2  21
ATOM     21  C   UNL     1      38.037 -24.135 -12.335  0.00  0.00    +0.140 C 
BRANCH  21  22
ATOM     22  O   UNL     1      37.796 -23.254 -11.260  0.00  0.00    -0.382 OA
ATOM     23  H   UNL     1      37.689 -22.351 -11.600  0.00  0.00    +0.210 HD
ENDBRANCH  21  22
ENDBRANCH   2  21
TORSDOF 4
ENDMDL
MODEL 2
REMARK VINA RESULT:      -6.7      2.641      3.582
REMARK  Name = 6857699
REMARK  4 active torsions:
REMARK  status: ('A' for Active; 'I' for Inactive)
REMARK    1  A    between atoms: C_2  and  C_21
REMARK    2  A    between atoms: C_7  and  C_13
REMARK    3  A    between atoms: C_18  and  O_19
REMARK    4  A    between atoms: C_21  and  O_22
REMARK                            x       y       z     vdW  Elec       q    Type
REMARK                         _______ _______ _______ _____ _____    ______ ____
ROOT
ATOM      1  O   UNL     1      35.662 -25.163 -15.503  0.00  0.00    -0.351 OA
ATOM      2  C   UNL     1      37.288 -25.035 -13.635  0.00  0.00    +0.059 C 
ATOM      3  C   UNL     1      36.624 -23.690 -13.204  0.00  0.00    +0.011 C 
ATOM      4  C   UNL     1      36.131 -22.980 -14.496  0.00  0.00    +0.050 C 
ATOM      5  C   UNL     1      38.535 -24.734 -14.548  0.00  0.00    +0.026 C 
ATOM      6  C   UNL     1      36.187 -25.851 -14.369  0.00  0.00    +0.145 C 
ATOM      7  C   UNL     1      35.070 -23.902 -15.161  0.00  0.00    +0.141 C 
ATOM      8  C   UNL     1      37.304 -22.710 -15.429  0.00  0.00    -0.046 C 
ATOM      9  C   UNL     1      38.372 -23.527 -15.449  0.00  0.00    -0.035 C 
ATOM     10  C   UNL     1      37.498 -22.777 -12.335  0.00  0.00    +0.001 C 
ATOM     11  C   UNL     1      39.008 -25.932 -15.380  0.00  0.00    +0.005 C 
ATOM     12  C   UNL     1      37.249 -21.474 -16.280  0.00  0.00    +0.026 C 
ENDROOT
BRANCH   7  13
ATOM     13  C   UNL     1      34.456 -23.335 -16.396  0.00  0.00    +0.005 C 
ATOM     14  C   UNL     1      35.266 -22.921 -17.452  0.00  0.00    +0.001 C 
ATOM     15  C   UNL     1      33.068 -23.219 -16.494  0.00  0.00    +0.001 C 
ATOM     16  C   UNL     1      34.690 -22.391 -18.607  0.00  0.00    +0.036 C 
ATOM     17  C   UNL     1      32.493 -22.690 -17.648  0.00  0.00    +0.036 C 
ATOM     18  C   UNL     1      33.303 -22.276 -18.706  0.00  0.00    +0.134 C 
BRANCH  18  19
ATOM     19  O   UNL     1      32.742 -21.758 -19.832  0.00  0.00    -0.506 OA
ATOM     20  H   UNL     1      33.265 -21.260 -20.430  0.00  0.00    +0.292 HD
ENDBRANCH  18  19
ENDBRANCH   7  13
BRANCH   2  21
ATOM     21  C   UNL     1      37.727 -25.855 -12.405  0.00  0.00    +0.140 C 
BRANCH  21  22
ATOM     22  O   UNL     1      36.580 -26.116 -11.626  0.00  0.00    -0.382 OA
ATOM     23  H   UNL     1      36.850 -26.412 -10.742  0.00  0.00    +0.210 HD
ENDBRANCH  21  22
ENDBRANCH   2  21
TORSDOF 4
ENDMDL
MODEL 3
REMARK VINA RESULT:      -5.9      2.822      4.335
REMARK  Name = 6857699
REMARK  4 active torsions:
REMARK  status: ('A' for Active; 'I' for Inactive)
REMARK    1  A    between atoms: C_2  and  C_21
REMARK    2  A    between atoms: C_7  and  C_13
REMARK    3  A    between atoms: C_18  and  O_19
REMARK    4  A    between atoms: C_21  and  O_22
REMARK                            x       y       z     vdW  Elec       q    Type
REMARK                         _______ _______ _______ _____ _____    ______ ____
ROOT
ATOM      1  O   UNL     1      35.011 -24.256 -14.996  0.00  0.00    -0.351 OA
ATOM      2  C   UNL     1      36.197 -24.728 -12.870  0.00  0.00    +0.059 C 
ATOM      3  C   UNL     1      36.744 -23.266 -12.899  0.00  0.00    +0.011 C 
ATOM      4  C   UNL     1      36.940 -22.873 -14.390  0.00  0.00    +0.050 C 
ATOM      5  C   UNL     1      37.261 -25.697 -13.508  0.00  0.00    +0.026 C 
ATOM      6  C   UNL     1      34.855 -24.707 -13.652  0.00  0.00    +0.145 C 
ATOM      7  C   UNL     1      35.546 -22.927 -15.075  0.00  0.00    +0.141 C 
ATOM      8  C   UNL     1      37.931 -23.816 -15.059  0.00  0.00    -0.046 C 
ATOM      9  C   UNL     1      38.045 -25.095 -14.655  0.00  0.00    -0.035 C 
ATOM     10  C   UNL     1      38.007 -23.022 -12.062  0.00  0.00    +0.001 C 
ATOM     11  C   UNL     1      36.694 -27.057 -13.935  0.00  0.00    +0.005 C 
ATOM     12  C   UNL     1      38.809 -23.255 -16.139  0.00  0.00    +0.026 C 
ENDROOT
BRANCH   7  13
ATOM     13  C   UNL     1      35.553 -22.522 -16.510  0.00  0.00    +0.005 C 
ATOM     14  C   UNL     1      34.513 -22.917 -17.352  0.00  0.00    +0.001 C 
ATOM     15  C   UNL     1      36.600 -21.748 -17.011  0.00  0.00    +0.001 C 
ATOM     16  C   UNL     1      34.520 -22.538 -18.695  0.00  0.00    +0.036 C 
ATOM     17  C   UNL     1      36.607 -21.370 -18.353  0.00  0.00    +0.036 C 
ATOM     18  C   UNL     1      35.567 -21.763 -19.196  0.00  0.00    +0.134 C 
BRANCH  18  19
ATOM     19  O   UNL     1      35.575 -21.395 -20.505  0.00  0.00    -0.506 OA
ATOM     20  H   UNL     1      36.078 -20.653 -20.781  0.00  0.00    +0.292 HD
ENDBRANCH  18  19
ENDBRANCH   7  13
BRANCH   2  21
ATOM     21  C   UNL     1      35.885 -25.173 -11.427  0.00  0.00    +0.140 C 
BRANCH  21  22
ATOM     22  O   UNL     1      35.000 -24.230 -10.864  0.00  0.00    -0.382 OA
ATOM     23  H   UNL     1      35.485 -23.659 -10.247  0.00  0.00    +0.210 HD
ENDBRANCH  21  22
ENDBRANCH   2  21
TORSDOF 4
ENDMDL
MODEL 4
REMARK VINA RESULT:      -5.8      2.818      3.685
REMARK  Name = 6857699
REMARK  4 active torsions:
REMARK  status: ('A' for Active; 'I' for Inactive)
REMARK    1  A    between atoms: C_2  and  C_21
REMARK    2  A    between atoms: C_7  and  C_13
REMARK    3  A    between atoms: C_18  and  O_19
REMARK    4  A    between atoms: C_21  and  O_22
REMARK                            x       y       z     vdW  Elec       q    Type
REMARK                         _______ _______ _______ _____ _____    ______ ____
ROOT
ATOM      1  O   UNL     1      36.120 -22.735 -14.039  0.00  0.00    -0.351 OA
ATOM      2  C   UNL     1      37.700 -24.151 -12.754  0.00  0.00    +0.059 C 
ATOM      3  C   UNL     1      38.458 -24.440 -14.088  0.00  0.00    +0.011 C 
ATOM      4  C   UNL     1      37.405 -24.446 -15.231  0.00  0.00    +0.050 C 
ATOM      5  C   UNL     1      36.668 -25.307 -12.479  0.00  0.00    +0.026 C 
ATOM      6  C   UNL     1      37.019 -22.765 -12.932  0.00  0.00    +0.145 C 
ATOM      7  C   UNL     1      36.766 -23.030 -15.285  0.00  0.00    +0.141 C 
ATOM      8  C   UNL     1      36.360 -25.524 -14.978  0.00  0.00    -0.046 C 
ATOM      9  C   UNL     1      36.029 -25.884 -13.725  0.00  0.00    -0.035 C 
ATOM     10  C   UNL     1      39.324 -25.707 -14.087  0.00  0.00    +0.001 C 
ATOM     11  C   UNL     1      35.575 -24.945 -11.465  0.00  0.00    +0.005 C 
ATOM     12  C   UNL     1      35.758 -26.206 -16.173  0.00  0.00    +0.026 C 
ENDROOT
BRANCH   7  13
ATOM     13  C   UNL     1      35.762 -22.853 -16.374  0.00  0.00    +0.005 C 
ATOM     14  C   UNL     1      34.442 -23.260 -16.179  0.00  0.00    +0.001 C 
ATOM     15  C   UNL     1      36.144 -22.282 -17.588  0.00  0.00    +0.001 C 
ATOM     16  C   UNL     1      33.504 -23.094 -17.197  0.00  0.00    +0.036 C 
ATOM     17  C   UNL     1      35.206 -22.117 -18.606  0.00  0.00    +0.036 C 
ATOM     18  C   UNL     1      33.885 -22.522 -18.412  0.00  0.00    +0.134 C 
BRANCH  18  19
ATOM     19  O   UNL     1      32.970 -22.362 -19.405  0.00  0.00    -0.506 OA
ATOM     20  H   UNL     1      33.216 -21.941 -20.206  0.00  0.00    +0.292 HD
ENDBRANCH  18  19
ENDBRANCH   7  13
BRANCH   2  21
ATOM     21  C   UNL     1      38.682 -24.034 -11.572  0.00  0.00    +0.140 C 
BRANCH  21  22
ATOM     22  O   UNL     1      39.212 -22.727 -11.576  0.00  0.00    -0.382 OA
ATOM     23  H   UNL     1      39.812 -22.619 -10.820  0.00  0.00    +0.210 HD
ENDBRANCH  21  22
ENDBRANCH   2  21
TORSDOF 4
ENDMDL
MODEL 5
REMARK VINA RESULT:      -5.7      1.859      2.938
REMARK  Name = 6857699
REMARK  4 active torsions:
REMARK  status: ('A' for Active; 'I' for Inactive)
REMARK    1  A    between atoms: C_2  and  C_21
REMARK    2  A    between atoms: C_7  and  C_13
REMARK    3  A    between atoms: C_18  and  O_19
REMARK    4  A    between atoms: C_21  and  O_22
REMARK                            x       y       z     vdW  Elec       q    Type
REMARK                         _______ _______ _______ _____ _____    ______ ____
ROOT
ATOM      1  O   UNL     1      35.075 -22.516 -15.156  0.00  0.00    -0.351 OA
ATOM      2  C   UNL     1      36.934 -24.067 -14.619  0.00  0.00    +0.059 C 
ATOM      3  C   UNL     1      36.134 -25.204 -15.328  0.00  0.00    +0.011 C 
ATOM      4  C   UNL     1      34.623 -24.923 -15.099  0.00  0.00    +0.050 C 
ATOM      5  C   UNL     1      36.645 -24.110 -13.072  0.00  0.00    +0.026 C 
ATOM      6  C   UNL     1      36.479 -22.736 -15.280  0.00  0.00    +0.145 C 
ATOM      7  C   UNL     1      34.295 -23.556 -15.764  0.00  0.00    +0.141 C 
ATOM      8  C   UNL     1      34.308 -24.911 -13.609  0.00  0.00    -0.046 C 
ATOM      9  C   UNL     1      35.232 -24.522 -12.712  0.00  0.00    -0.035 C 
ATOM     10  C   UNL     1      36.529 -26.631 -14.924  0.00  0.00    +0.001 C 
ATOM     11  C   UNL     1      37.004 -22.816 -12.330  0.00  0.00    +0.005 C 
ATOM     12  C   UNL     1      32.957 -25.402 -13.177  0.00  0.00    +0.026 C 
ENDROOT
BRANCH   7  13
ATOM     13  C   UNL     1      32.860 -23.162 -15.678  0.00  0.00    +0.005 C 
ATOM     14  C   UNL     1      32.325 -22.734 -14.464  0.00  0.00    +0.001 C 
ATOM     15  C   UNL     1      32.051 -23.223 -16.814  0.00  0.00    +0.001 C 
ATOM     16  C   UNL     1      30.982 -22.365 -14.384  0.00  0.00    +0.036 C 
ATOM     17  C   UNL     1      30.709 -22.855 -16.734  0.00  0.00    +0.036 C 
ATOM     18  C   UNL     1      30.174 -22.425 -15.519  0.00  0.00    +0.134 C 
BRANCH  18  19
ATOM     19  O   UNL     1      28.864 -22.067 -15.441  0.00  0.00    -0.506 OA
ATOM     20  H   UNL     1      28.607 -21.342 -14.904  0.00  0.00    +0.292 HD
ENDBRANCH  18  19
ENDBRANCH   7  13
BRANCH   2  21
ATOM     21  C   UNL     1      38.448 -24.213 -14.871  0.00  0.00    +0.140 C 
BRANCH  21  22
ATOM     22  O   UNL     1      38.784 -23.402 -15.975  0.00  0.00    -0.382 OA
ATOM     23  H   UNL     1      39.518 -22.814 -15.733  0.00  0.00    +0.210 HD
ENDBRANCH  21  22
ENDBRANCH   2  21
TORSDOF 4
ENDMDL
MODEL 6
REMARK VINA RESULT:      -5.5     15.249     16.896
REMARK  Name = 6857699
REMARK  4 active torsions:
REMARK  status: ('A' for Active; 'I' for Inactive)
REMARK    1  A    between atoms: C_2  and  C_21
REMARK    2  A    between atoms: C_7  and  C_13
REMARK    3  A    between atoms: C_18  and  O_19
REMARK    4  A    between atoms: C_21  and  O_22
REMARK                            x       y       z     vdW  Elec       q    Type
REMARK                         _______ _______ _______ _____ _____    ______ ____
ROOT
ATOM      1  O   UNL     1      32.180  -9.730 -20.854  0.00  0.00    -0.351 OA
ATOM      2  C   UNL     1      31.935  -7.638 -22.162  0.00  0.00    +0.059 C 
ATOM      3  C   UNL     1      31.086  -8.436 -23.201  0.00  0.00    +0.011 C 
ATOM      4  C   UNL     1      31.641  -9.888 -23.238  0.00  0.00    +0.050 C 
ATOM      5  C   UNL     1      33.434  -7.588 -22.640  0.00  0.00    +0.026 C 
ATOM      6  C   UNL     1      31.760  -8.368 -20.802  0.00  0.00    +0.145 C 
ATOM      7  C   UNL     1      31.450 -10.498 -21.821  0.00  0.00    +0.141 C 
ATOM      8  C   UNL     1      33.106  -9.881 -23.653  0.00  0.00    -0.046 C 
ATOM      9  C   UNL     1      33.903  -8.838 -23.355  0.00  0.00    -0.035 C 
ATOM     10  C   UNL     1      31.002  -7.809 -24.599  0.00  0.00    +0.001 C 
ATOM     11  C   UNL     1      34.433  -7.228 -21.533  0.00  0.00    +0.005 C 
ATOM     12  C   UNL     1      33.611 -11.048 -24.452  0.00  0.00    +0.026 C 
ENDROOT
BRANCH   7  13
ATOM     13  C   UNL     1      31.889 -11.918 -21.703  0.00  0.00    +0.005 C 
ATOM     14  C   UNL     1      32.037 -12.701 -22.847  0.00  0.00    +0.001 C 
ATOM     15  C   UNL     1      32.150 -12.465 -20.445  0.00  0.00    +0.001 C 
ATOM     16  C   UNL     1      32.448 -14.030 -22.736  0.00  0.00    +0.036 C 
ATOM     17  C   UNL     1      32.560 -13.792 -20.334  0.00  0.00    +0.036 C 
ATOM     18  C   UNL     1      32.710 -14.576 -21.479  0.00  0.00    +0.134 C 
BRANCH  18  19
ATOM     19  O   UNL     1      33.110 -15.871 -21.370  0.00  0.00    -0.506 OA
ATOM     20  H   UNL     1      32.886 -16.489 -22.039  0.00  0.00    +0.292 HD
ENDBRANCH  18  19
ENDBRANCH   7  13
BRANCH   2  21
ATOM     21  C   UNL     1      31.394  -6.205 -21.990  0.00  0.00    +0.140 C 
BRANCH  21  22
ATOM     22  O   UNL     1      31.520  -5.854 -20.629  0.00  0.00    -0.382 OA
ATOM     23  H   UNL     1      30.663  -5.962 -20.187  0.00  0.00    +0.210 HD
ENDBRANCH  21  22
ENDBRANCH   2  21
TORSDOF 4
ENDMDL
MODEL 7
REMARK VINA RESULT:      -5.5     16.190     17.888
REMARK  Name = 6857699
REMARK  4 active torsions:
REMARK  status: ('A' for Active; 'I' for Inactive)
REMARK    1  A    between atoms: C_2  and  C_21
REMARK    2  A    between atoms: C_7  and  C_13
REMARK    3  A    between atoms: C_18  and  O_19
REMARK    4  A    between atoms: C_21  and  O_22
REMARK                            x       y       z     vdW  Elec       q    Type
REMARK                         _______ _______ _______ _____ _____    ______ ____
ROOT
ATOM      1  O   UNL     1      31.822  -9.711 -21.835  0.00  0.00    -0.351 OA
ATOM      2  C   UNL     1      31.689  -7.279 -22.305  0.00  0.00    +0.059 C 
ATOM      3  C   UNL     1      31.709  -7.615 -23.829  0.00  0.00    +0.011 C 
ATOM      4  C   UNL     1      32.582  -8.887 -24.014  0.00  0.00    +0.050 C 
ATOM      5  C   UNL     1      33.151  -6.957 -21.821  0.00  0.00    +0.026 C 
ATOM      6  C   UNL     1      31.078  -8.518 -21.593  0.00  0.00    +0.145 C 
ATOM      7  C   UNL     1      31.898 -10.042 -23.229  0.00  0.00    +0.141 C 
ATOM      8  C   UNL     1      33.998  -8.632 -23.514  0.00  0.00    -0.046 C 
ATOM      9  C   UNL     1      34.230  -7.768 -22.509  0.00  0.00    -0.035 C 
ATOM     10  C   UNL     1      32.151  -6.467 -24.746  0.00  0.00    +0.001 C 
ATOM     11  C   UNL     1      33.342  -7.040 -20.301  0.00  0.00    +0.005 C 
ATOM     12  C   UNL     1      35.124  -9.332 -24.220  0.00  0.00    +0.026 C 
ENDROOT
BRANCH   7  13
ATOM     13  C   UNL     1      32.590 -11.357 -23.349  0.00  0.00    +0.005 C 
ATOM     14  C   UNL     1      33.322 -11.659 -24.497  0.00  0.00    +0.001 C 
ATOM     15  C   UNL     1      32.504 -12.287 -22.312  0.00  0.00    +0.001 C 
ATOM     16  C   UNL     1      33.970 -12.890 -24.608  0.00  0.00    +0.036 C 
ATOM     17  C   UNL     1      33.151 -13.517 -22.424  0.00  0.00    +0.036 C 
ATOM     18  C   UNL     1      33.885 -13.819 -23.571  0.00  0.00    +0.134 C 
BRANCH  18  19
ATOM     19  O   UNL     1      34.515 -15.020 -23.681  0.00  0.00    -0.506 OA
ATOM     20  H   UNL     1      35.036 -15.342 -22.971  0.00  0.00    +0.292 HD
ENDBRANCH  18  19
ENDBRANCH   7  13
BRANCH   2  21
ATOM     21  C   UNL     1      30.766  -6.078 -22.015  0.00  0.00    +0.140 C 
BRANCH  21  22
ATOM     22  O   UNL     1      31.573  -4.925 -21.919  0.00  0.00    -0.382 OA
ATOM     23  H   UNL     1      32.129  -4.984 -21.126  0.00  0.00    +0.210 HD
ENDBRANCH  21  22
ENDBRANCH   2  21
TORSDOF 4
ENDMDL
MODEL 8
REMARK VINA RESULT:      -5.4     16.181     17.951
REMARK  Name = 6857699
REMARK  4 active torsions:
REMARK  status: ('A' for Active; 'I' for Inactive)
REMARK    1  A    between atoms: C_2  and  C_21
REMARK    2  A    between atoms: C_7  and  C_13
REMARK    3  A    between atoms: C_18  and  O_19
REMARK    4  A    between atoms: C_21  and  O_22
REMARK                            x       y       z     vdW  Elec       q    Type
REMARK                         _______ _______ _______ _____ _____    ______ ____
ROOT
ATOM      1  O   UNL     1      33.351  -8.950 -24.423  0.00  0.00    -0.351 OA
ATOM      2  C   UNL     1      32.549  -7.250 -22.806  0.00  0.00    +0.059 C 
ATOM      3  C   UNL     1      32.965  -8.213 -21.651  0.00  0.00    +0.011 C 
ATOM      4  C   UNL     1      32.753  -9.667 -22.159  0.00  0.00    +0.050 C 
ATOM      5  C   UNL     1      31.022  -7.449 -23.130  0.00  0.00    +0.026 C 
ATOM      6  C   UNL     1      33.470  -7.590 -24.011  0.00  0.00    +0.145 C 
ATOM      7  C   UNL     1      33.689  -9.877 -23.381  0.00  0.00    +0.141 C 
ATOM      8  C   UNL     1      31.291  -9.889 -22.526  0.00  0.00    -0.046 C 
ATOM      9  C   UNL     1      30.533  -8.875 -22.982  0.00  0.00    -0.035 C 
ATOM     10  C   UNL     1      32.271  -7.960 -20.306  0.00  0.00    +0.001 C 
ATOM     11  C   UNL     1      30.593  -6.903 -24.498  0.00  0.00    +0.005 C 
ATOM     12  C   UNL     1      30.718 -11.260 -22.310  0.00  0.00    +0.026 C 
ENDROOT
BRANCH   7  13
ATOM     13  C   UNL     1      33.644 -11.251 -23.959  0.00  0.00    +0.005 C 
ATOM     14  C   UNL     1      33.651 -12.363 -23.117  0.00  0.00    +0.001 C 
ATOM     15  C   UNL     1      33.594 -11.424 -25.343  0.00  0.00    +0.001 C 
ATOM     16  C   UNL     1      33.608 -13.648 -23.658  0.00  0.00    +0.036 C 
ATOM     17  C   UNL     1      33.552 -12.709 -25.883  0.00  0.00    +0.036 C 
ATOM     18  C   UNL     1      33.558 -13.821 -25.041  0.00  0.00    +0.134 C 
BRANCH  18  19
ATOM     19  O   UNL     1      33.518 -15.075 -25.568  0.00  0.00    -0.506 OA
ATOM     20  H   UNL     1      33.440 -15.191 -26.495  0.00  0.00    +0.292 HD
ENDBRANCH  18  19
ENDBRANCH   7  13
BRANCH   2  21
ATOM     21  C   UNL     1      32.814  -5.780 -22.424  0.00  0.00    +0.140 C 
BRANCH  21  22
ATOM     22  O   UNL     1      31.636  -5.263 -21.844  0.00  0.00    -0.382 OA
ATOM     23  H   UNL     1      31.259  -5.920 -21.238  0.00  0.00    +0.210 HD
ENDBRANCH  21  22
ENDBRANCH   2  21
TORSDOF 4
ENDMDL
MODEL 9
REMARK VINA RESULT:      -5.0     17.544     19.323
REMARK  Name = 6857699
REMARK  4 active torsions:
REMARK  status: ('A' for Active; 'I' for Inactive)
REMARK    1  A    between atoms: C_2  and  C_21
REMARK    2  A    between atoms: C_7  and  C_13
REMARK    3  A    between atoms: C_18  and  O_19
REMARK    4  A    between atoms: C_21  and  O_22
REMARK                            x       y       z     vdW  Elec       q    Type
REMARK                         _______ _______ _______ _____ _____    ______ ____
ROOT
ATOM      1  O   UNL     1      30.491  -8.007 -23.513  0.00  0.00    -0.351 OA
ATOM      2  C   UNL     1      31.287  -5.760 -24.194  0.00  0.00    +0.059 C 
ATOM      3  C   UNL     1      32.562  -6.437 -24.786  0.00  0.00    +0.011 C 
ATOM      4  C   UNL     1      32.886  -7.674 -23.902  0.00  0.00    +0.050 C 
ATOM      5  C   UNL     1      31.591  -5.264 -22.731  0.00  0.00    +0.026 C 
ATOM      6  C   UNL     1      30.161  -6.829 -24.246  0.00  0.00    +0.145 C 
ATOM      7  C   UNL     1      31.679  -8.648 -24.000  0.00  0.00    +0.141 C 
ATOM      8  C   UNL     1      33.143  -7.241 -22.464  0.00  0.00    -0.046 C 
ATOM      9  C   UNL     1      32.531  -6.158 -21.951  0.00  0.00    -0.035 C 
ATOM     10  C   UNL     1      33.775  -5.512 -24.960  0.00  0.00    +0.001 C 
ATOM     11  C   UNL     1      30.338  -4.983 -21.891  0.00  0.00    +0.005 C 
ATOM     12  C   UNL     1      34.140  -8.029 -21.666  0.00  0.00    +0.026 C 
ENDROOT
BRANCH   7  13
ATOM     13  C   UNL     1      31.855  -9.920 -23.242  0.00  0.00    +0.005 C 
ATOM     14  C   UNL     1      32.835 -10.833 -23.630  0.00  0.00    +0.001 C 
ATOM     15  C   UNL     1      31.039 -10.197 -22.144  0.00  0.00    +0.001 C 
ATOM     16  C   UNL     1      33.000 -12.023 -22.920  0.00  0.00    +0.036 C 
ATOM     17  C   UNL     1      31.204 -11.386 -21.436  0.00  0.00    +0.036 C 
ATOM     18  C   UNL     1      32.185 -12.300 -21.823  0.00  0.00    +0.134 C 
BRANCH  18  19
ATOM     19  O   UNL     1      32.345 -13.460 -21.132  0.00  0.00    -0.506 OA
ATOM     20  H   UNL     1      31.685 -13.742 -20.528  0.00  0.00    +0.292 HD
ENDBRANCH  18  19
ENDBRANCH   7  13
BRANCH   2  21
ATOM     21  C   UNL     1      30.836  -4.571 -25.065  0.00  0.00    +0.140 C 
BRANCH  21  22
ATOM     22  O   UNL     1      31.341  -3.390 -24.483  0.00  0.00    -0.382 OA
ATOM     23  H   UNL     1      32.229  -3.211 -24.831  0.00  0.00    +0.210 HD
ENDBRANCH  21  22
ENDBRANCH   2  21
TORSDOF 4
ENDMDL
