MODEL 1
REMARK VINA RESULT:      -4.6      0.000      0.000
REMARK  Name = 974
REMARK  2 active torsions:
REMARK  status: ('A' for Active; 'I' for Inactive)
REMARK    1  A    between atoms: C_3  and  C_7
REMARK    2  A    between atoms: C_7  and  O_8
REMARK                            x       y       z     vdW  Elec       q    Type
REMARK                         _______ _______ _______ _____ _____    ______ ____
ROOT
ATOM      1  O   UNL     1      27.654 -23.497 -17.855  0.00  0.00    -0.263 OA
ATOM      2  N   UNL     1      28.482 -22.334 -16.031  0.00  0.00    -0.320 N 
ATOM      3  C   UNL     1      27.594 -22.585 -17.046  0.00  0.00    +0.319 C 
ATOM      4  H   UNL     1      29.261 -22.921 -15.902  0.00  0.00    +0.145 HD
ATOM      5  H   UNL     1      28.339 -21.567 -15.431  0.00  0.00    +0.145 HD
ENDROOT
BRANCH   3   7
ATOM      6  O   UNL     1      26.393 -20.697 -17.924  0.00  0.00    -0.240 OA
ATOM      7  C   UNL     1      26.457 -21.590 -17.103  0.00  0.00    +0.392 C 
BRANCH   7   8
ATOM      8  O   UNL     1      25.569 -21.852 -16.131  0.00  0.00    -0.474 OA
ATOM      9  H   UNL     1      25.652 -22.633 -15.618  0.00  0.00    +0.296 HD
ENDBRANCH   7   8
ENDBRANCH   3   7
TORSDOF 2
ENDMDL
MODEL 2
REMARK VINA RESULT:      -4.5     12.687     13.450
REMARK  Name = 974
REMARK  2 active torsions:
REMARK  status: ('A' for Active; 'I' for Inactive)
REMARK    1  A    between atoms: C_3  and  C_7
REMARK    2  A    between atoms: C_7  and  O_8
REMARK                            x       y       z     vdW  Elec       q    Type
REMARK                         _______ _______ _______ _____ _____    ______ ____
ROOT
ATOM      1  O   UNL     1      38.434 -26.934 -14.676  0.00  0.00    -0.263 OA
ATOM      2  N   UNL     1      38.382 -24.993 -13.414  0.00  0.00    -0.320 N 
ATOM      3  C   UNL     1      38.918 -25.872 -14.321  0.00  0.00    +0.319 C 
ATOM      4  H   UNL     1      37.522 -25.196 -12.981  0.00  0.00    +0.145 HD
ATOM      5  H   UNL     1      38.857 -24.158 -13.197  0.00  0.00    +0.145 HD
ENDROOT
BRANCH   3   7
ATOM      6  O   UNL     1      40.994 -24.661 -14.299  0.00  0.00    -0.240 OA
ATOM      7  C   UNL     1      40.240 -25.407 -14.890  0.00  0.00    +0.392 C 
BRANCH   7   8
ATOM      8  O   UNL     1      40.427 -25.939 -16.108  0.00  0.00    -0.474 OA
ATOM      9  H   UNL     1      39.718 -25.965 -16.722  0.00  0.00    +0.296 HD
ENDBRANCH   7   8
ENDBRANCH   3   7
TORSDOF 2
ENDMDL
MODEL 3
REMARK VINA RESULT:      -4.3     10.713     11.406
REMARK  Name = 974
REMARK  2 active torsions:
REMARK  status: ('A' for Active; 'I' for Inactive)
REMARK    1  A    between atoms: C_3  and  C_7
REMARK    2  A    between atoms: C_7  and  O_8
REMARK                            x       y       z     vdW  Elec       q    Type
REMARK                         _______ _______ _______ _____ _____    ______ ____
ROOT
ATOM      1  O   UNL     1      35.321 -25.007 -10.529  0.00  0.00    -0.263 OA
ATOM      2  N   UNL     1      34.978 -23.584 -12.324  0.00  0.00    -0.320 N 
ATOM      3  C   UNL     1      35.720 -24.187 -11.341  0.00  0.00    +0.319 C 
ATOM      4  H   UNL     1      34.024 -23.802 -12.425  0.00  0.00    +0.145 HD
ATOM      5  H   UNL     1      35.400 -22.932 -12.930  0.00  0.00    +0.145 HD
ENDROOT
BRANCH   3   7
ATOM      6  O   UNL     1      38.100 -24.506 -11.443  0.00  0.00    -0.240 OA
ATOM      7  C   UNL     1      37.164 -23.740 -11.325  0.00  0.00    +0.392 C 
BRANCH   7   8
ATOM      8  O   UNL     1      37.231 -22.409 -11.166  0.00  0.00    -0.474 OA
ATOM      9  H   UNL     1      36.907 -21.840 -11.837  0.00  0.00    +0.296 HD
ENDBRANCH   7   8
ENDBRANCH   3   7
TORSDOF 2
ENDMDL
MODEL 4
REMARK VINA RESULT:      -4.3     10.566     11.217
REMARK  Name = 974
REMARK  2 active torsions:
REMARK  status: ('A' for Active; 'I' for Inactive)
REMARK    1  A    between atoms: C_3  and  C_7
REMARK    2  A    between atoms: C_7  and  O_8
REMARK                            x       y       z     vdW  Elec       q    Type
REMARK                         _______ _______ _______ _____ _____    ______ ____
ROOT
ATOM      1  O   UNL     1      37.305 -22.753 -10.997  0.00  0.00    -0.263 OA
ATOM      2  N   UNL     1      37.231 -24.275 -12.742  0.00  0.00    -0.320 N 
ATOM      3  C   UNL     1      36.815 -23.720 -11.558  0.00  0.00    +0.319 C 
ATOM      4  H   UNL     1      37.997 -23.889 -13.224  0.00  0.00    +0.145 HD
ATOM      5  H   UNL     1      36.763 -25.059 -13.110  0.00  0.00    +0.145 HD
ENDROOT
BRANCH   3   7
ATOM      6  O   UNL     1      35.432 -24.499  -9.754  0.00  0.00    -0.240 OA
ATOM      7  C   UNL     1      35.628 -24.433 -10.951  0.00  0.00    +0.392 C 
BRANCH   7   8
ATOM      8  O   UNL     1      34.862 -24.957 -11.921  0.00  0.00    -0.474 OA
ATOM      9  H   UNL     1      34.343 -25.718 -11.747  0.00  0.00    +0.296 HD
ENDBRANCH   7   8
ENDBRANCH   3   7
TORSDOF 2
ENDMDL
MODEL 5
REMARK VINA RESULT:      -4.2     15.669     16.004
REMARK  Name = 974
REMARK  2 active torsions:
REMARK  status: ('A' for Active; 'I' for Inactive)
REMARK    1  A    between atoms: C_3  and  C_7
REMARK    2  A    between atoms: C_7  and  O_8
REMARK                            x       y       z     vdW  Elec       q    Type
REMARK                         _______ _______ _______ _____ _____    ______ ____
ROOT
ATOM      1  O   UNL     1      40.929 -14.489 -17.587  0.00  0.00    -0.263 OA
ATOM      2  N   UNL     1      41.676 -13.461 -15.650  0.00  0.00    -0.320 N 
ATOM      3  C   UNL     1      41.272 -14.525 -16.416  0.00  0.00    +0.319 C 
ATOM      4  H   UNL     1      41.710 -12.558 -16.041  0.00  0.00    +0.145 HD
ATOM      5  H   UNL     1      41.933 -13.600 -14.710  0.00  0.00    +0.145 HD
ENDROOT
BRANCH   3   7
ATOM      6  O   UNL     1      42.261 -16.545 -15.570  0.00  0.00    -0.240 OA
ATOM      7  C   UNL     1      41.279 -15.836 -15.664  0.00  0.00    +0.392 C 
BRANCH   7   8
ATOM      8  O   UNL     1      40.065 -16.072 -15.142  0.00  0.00    -0.474 OA
ATOM      9  H   UNL     1      39.366 -15.464 -15.287  0.00  0.00    +0.296 HD
ENDBRANCH   7   8
ENDBRANCH   3   7
TORSDOF 2
ENDMDL
MODEL 6
REMARK VINA RESULT:      -4.2     10.056     11.074
REMARK  Name = 974
REMARK  2 active torsions:
REMARK  status: ('A' for Active; 'I' for Inactive)
REMARK    1  A    between atoms: C_3  and  C_7
REMARK    2  A    between atoms: C_7  and  O_8
REMARK                            x       y       z     vdW  Elec       q    Type
REMARK                         _______ _______ _______ _____ _____    ______ ____
ROOT
ATOM      1  O   UNL     1      36.311 -24.583 -15.654  0.00  0.00    -0.263 OA
ATOM      2  N   UNL     1      35.965 -25.506 -13.558  0.00  0.00    -0.320 N 
ATOM      3  C   UNL     1      36.451 -25.482 -14.841  0.00  0.00    +0.319 C 
ATOM      4  H   UNL     1      35.445 -24.744 -13.214  0.00  0.00    +0.145 HD
ATOM      5  H   UNL     1      36.136 -26.286 -12.981  0.00  0.00    +0.145 HD
ENDROOT
BRANCH   3   7
ATOM      6  O   UNL     1      38.171 -27.137 -14.565  0.00  0.00    -0.240 OA
ATOM      7  C   UNL     1      37.225 -26.728 -15.208  0.00  0.00    +0.392 C 
BRANCH   7   8
ATOM      8  O   UNL     1      36.708 -27.279 -16.317  0.00  0.00    -0.474 OA
ATOM      9  H   UNL     1      36.546 -26.747 -17.072  0.00  0.00    +0.296 HD
ENDBRANCH   7   8
ENDBRANCH   3   7
TORSDOF 2
ENDMDL
MODEL 7
REMARK VINA RESULT:      -4.2     10.878     11.679
REMARK  Name = 974
REMARK  2 active torsions:
REMARK  status: ('A' for Active; 'I' for Inactive)
REMARK    1  A    between atoms: C_3  and  C_7
REMARK    2  A    between atoms: C_7  and  O_8
REMARK                            x       y       z     vdW  Elec       q    Type
REMARK                         _______ _______ _______ _____ _____    ______ ____
ROOT
ATOM      1  O   UNL     1      36.711 -27.364 -16.240  0.00  0.00    -0.263 OA
ATOM      2  N   UNL     1      35.642 -25.930 -14.767  0.00  0.00    -0.320 N 
ATOM      3  C   UNL     1      36.720 -26.602 -15.286  0.00  0.00    +0.319 C 
ATOM      4  H   UNL     1      34.752 -26.042 -15.171  0.00  0.00    +0.145 HD
ATOM      5  H   UNL     1      35.759 -25.336 -13.991  0.00  0.00    +0.145 HD
ENDROOT
BRANCH   3   7
ATOM      6  O   UNL     1      38.114 -26.386 -13.341  0.00  0.00    -0.240 OA
ATOM      7  C   UNL     1      38.009 -26.319 -14.550  0.00  0.00    +0.392 C 
BRANCH   7   8
ATOM      8  O   UNL     1      38.976 -25.995 -15.423  0.00  0.00    -0.474 OA
ATOM      9  H   UNL     1      38.972 -26.367 -16.284  0.00  0.00    +0.296 HD
ENDBRANCH   7   8
ENDBRANCH   3   7
TORSDOF 2
ENDMDL
MODEL 8
REMARK VINA RESULT:      -4.1      1.959      2.564
REMARK  Name = 974
REMARK  2 active torsions:
REMARK  status: ('A' for Active; 'I' for Inactive)
REMARK    1  A    between atoms: C_3  and  C_7
REMARK    2  A    between atoms: C_7  and  O_8
REMARK                            x       y       z     vdW  Elec       q    Type
REMARK                         _______ _______ _______ _____ _____    ______ ____
ROOT
ATOM      1  O   UNL     1      27.714 -24.580 -17.539  0.00  0.00    -0.263 OA
ATOM      2  N   UNL     1      28.820 -24.564 -15.504  0.00  0.00    -0.320 N 
ATOM      3  C   UNL     1      28.327 -24.004 -16.656  0.00  0.00    +0.319 C 
ATOM      4  H   UNL     1      28.690 -25.523 -15.329  0.00  0.00    +0.145 HD
ATOM      5  H   UNL     1      29.303 -24.005 -14.852  0.00  0.00    +0.145 HD
ENDROOT
BRANCH   3   7
ATOM      6  O   UNL     1      27.765 -21.668 -16.615  0.00  0.00    -0.240 OA
ATOM      7  C   UNL     1      28.614 -22.523 -16.768  0.00  0.00    +0.392 C 
BRANCH   7   8
ATOM      8  O   UNL     1      29.911 -22.327 -17.052  0.00  0.00    -0.474 OA
ATOM      9  H   UNL     1      30.385 -21.640 -16.625  0.00  0.00    +0.296 HD
ENDBRANCH   7   8
ENDBRANCH   3   7
TORSDOF 2
ENDMDL
MODEL 9
REMARK VINA RESULT:      -4.1     11.367     11.612
REMARK  Name = 974
REMARK  2 active torsions:
REMARK  status: ('A' for Active; 'I' for Inactive)
REMARK    1  A    between atoms: C_3  and  C_7
REMARK    2  A    between atoms: C_7  and  O_8
REMARK                            x       y       z     vdW  Elec       q    Type
REMARK                         _______ _______ _______ _____ _____    ______ ____
ROOT
ATOM      1  O   UNL     1      38.378 -27.203 -14.665  0.00  0.00    -0.263 OA
ATOM      2  N   UNL     1      36.116 -26.874 -15.046  0.00  0.00    -0.320 N 
ATOM      3  C   UNL     1      37.300 -26.709 -14.373  0.00  0.00    +0.319 C 
ATOM      4  H   UNL     1      36.083 -27.438 -15.852  0.00  0.00    +0.145 HD
ATOM      5  H   UNL     1      35.300 -26.428 -14.723  0.00  0.00    +0.145 HD
ENDROOT
BRANCH   3   7
ATOM      6  O   UNL     1      37.351 -24.613 -13.198  0.00  0.00    -0.240 OA
ATOM      7  C   UNL     1      37.176 -25.815 -13.160  0.00  0.00    +0.392 C 
BRANCH   7   8
ATOM      8  O   UNL     1      36.854 -26.546 -12.081  0.00  0.00    -0.474 OA
ATOM      9  H   UNL     1      36.786 -27.479 -12.151  0.00  0.00    +0.296 HD
ENDBRANCH   7   8
ENDBRANCH   3   7
TORSDOF 2
ENDMDL
