MODEL 1
REMARK VINA RESULT:      -7.2      0.000      0.000
REMARK  Name = 3383616
REMARK  10 active torsions:
REMARK  status: ('A' for Active; 'I' for Inactive)
REMARK    1  A    between atoms: C_1  and  C_2
REMARK    2  A    between atoms: C_1  and  C_9
REMARK    3  A    between atoms: C_2  and  C_3
REMARK    4  A    between atoms: C_3  and  C_4
REMARK    5  A    between atoms: C_4  and  C_5
REMARK    6  A    between atoms: C_5  and  C_6
REMARK    7  A    between atoms: C_6  and  C_7
REMARK    8  A    between atoms: C_9  and  C_10
REMARK    9  A    between atoms: C_11  and  C_12
REMARK   10  A    between atoms: C_12  and  S_13
REMARK                            x       y       z     vdW  Elec       q    Type
REMARK                         _______ _______ _______ _____ _____    ______ ____
ROOT
ATOM      1  C   UNL     1      33.774 -23.130 -15.671  0.00  0.00    +0.005 C 
ENDROOT
BRANCH   1   2
ATOM      2  C   UNL     1      33.388 -23.691 -17.043  0.00  0.00    +0.000 C 
BRANCH   2   3
ATOM      3  C   UNL     1      33.301 -22.622 -18.136  0.00  0.00    +0.000 C 
BRANCH   3   4
ATOM      4  C   UNL     1      34.614 -22.421 -18.896  0.00  0.00    +0.000 C 
BRANCH   4   5
ATOM      5  C   UNL     1      34.567 -21.156 -19.757  0.00  0.00    +0.000 C 
BRANCH   5   6
ATOM      6  C   UNL     1      33.133 -20.652 -19.927  0.00  0.00    +0.000 C 
BRANCH   6   7
ATOM      7  C   UNL     1      33.051 -19.558 -20.990  0.00  0.00    +0.000 C 
ATOM      8  C   UNL     1      34.416 -19.260 -21.589  0.00  0.00    +0.000 C 
ENDBRANCH   6   7
ENDBRANCH   5   6
ENDBRANCH   4   5
ENDBRANCH   3   4
ENDBRANCH   2   3
ENDBRANCH   1   2
BRANCH   1   9
ATOM      9  C   UNL     1      32.583 -23.154 -14.710  0.00  0.00    +0.026 C 
BRANCH   9  10
ATOM     10  C   UNL     1      31.362 -23.889 -15.271  0.00  0.00    -0.029 C 
ATOM     11  C   UNL     1      29.997 -23.288 -14.917  0.00  0.00    -0.005 C 
BRANCH  11  12
ATOM     12  C   UNL     1      28.792 -23.992 -15.527  0.00  0.00    +0.184 C 
BRANCH  12  13
ATOM     13  S   UNL     1      27.883 -22.967 -16.636  0.00  0.00    +0.027 S 
ATOM     14  O   UNL     1      28.838 -21.911 -16.976  0.00  0.00    -0.069 OA
ATOM     15  O   UNL     1      27.551 -23.873 -17.735  0.00  0.00    -0.069 OA
ATOM     16  O   UNL     1      26.743 -22.529 -15.831  0.00  0.00    -0.069 OA
ENDBRANCH  12  13
ENDBRANCH  11  12
ENDBRANCH   9  10
ENDBRANCH   1   9
TORSDOF 10
ENDMDL
MODEL 2
REMARK VINA RESULT:      -7.1      0.846      2.020
REMARK  Name = 3383616
REMARK  10 active torsions:
REMARK  status: ('A' for Active; 'I' for Inactive)
REMARK    1  A    between atoms: C_1  and  C_2
REMARK    2  A    between atoms: C_1  and  C_9
REMARK    3  A    between atoms: C_2  and  C_3
REMARK    4  A    between atoms: C_3  and  C_4
REMARK    5  A    between atoms: C_4  and  C_5
REMARK    6  A    between atoms: C_5  and  C_6
REMARK    7  A    between atoms: C_6  and  C_7
REMARK    8  A    between atoms: C_9  and  C_10
REMARK    9  A    between atoms: C_11  and  C_12
REMARK   10  A    between atoms: C_12  and  S_13
REMARK                            x       y       z     vdW  Elec       q    Type
REMARK                         _______ _______ _______ _____ _____    ______ ____
ROOT
ATOM      1  C   UNL     1      33.108 -22.867 -17.875  0.00  0.00    +0.005 C 
ENDROOT
BRANCH   1   2
ATOM      2  C   UNL     1      34.540 -22.434 -18.201  0.00  0.00    +0.000 C 
BRANCH   2   3
ATOM      3  C   UNL     1      34.651 -21.618 -19.492  0.00  0.00    +0.000 C 
BRANCH   3   4
ATOM      4  C   UNL     1      33.356 -20.889 -19.864  0.00  0.00    +0.000 C 
BRANCH   4   5
ATOM      5  C   UNL     1      33.599 -19.860 -20.971  0.00  0.00    +0.000 C 
BRANCH   5   6
ATOM      6  C   UNL     1      35.089 -19.558 -21.132  0.00  0.00    +0.000 C 
BRANCH   6   7
ATOM      7  C   UNL     1      35.334 -18.558 -22.261  0.00  0.00    +0.000 C 
ATOM      8  C   UNL     1      34.782 -19.064 -23.583  0.00  0.00    +0.000 C 
ENDBRANCH   6   7
ENDBRANCH   5   6
ENDBRANCH   4   5
ENDBRANCH   3   4
ENDBRANCH   2   3
ENDBRANCH   1   2
BRANCH   1   9
ATOM      9  C   UNL     1      32.979 -23.289 -16.410  0.00  0.00    +0.026 C 
BRANCH   9  10
ATOM     10  C   UNL     1      31.617 -23.900 -16.069  0.00  0.00    -0.029 C 
ATOM     11  C   UNL     1      30.545 -22.920 -15.580  0.00  0.00    -0.005 C 
BRANCH  11  12
ATOM     12  C   UNL     1      29.178 -23.529 -15.299  0.00  0.00    +0.184 C 
BRANCH  12  13
ATOM     13  S   UNL     1      27.951 -23.037 -16.466  0.00  0.00    +0.027 S 
ATOM     14  O   UNL     1      27.779 -24.231 -17.295  0.00  0.00    -0.069 OA
ATOM     15  O   UNL     1      26.804 -22.701 -15.624  0.00  0.00    -0.069 OA
ATOM     16  O   UNL     1      28.572 -21.901 -17.146  0.00  0.00    -0.069 OA
ENDBRANCH  12  13
ENDBRANCH  11  12
ENDBRANCH   9  10
ENDBRANCH   1   9
TORSDOF 10
ENDMDL
MODEL 3
REMARK VINA RESULT:      -6.9      6.541      7.077
REMARK  Name = 3383616
REMARK  10 active torsions:
REMARK  status: ('A' for Active; 'I' for Inactive)
REMARK    1  A    between atoms: C_1  and  C_2
REMARK    2  A    between atoms: C_1  and  C_9
REMARK    3  A    between atoms: C_2  and  C_3
REMARK    4  A    between atoms: C_3  and  C_4
REMARK    5  A    between atoms: C_4  and  C_5
REMARK    6  A    between atoms: C_5  and  C_6
REMARK    7  A    between atoms: C_6  and  C_7
REMARK    8  A    between atoms: C_9  and  C_10
REMARK    9  A    between atoms: C_11  and  C_12
REMARK   10  A    between atoms: C_12  and  S_13
REMARK                            x       y       z     vdW  Elec       q    Type
REMARK                         _______ _______ _______ _____ _____    ______ ____
ROOT
ATOM      1  C   UNL     1      36.605 -21.619 -18.193  0.00  0.00    +0.005 C 
ENDROOT
BRANCH   1   2
ATOM      2  C   UNL     1      35.149 -22.089 -18.265  0.00  0.00    +0.000 C 
BRANCH   2   3
ATOM      3  C   UNL     1      34.529 -21.937 -19.657  0.00  0.00    +0.000 C 
BRANCH   3   4
ATOM      4  C   UNL     1      33.217 -21.149 -19.656  0.00  0.00    +0.000 C 
BRANCH   4   5
ATOM      5  C   UNL     1      33.305 -19.926 -20.572  0.00  0.00    +0.000 C 
BRANCH   5   6
ATOM      6  C   UNL     1      34.714 -19.761 -21.145  0.00  0.00    +0.000 C 
BRANCH   6   7
ATOM      7  C   UNL     1      34.766 -18.633 -22.174  0.00  0.00    +0.000 C 
ATOM      8  C   UNL     1      34.877 -19.176 -23.590  0.00  0.00    +0.000 C 
ENDBRANCH   6   7
ENDBRANCH   5   6
ENDBRANCH   4   5
ENDBRANCH   3   4
ENDBRANCH   2   3
ENDBRANCH   1   2
BRANCH   1   9
ATOM      9  C   UNL     1      37.120 -21.635 -16.752  0.00  0.00    +0.026 C 
BRANCH   9  10
ATOM     10  C   UNL     1      36.604 -22.823 -15.934  0.00  0.00    -0.029 C 
ATOM     11  C   UNL     1      37.662 -23.606 -15.148  0.00  0.00    -0.005 C 
BRANCH  11  12
ATOM     12  C   UNL     1      37.130 -24.749 -14.293  0.00  0.00    +0.184 C 
BRANCH  12  13
ATOM     13  S   UNL     1      38.409 -25.668 -13.500  0.00  0.00    +0.027 S 
ATOM     14  O   UNL     1      38.634 -26.788 -14.415  0.00  0.00    -0.069 OA
ATOM     15  O   UNL     1      39.510 -24.709 -13.419  0.00  0.00    -0.069 OA
ATOM     16  O   UNL     1      37.813 -26.033 -12.215  0.00  0.00    -0.069 OA
ENDBRANCH  12  13
ENDBRANCH  11  12
ENDBRANCH   9  10
ENDBRANCH   1   9
TORSDOF 10
ENDMDL
MODEL 4
REMARK VINA RESULT:      -6.8      4.643      7.203
REMARK  Name = 3383616
REMARK  10 active torsions:
REMARK  status: ('A' for Active; 'I' for Inactive)
REMARK    1  A    between atoms: C_1  and  C_2
REMARK    2  A    between atoms: C_1  and  C_9
REMARK    3  A    between atoms: C_2  and  C_3
REMARK    4  A    between atoms: C_3  and  C_4
REMARK    5  A    between atoms: C_4  and  C_5
REMARK    6  A    between atoms: C_5  and  C_6
REMARK    7  A    between atoms: C_6  and  C_7
REMARK    8  A    between atoms: C_9  and  C_10
REMARK    9  A    between atoms: C_11  and  C_12
REMARK   10  A    between atoms: C_12  and  S_13
REMARK                            x       y       z     vdW  Elec       q    Type
REMARK                         _______ _______ _______ _____ _____    ______ ____
ROOT
ATOM      1  C   UNL     1      34.350 -17.803 -21.426  0.00  0.00    +0.005 C 
ENDROOT
BRANCH   1   2
ATOM      2  C   UNL     1      34.972 -16.558 -20.787  0.00  0.00    +0.000 C 
BRANCH   2   3
ATOM      3  C   UNL     1      34.399 -15.245 -21.329  0.00  0.00    +0.000 C 
BRANCH   3   4
ATOM      4  C   UNL     1      33.432 -15.440 -22.500  0.00  0.00    +0.000 C 
BRANCH   4   5
ATOM      5  C   UNL     1      33.960 -14.772 -23.771  0.00  0.00    +0.000 C 
BRANCH   5   6
ATOM      6  C   UNL     1      33.789 -15.681 -24.989  0.00  0.00    +0.000 C 
BRANCH   6   7
ATOM      7  C   UNL     1      34.864 -16.766 -25.028  0.00  0.00    +0.000 C 
ATOM      8  C   UNL     1      34.253 -18.152 -25.157  0.00  0.00    +0.000 C 
ENDBRANCH   6   7
ENDBRANCH   5   6
ENDBRANCH   4   5
ENDBRANCH   3   4
ENDBRANCH   2   3
ENDBRANCH   1   2
BRANCH   1   9
ATOM      9  C   UNL     1      35.427 -18.807 -21.842  0.00  0.00    +0.026 C 
BRANCH   9  10
ATOM     10  C   UNL     1      35.832 -19.767 -20.719  0.00  0.00    -0.029 C 
ATOM     11  C   UNL     1      34.738 -20.720 -20.223  0.00  0.00    -0.005 C 
BRANCH  11  12
ATOM     12  C   UNL     1      35.168 -21.708 -19.148  0.00  0.00    +0.184 C 
BRANCH  12  13
ATOM     13  S   UNL     1      33.877 -22.809 -18.668  0.00  0.00    +0.027 S 
ATOM     14  O   UNL     1      32.673 -21.983 -18.780  0.00  0.00    -0.069 OA
ATOM     15  O   UNL     1      33.976 -23.889 -19.650  0.00  0.00    -0.069 OA
ATOM     16  O   UNL     1      34.243 -23.181 -17.302  0.00  0.00    -0.069 OA
ENDBRANCH  12  13
ENDBRANCH  11  12
ENDBRANCH   9  10
ENDBRANCH   1   9
TORSDOF 10
ENDMDL
MODEL 5
REMARK VINA RESULT:      -6.8      4.998      7.553
REMARK  Name = 3383616
REMARK  10 active torsions:
REMARK  status: ('A' for Active; 'I' for Inactive)
REMARK    1  A    between atoms: C_1  and  C_2
REMARK    2  A    between atoms: C_1  and  C_9
REMARK    3  A    between atoms: C_2  and  C_3
REMARK    4  A    between atoms: C_3  and  C_4
REMARK    5  A    between atoms: C_4  and  C_5
REMARK    6  A    between atoms: C_5  and  C_6
REMARK    7  A    between atoms: C_6  and  C_7
REMARK    8  A    between atoms: C_9  and  C_10
REMARK    9  A    between atoms: C_11  and  C_12
REMARK   10  A    between atoms: C_12  and  S_13
REMARK                            x       y       z     vdW  Elec       q    Type
REMARK                         _______ _______ _______ _____ _____    ______ ____
ROOT
ATOM      1  C   UNL     1      35.362 -18.899 -23.294  0.00  0.00    +0.005 C 
ENDROOT
BRANCH   1   2
ATOM      2  C   UNL     1      34.493 -17.968 -24.144  0.00  0.00    +0.000 C 
BRANCH   2   3
ATOM      3  C   UNL     1      35.002 -16.524 -24.179  0.00  0.00    +0.000 C 
BRANCH   3   4
ATOM      4  C   UNL     1      33.879 -15.483 -24.169  0.00  0.00    +0.000 C 
BRANCH   4   5
ATOM      5  C   UNL     1      34.002 -14.548 -22.962  0.00  0.00    +0.000 C 
BRANCH   5   6
ATOM      6  C   UNL     1      32.712 -14.530 -22.141  0.00  0.00    +0.000 C 
BRANCH   6   7
ATOM      7  C   UNL     1      32.995 -14.763 -20.657  0.00  0.00    +0.000 C 
ATOM      8  C   UNL     1      34.421 -15.240 -20.431  0.00  0.00    +0.000 C 
ENDBRANCH   6   7
ENDBRANCH   5   6
ENDBRANCH   4   5
ENDBRANCH   3   4
ENDBRANCH   2   3
ENDBRANCH   1   2
BRANCH   1   9
ATOM      9  C   UNL     1      35.535 -18.351 -21.876  0.00  0.00    +0.026 C 
BRANCH   9  10
ATOM     10  C   UNL     1      35.973 -19.411 -20.861  0.00  0.00    -0.029 C 
ATOM     11  C   UNL     1      34.940 -20.495 -20.534  0.00  0.00    -0.005 C 
BRANCH  11  12
ATOM     12  C   UNL     1      35.407 -21.576 -19.568  0.00  0.00    +0.184 C 
BRANCH  12  13
ATOM     13  S   UNL     1      34.077 -22.517 -18.893  0.00  0.00    +0.027 S 
ATOM     14  O   UNL     1      32.929 -21.620 -19.027  0.00  0.00    -0.069 OA
ATOM     15  O   UNL     1      34.036 -23.702 -19.749  0.00  0.00    -0.069 OA
ATOM     16  O   UNL     1      34.507 -22.764 -17.517  0.00  0.00    -0.069 OA
ENDBRANCH  12  13
ENDBRANCH  11  12
ENDBRANCH   9  10
ENDBRANCH   1   9
TORSDOF 10
ENDMDL
MODEL 6
REMARK VINA RESULT:      -6.8      5.841      6.294
REMARK  Name = 3383616
REMARK  10 active torsions:
REMARK  status: ('A' for Active; 'I' for Inactive)
REMARK    1  A    between atoms: C_1  and  C_2
REMARK    2  A    between atoms: C_1  and  C_9
REMARK    3  A    between atoms: C_2  and  C_3
REMARK    4  A    between atoms: C_3  and  C_4
REMARK    5  A    between atoms: C_4  and  C_5
REMARK    6  A    between atoms: C_5  and  C_6
REMARK    7  A    between atoms: C_6  and  C_7
REMARK    8  A    between atoms: C_9  and  C_10
REMARK    9  A    between atoms: C_11  and  C_12
REMARK   10  A    between atoms: C_12  and  S_13
REMARK                            x       y       z     vdW  Elec       q    Type
REMARK                         _______ _______ _______ _____ _____    ______ ____
ROOT
ATOM      1  C   UNL     1      35.503 -22.360 -17.464  0.00  0.00    +0.005 C 
ENDROOT
BRANCH   1   2
ATOM      2  C   UNL     1      36.325 -21.604 -18.511  0.00  0.00    +0.000 C 
BRANCH   2   3
ATOM      3  C   UNL     1      35.543 -21.295 -19.792  0.00  0.00    +0.000 C 
BRANCH   3   4
ATOM      4  C   UNL     1      34.025 -21.307 -19.597  0.00  0.00    +0.000 C 
BRANCH   4   5
ATOM      5  C   UNL     1      33.337 -20.323 -20.547  0.00  0.00    +0.000 C 
BRANCH   5   6
ATOM      6  C   UNL     1      34.302 -19.229 -21.008  0.00  0.00    +0.000 C 
BRANCH   6   7
ATOM      7  C   UNL     1      34.504 -19.268 -22.521  0.00  0.00    +0.000 C 
ATOM      8  C   UNL     1      35.543 -18.253 -22.971  0.00  0.00    +0.000 C 
ENDBRANCH   6   7
ENDBRANCH   5   6
ENDBRANCH   4   5
ENDBRANCH   3   4
ENDBRANCH   2   3
ENDBRANCH   1   2
BRANCH   1   9
ATOM      9  C   UNL     1      36.318 -22.603 -16.192  0.00  0.00    +0.026 C 
BRANCH   9  10
ATOM     10  C   UNL     1      35.455 -22.914 -14.965  0.00  0.00    -0.029 C 
ATOM     11  C   UNL     1      36.185 -23.549 -13.776  0.00  0.00    -0.005 C 
BRANCH  11  12
ATOM     12  C   UNL     1      35.330 -23.802 -12.541  0.00  0.00    +0.184 C 
BRANCH  12  13
ATOM     13  S   UNL     1      36.271 -24.341 -11.151  0.00  0.00    +0.027 S 
ATOM     14  O   UNL     1      37.268 -23.282 -10.989  0.00  0.00    -0.069 OA
ATOM     15  O   UNL     1      35.275 -24.417 -10.082  0.00  0.00    -0.069 OA
ATOM     16  O   UNL     1      36.807 -25.629 -11.588  0.00  0.00    -0.069 OA
ENDBRANCH  12  13
ENDBRANCH  11  12
ENDBRANCH   9  10
ENDBRANCH   1   9
TORSDOF 10
ENDMDL
MODEL 7
REMARK VINA RESULT:      -6.8      4.444      7.335
REMARK  Name = 3383616
REMARK  10 active torsions:
REMARK  status: ('A' for Active; 'I' for Inactive)
REMARK    1  A    between atoms: C_1  and  C_2
REMARK    2  A    between atoms: C_1  and  C_9
REMARK    3  A    between atoms: C_2  and  C_3
REMARK    4  A    between atoms: C_3  and  C_4
REMARK    5  A    between atoms: C_4  and  C_5
REMARK    6  A    between atoms: C_5  and  C_6
REMARK    7  A    between atoms: C_6  and  C_7
REMARK    8  A    between atoms: C_9  and  C_10
REMARK    9  A    between atoms: C_11  and  C_12
REMARK   10  A    between atoms: C_12  and  S_13
REMARK                            x       y       z     vdW  Elec       q    Type
REMARK                         _______ _______ _______ _____ _____    ______ ____
ROOT
ATOM      1  C   UNL     1      34.630 -17.428 -22.216  0.00  0.00    +0.005 C 
ENDROOT
BRANCH   1   2
ATOM      2  C   UNL     1      34.914 -16.804 -20.847  0.00  0.00    +0.000 C 
BRANCH   2   3
ATOM      3  C   UNL     1      34.575 -15.312 -20.776  0.00  0.00    +0.000 C 
BRANCH   3   4
ATOM      4  C   UNL     1      33.086 -15.037 -20.546  0.00  0.00    +0.000 C 
BRANCH   4   5
ATOM      5  C   UNL     1      32.474 -14.281 -21.727  0.00  0.00    +0.000 C 
BRANCH   5   6
ATOM      6  C   UNL     1      33.548 -13.844 -22.725  0.00  0.00    +0.000 C 
BRANCH   6   7
ATOM      7  C   UNL     1      33.016 -13.862 -24.157  0.00  0.00    +0.000 C 
ATOM      8  C   UNL     1      33.512 -15.080 -24.920  0.00  0.00    +0.000 C 
ENDBRANCH   6   7
ENDBRANCH   5   6
ENDBRANCH   4   5
ENDBRANCH   3   4
ENDBRANCH   2   3
ENDBRANCH   1   2
BRANCH   1   9
ATOM      9  C   UNL     1      34.824 -18.946 -22.182  0.00  0.00    +0.026 C 
BRANCH   9  10
ATOM     10  C   UNL     1      33.792 -19.673 -21.315  0.00  0.00    -0.029 C 
ATOM     11  C   UNL     1      34.357 -20.650 -20.277  0.00  0.00    -0.005 C 
BRANCH  11  12
ATOM     12  C   UNL     1      33.326 -21.324 -19.382  0.00  0.00    +0.184 C 
BRANCH  12  13
ATOM     13  S   UNL     1      33.947 -22.768 -18.582  0.00  0.00    +0.027 S 
ATOM     14  O   UNL     1      33.937 -23.772 -19.646  0.00  0.00    -0.069 OA
ATOM     15  O   UNL     1      35.278 -22.357 -18.136  0.00  0.00    -0.069 OA
ATOM     16  O   UNL     1      32.981 -22.999 -17.508  0.00  0.00    -0.069 OA
ENDBRANCH  12  13
ENDBRANCH  11  12
ENDBRANCH   9  10
ENDBRANCH   1   9
TORSDOF 10
ENDMDL
MODEL 8
REMARK VINA RESULT:      -6.7      5.607      6.398
REMARK  Name = 3383616
REMARK  10 active torsions:
REMARK  status: ('A' for Active; 'I' for Inactive)
REMARK    1  A    between atoms: C_1  and  C_2
REMARK    2  A    between atoms: C_1  and  C_9
REMARK    3  A    between atoms: C_2  and  C_3
REMARK    4  A    between atoms: C_3  and  C_4
REMARK    5  A    between atoms: C_4  and  C_5
REMARK    6  A    between atoms: C_5  and  C_6
REMARK    7  A    between atoms: C_6  and  C_7
REMARK    8  A    between atoms: C_9  and  C_10
REMARK    9  A    between atoms: C_11  and  C_12
REMARK   10  A    between atoms: C_12  and  S_13
REMARK                            x       y       z     vdW  Elec       q    Type
REMARK                         _______ _______ _______ _____ _____    ______ ____
ROOT
ATOM      1  C   UNL     1      35.323 -22.056 -18.557  0.00  0.00    +0.005 C 
ENDROOT
BRANCH   1   2
ATOM      2  C   UNL     1      34.894 -21.227 -19.771  0.00  0.00    +0.000 C 
BRANCH   2   3
ATOM      3  C   UNL     1      33.386 -20.972 -19.832  0.00  0.00    +0.000 C 
BRANCH   3   4
ATOM      4  C   UNL     1      33.000 -19.824 -20.769  0.00  0.00    +0.000 C 
BRANCH   4   5
ATOM      5  C   UNL     1      34.230 -19.019 -21.193  0.00  0.00    +0.000 C 
BRANCH   5   6
ATOM      6  C   UNL     1      34.548 -19.229 -22.675  0.00  0.00    +0.000 C 
BRANCH   6   7
ATOM      7  C   UNL     1      35.561 -18.201 -23.176  0.00  0.00    +0.000 C 
ATOM      8  C   UNL     1      35.174 -16.790 -22.765  0.00  0.00    +0.000 C 
ENDBRANCH   6   7
ENDBRANCH   5   6
ENDBRANCH   4   5
ENDBRANCH   3   4
ENDBRANCH   2   3
ENDBRANCH   1   2
BRANCH   1   9
ATOM      9  C   UNL     1      36.693 -21.613 -18.041  0.00  0.00    +0.026 C 
BRANCH   9  10
ATOM     10  C   UNL     1      36.928 -21.950 -16.566  0.00  0.00    -0.029 C 
ATOM     11  C   UNL     1      35.864 -22.831 -15.901  0.00  0.00    -0.005 C 
BRANCH  11  12
ATOM     12  C   UNL     1      36.137 -23.208 -14.451  0.00  0.00    +0.184 C 
BRANCH  12  13
ATOM     13  S   UNL     1      37.052 -24.707 -14.290  0.00  0.00    +0.027 S 
ATOM     14  O   UNL     1      36.647 -25.476 -15.467  0.00  0.00    -0.069 OA
ATOM     15  O   UNL     1      38.442 -24.253 -14.298  0.00  0.00    -0.069 OA
ATOM     16  O   UNL     1      36.587 -25.248 -13.012  0.00  0.00    -0.069 OA
ENDBRANCH  12  13
ENDBRANCH  11  12
ENDBRANCH   9  10
ENDBRANCH   1   9
TORSDOF 10
ENDMDL
MODEL 9
REMARK VINA RESULT:      -6.6      6.996      9.534
REMARK  Name = 3383616
REMARK  10 active torsions:
REMARK  status: ('A' for Active; 'I' for Inactive)
REMARK    1  A    between atoms: C_1  and  C_2
REMARK    2  A    between atoms: C_1  and  C_9
REMARK    3  A    between atoms: C_2  and  C_3
REMARK    4  A    between atoms: C_3  and  C_4
REMARK    5  A    between atoms: C_4  and  C_5
REMARK    6  A    between atoms: C_5  and  C_6
REMARK    7  A    between atoms: C_6  and  C_7
REMARK    8  A    between atoms: C_9  and  C_10
REMARK    9  A    between atoms: C_11  and  C_12
REMARK   10  A    between atoms: C_12  and  S_13
REMARK                            x       y       z     vdW  Elec       q    Type
REMARK                         _______ _______ _______ _____ _____    ______ ____
ROOT
ATOM      1  C   UNL     1      34.568 -19.363 -22.824  0.00  0.00    +0.005 C 
ENDROOT
BRANCH   1   2
ATOM      2  C   UNL     1      34.204 -19.086 -21.363  0.00  0.00    +0.000 C 
BRANCH   2   3
ATOM      3  C   UNL     1      33.027 -19.925 -20.859  0.00  0.00    +0.000 C 
BRANCH   3   4
ATOM      4  C   UNL     1      33.435 -21.003 -19.851  0.00  0.00    +0.000 C 
BRANCH   4   5
ATOM      5  C   UNL     1      34.957 -21.087 -19.716  0.00  0.00    +0.000 C 
BRANCH   5   6
ATOM      6  C   UNL     1      35.363 -22.009 -18.565  0.00  0.00    +0.000 C 
BRANCH   6   7
ATOM      7  C   UNL     1      36.766 -21.679 -18.058  0.00  0.00    +0.000 C 
ATOM      8  C   UNL     1      36.928 -22.043 -16.591  0.00  0.00    +0.000 C 
ENDBRANCH   6   7
ENDBRANCH   5   6
ENDBRANCH   4   5
ENDBRANCH   3   4
ENDBRANCH   2   3
ENDBRANCH   1   2
BRANCH   1   9
ATOM      9  C   UNL     1      35.499 -18.282 -23.376  0.00  0.00    +0.026 C 
BRANCH   9  10
ATOM     10  C   UNL     1      35.277 -16.904 -22.744  0.00  0.00    -0.029 C 
ATOM     11  C   UNL     1      34.680 -15.832 -23.664  0.00  0.00    -0.005 C 
BRANCH  11  12
ATOM     12  C   UNL     1      34.410 -14.484 -23.010  0.00  0.00    +0.184 C 
BRANCH  12  13
ATOM     13  S   UNL     1      33.228 -13.516 -23.890  0.00  0.00    +0.027 S 
ATOM     14  O   UNL     1      32.925 -14.341 -25.061  0.00  0.00    -0.069 OA
ATOM     15  O   UNL     1      32.130 -13.378 -22.934  0.00  0.00    -0.069 OA
ATOM     16  O   UNL     1      33.955 -12.280 -24.179  0.00  0.00    -0.069 OA
ENDBRANCH  12  13
ENDBRANCH  11  12
ENDBRANCH   9  10
ENDBRANCH   1   9
TORSDOF 10
ENDMDL
