MODEL 1
REMARK VINA RESULT:     -11.7      0.000      0.000
REMARK  Name = 5625
REMARK  5 active torsions:
REMARK  status: ('A' for Active; 'I' for Inactive)
REMARK    1  A    between atoms: C_8  and  C_10
REMARK    2  A    between atoms: C_16  and  N_19
REMARK    3  A    between atoms: N_19  and  S_21
REMARK    4  A    between atoms: C_27  and  N_31
REMARK    5  A    between atoms: N_31  and  C_33
REMARK                            x       y       z     vdW  Elec       q    Type
REMARK                         _______ _______ _______ _____ _____    ______ ____
ROOT
ATOM      1  O   UNL     1      33.338 -15.406 -27.042  0.00  0.00    -0.269 OA
ATOM      2  N   UNL     1      33.486 -11.228 -24.327  0.00  0.00    -0.289 N 
ATOM      3  N   UNL     1      33.071 -13.807 -25.391  0.00  0.00    -0.272 N 
ATOM      4  C   UNL     1      33.907 -11.520 -25.707  0.00  0.00    +0.114 C 
ATOM      5  C   UNL     1      33.409 -12.379 -23.417  0.00  0.00    +0.114 C 
ATOM      6  C   UNL     1      33.074 -12.658 -26.293  0.00  0.00    +0.115 C 
ATOM      7  C   UNL     1      32.579 -13.497 -24.045  0.00  0.00    +0.115 C 
ATOM      8  C   UNL     1      33.450 -15.077 -25.860  0.00  0.00    +0.263 C 
ATOM      9  N   UNL     1      34.901  -9.296 -24.256  0.00  0.00    -0.228 NA
ATOM     10  C   UNL     1      33.783  -9.960 -23.812  0.00  0.00    +0.145 C 
ATOM     11  C   UNL     1      32.936  -9.377 -22.849  0.00  0.00    +0.077 C 
ATOM     12  C   UNL     1      33.239  -8.118 -22.343  0.00  0.00    +0.019 C 
ATOM     13  C   UNL     1      35.162  -8.074 -23.741  0.00  0.00    +0.100 C 
ATOM     14  C   UNL     1      34.371  -7.447 -22.793  0.00  0.00    +0.022 C 
ENDROOT
BRANCH   8  16
ATOM     15  N   UNL     1      34.134 -17.352 -25.119  0.00  0.00    -0.309 N 
ATOM     16  C   UNL     1      33.995 -16.014 -24.884  0.00  0.00    +0.103 C 
ATOM     17  C   UNL     1      34.445 -15.750 -23.615  0.00  0.00    +0.020 C 
ATOM     18  C   UNL     1      34.878 -16.982 -23.049  0.00  0.00    +0.016 C 
ATOM     19  C   UNL     1      34.672 -17.970 -24.014  0.00  0.00    +0.049 C 
ATOM     20  C   UNL     1      35.428 -17.352 -21.806  0.00  0.00    +0.017 C 
ATOM     21  C   UNL     1      34.989 -19.316 -23.796  0.00  0.00    +0.016 C 
ATOM     22  C   UNL     1      35.750 -18.694 -21.574  0.00  0.00    +0.065 C 
ATOM     23  C   UNL     1      35.533 -19.659 -22.555  0.00  0.00    +0.017 C 
ATOM     24  H   UNL     1      33.885 -17.807 -25.956  0.00  0.00    +0.152 HD
BRANCH  22  25
ATOM     25  N   UNL     1      36.309 -19.077 -20.316  0.00  0.00    -0.219 N 
ATOM     26  H   UNL     1      36.786 -18.423 -19.755  0.00  0.00    +0.173 HD
BRANCH  25  27
ATOM     27  S   UNL     1      36.123 -20.711 -19.806  0.00  0.00    +0.056 S 
ATOM     28  O   UNL     1      36.641 -21.578 -20.848  0.00  0.00    -0.154 OA
ATOM     29  O   UNL     1      36.547 -20.877 -18.430  0.00  0.00    -0.154 OA
ATOM     30  C   UNL     1      34.350 -20.853 -19.851  0.00  0.00    +0.200 C 
ENDBRANCH  25  27
ENDBRANCH  22  25
ENDBRANCH   8  16
BRANCH  11  31
ATOM     31  N   UNL     1      31.792 -10.057 -22.395  0.00  0.00    -0.332 N 
ATOM     32  H   UNL     1      31.005 -10.102 -22.987  0.00  0.00    +0.147 HD
BRANCH  31  33
ATOM     33  C   UNL     1      31.716 -10.685 -21.111  0.00  0.00    +0.069 C 
ATOM     34  C   UNL     1      31.709  -9.620 -20.022  0.00  0.00    +0.021 C 
ATOM     35  C   UNL     1      30.464 -11.551 -21.048  0.00  0.00    +0.021 C 
ENDBRANCH  31  33
ENDBRANCH  11  31
TORSDOF 5
ENDMDL
MODEL 2
REMARK VINA RESULT:     -11.6      0.992      1.436
REMARK  Name = 5625
REMARK  5 active torsions:
REMARK  status: ('A' for Active; 'I' for Inactive)
REMARK    1  A    between atoms: C_8  and  C_10
REMARK    2  A    between atoms: C_16  and  N_19
REMARK    3  A    between atoms: N_19  and  S_21
REMARK    4  A    between atoms: C_27  and  N_31
REMARK    5  A    between atoms: N_31  and  C_33
REMARK                            x       y       z     vdW  Elec       q    Type
REMARK                         _______ _______ _______ _____ _____    ______ ____
ROOT
ATOM      1  O   UNL     1      33.408 -15.724 -26.670  0.00  0.00    -0.269 OA
ATOM      2  N   UNL     1      33.490 -11.338 -24.303  0.00  0.00    -0.289 N 
ATOM      3  N   UNL     1      33.114 -14.001 -25.154  0.00  0.00    -0.272 N 
ATOM      4  C   UNL     1      33.918 -11.735 -25.655  0.00  0.00    +0.114 C 
ATOM      5  C   UNL     1      33.428 -12.413 -23.302  0.00  0.00    +0.114 C 
ATOM      6  C   UNL     1      33.102 -12.929 -26.147  0.00  0.00    +0.115 C 
ATOM      7  C   UNL     1      32.616 -13.590 -23.839  0.00  0.00    +0.115 C 
ATOM      8  C   UNL     1      33.513 -15.299 -25.519  0.00  0.00    +0.263 C 
ATOM      9  N   UNL     1      34.876  -9.386 -24.387  0.00  0.00    -0.228 NA
ATOM     10  C   UNL     1      33.766 -10.028 -23.892  0.00  0.00    +0.145 C 
ATOM     11  C   UNL     1      32.909  -9.382 -22.980  0.00  0.00    +0.077 C 
ATOM     12  C   UNL     1      33.193  -8.082 -22.577  0.00  0.00    +0.019 C 
ATOM     13  C   UNL     1      35.117  -8.123 -23.973  0.00  0.00    +0.100 C 
ATOM     14  C   UNL     1      34.315  -7.432 -23.079  0.00  0.00    +0.022 C 
ENDROOT
BRANCH   8  16
ATOM     15  N   UNL     1      34.178 -15.758 -23.165  0.00  0.00    -0.309 N 
ATOM     16  C   UNL     1      34.070 -16.146 -24.470  0.00  0.00    +0.103 C 
ATOM     17  C   UNL     1      34.567 -17.420 -24.584  0.00  0.00    +0.020 C 
ATOM     18  C   UNL     1      34.998 -17.829 -23.291  0.00  0.00    +0.016 C 
ATOM     19  C   UNL     1      34.742 -16.768 -22.419  0.00  0.00    +0.049 C 
ATOM     20  C   UNL     1      35.581 -19.003 -22.777  0.00  0.00    +0.017 C 
ATOM     21  C   UNL     1      35.043 -16.823 -21.054  0.00  0.00    +0.016 C 
ATOM     22  C   UNL     1      35.888 -19.073 -21.413  0.00  0.00    +0.065 C 
ATOM     23  C   UNL     1      35.622 -17.998 -20.567  0.00  0.00    +0.017 C 
ATOM     24  H   UNL     1      33.894 -14.884 -22.810  0.00  0.00    +0.152 HD
BRANCH  22  25
ATOM     25  N   UNL     1      36.479 -20.261 -20.883  0.00  0.00    -0.219 N 
ATOM     26  H   UNL     1      37.428 -20.468 -21.043  0.00  0.00    +0.173 HD
BRANCH  25  27
ATOM     27  S   UNL     1      35.485 -21.320 -19.957  0.00  0.00    +0.056 S 
ATOM     28  O   UNL     1      34.220 -20.656 -19.704  0.00  0.00    -0.154 OA
ATOM     29  O   UNL     1      35.517 -22.665 -20.497  0.00  0.00    -0.154 OA
ATOM     30  C   UNL     1      36.382 -21.326 -18.421  0.00  0.00    +0.200 C 
ENDBRANCH  25  27
ENDBRANCH  22  25
ENDBRANCH   8  16
BRANCH  11  31
ATOM     31  N   UNL     1      31.774 -10.040 -22.473  0.00  0.00    -0.332 N 
ATOM     32  H   UNL     1      30.971 -10.098 -23.041  0.00  0.00    +0.147 HD
BRANCH  31  33
ATOM     33  C   UNL     1      31.732 -10.629 -21.169  0.00  0.00    +0.069 C 
ATOM     34  C   UNL     1      31.746  -9.530 -20.114  0.00  0.00    +0.021 C 
ATOM     35  C   UNL     1      30.485 -11.495 -21.049  0.00  0.00    +0.021 C 
ENDBRANCH  31  33
ENDBRANCH  11  31
TORSDOF 5
ENDMDL
MODEL 3
REMARK VINA RESULT:     -10.2      5.813     12.993
REMARK  Name = 5625
REMARK  5 active torsions:
REMARK  status: ('A' for Active; 'I' for Inactive)
REMARK    1  A    between atoms: C_8  and  C_10
REMARK    2  A    between atoms: C_16  and  N_19
REMARK    3  A    between atoms: N_19  and  S_21
REMARK    4  A    between atoms: C_27  and  N_31
REMARK    5  A    between atoms: N_31  and  C_33
REMARK                            x       y       z     vdW  Elec       q    Type
REMARK                         _______ _______ _______ _____ _____    ______ ____
ROOT
ATOM      1  O   UNL     1      31.478 -23.009 -17.567  0.00  0.00    -0.269 OA
ATOM      2  N   UNL     1      35.520 -23.638 -14.719  0.00  0.00    -0.289 N 
ATOM      3  N   UNL     1      33.608 -23.459 -16.786  0.00  0.00    -0.272 N 
ATOM      4  C   UNL     1      34.111 -23.374 -14.383  0.00  0.00    +0.114 C 
ATOM      5  C   UNL     1      35.950 -23.238 -16.065  0.00  0.00    +0.114 C 
ATOM      6  C   UNL     1      33.188 -23.928 -15.467  0.00  0.00    +0.115 C 
ATOM      7  C   UNL     1      34.995 -23.801 -17.116  0.00  0.00    +0.115 C 
ATOM      8  C   UNL     1      32.692 -22.811 -17.632  0.00  0.00    +0.263 C 
ATOM      9  N   UNL     1      36.228 -22.843 -12.573  0.00  0.00    -0.228 NA
ATOM     10  C   UNL     1      36.448 -23.640 -13.670  0.00  0.00    +0.145 C 
ATOM     11  C   UNL     1      37.594 -24.456 -13.747  0.00  0.00    +0.077 C 
ATOM     12  C   UNL     1      38.511 -24.450 -12.702  0.00  0.00    +0.019 C 
ATOM     13  C   UNL     1      37.140 -22.866 -11.576  0.00  0.00    +0.100 C 
ATOM     14  C   UNL     1      38.286 -23.644 -11.592  0.00  0.00    +0.022 C 
ENDROOT
BRANCH   8  16
ATOM     15  N   UNL     1      34.558 -21.807 -18.937  0.00  0.00    -0.309 N 
ATOM     16  C   UNL     1      33.234 -21.874 -18.609  0.00  0.00    +0.103 C 
ATOM     17  C   UNL     1      32.558 -20.932 -19.345  0.00  0.00    +0.020 C 
ATOM     18  C   UNL     1      33.513 -20.259 -20.158  0.00  0.00    +0.016 C 
ATOM     19  C   UNL     1      34.759 -20.827 -19.883  0.00  0.00    +0.049 C 
ATOM     20  C   UNL     1      33.436 -19.219 -21.105  0.00  0.00    +0.017 C 
ATOM     21  C   UNL     1      35.936 -20.404 -20.510  0.00  0.00    +0.016 C 
ATOM     22  C   UNL     1      34.607 -18.785 -21.739  0.00  0.00    +0.065 C 
ATOM     23  C   UNL     1      35.836 -19.371 -21.445  0.00  0.00    +0.017 C 
ATOM     24  H   UNL     1      35.264 -22.375 -18.553  0.00  0.00    +0.152 HD
BRANCH  22  25
ATOM     25  N   UNL     1      34.536 -17.732 -22.702  0.00  0.00    -0.219 N 
ATOM     26  H   UNL     1      34.429 -17.929 -23.661  0.00  0.00    +0.173 HD
BRANCH  25  27
ATOM     27  S   UNL     1      34.641 -16.108 -22.139  0.00  0.00    +0.056 S 
ATOM     28  O   UNL     1      35.169 -16.125 -20.787  0.00  0.00    -0.154 OA
ATOM     29  O   UNL     1      35.225 -15.245 -23.147  0.00  0.00    -0.154 OA
ATOM     30  C   UNL     1      32.912 -15.708 -22.013  0.00  0.00    +0.200 C 
ENDBRANCH  25  27
ENDBRANCH  22  25
ENDBRANCH   8  16
BRANCH  11  31
ATOM     31  N   UNL     1      37.819 -25.271 -14.872  0.00  0.00    -0.332 N 
ATOM     32  H   UNL     1      38.182 -24.857 -15.688  0.00  0.00    +0.147 HD
BRANCH  31  33
ATOM     33  C   UNL     1      37.542 -26.675 -14.884  0.00  0.00    +0.069 C 
ATOM     34  C   UNL     1      37.078 -27.115 -13.501  0.00  0.00    +0.021 C 
ATOM     35  C   UNL     1      36.487 -26.970 -15.943  0.00  0.00    +0.021 C 
ENDBRANCH  31  33
ENDBRANCH  11  31
TORSDOF 5
ENDMDL
MODEL 4
REMARK VINA RESULT:      -8.9      4.906      8.987
REMARK  Name = 5625
REMARK  5 active torsions:
REMARK  status: ('A' for Active; 'I' for Inactive)
REMARK    1  A    between atoms: C_8  and  C_10
REMARK    2  A    between atoms: C_16  and  N_19
REMARK    3  A    between atoms: N_19  and  S_21
REMARK    4  A    between atoms: C_27  and  N_31
REMARK    5  A    between atoms: N_31  and  C_33
REMARK                            x       y       z     vdW  Elec       q    Type
REMARK                         _______ _______ _______ _____ _____    ______ ____
ROOT
ATOM      1  O   UNL     1      37.173 -22.282 -18.393  0.00  0.00    -0.269 OA
ATOM      2  N   UNL     1      35.137 -18.532 -20.970  0.00  0.00    -0.289 N 
ATOM      3  N   UNL     1      35.842 -20.987 -19.773  0.00  0.00    -0.272 N 
ATOM      4  C   UNL     1      36.382 -18.628 -20.190  0.00  0.00    +0.114 C 
ATOM      5  C   UNL     1      34.082 -19.495 -20.626  0.00  0.00    +0.114 C 
ATOM      6  C   UNL     1      36.900 -20.066 -20.180  0.00  0.00    +0.115 C 
ATOM      7  C   UNL     1      34.644 -20.915 -20.614  0.00  0.00    +0.115 C 
ATOM      8  C   UNL     1      36.052 -21.881 -18.709  0.00  0.00    +0.263 C 
ATOM      9  N   UNL     1      35.161 -16.143 -20.800  0.00  0.00    -0.228 NA
ATOM     10  C   UNL     1      34.785 -17.276 -21.480  0.00  0.00    +0.145 C 
ATOM     11  C   UNL     1      34.054 -17.185 -22.680  0.00  0.00    +0.077 C 
ATOM     12  C   UNL     1      33.708 -15.934 -23.179  0.00  0.00    +0.019 C 
ATOM     13  C   UNL     1      34.808 -14.945 -21.317  0.00  0.00    +0.100 C 
ATOM     14  C   UNL     1      34.089 -14.787 -22.490  0.00  0.00    +0.022 C 
ENDROOT
BRANCH   8  16
ATOM     15  N   UNL     1      34.922 -22.777 -16.681  0.00  0.00    -0.309 N 
ATOM     16  C   UNL     1      34.877 -22.327 -17.969  0.00  0.00    +0.103 C 
ATOM     17  C   UNL     1      33.575 -22.381 -18.400  0.00  0.00    +0.020 C 
ATOM     18  C   UNL     1      32.790 -22.887 -17.326  0.00  0.00    +0.016 C 
ATOM     19  C   UNL     1      33.659 -23.127 -16.260  0.00  0.00    +0.049 C 
ATOM     20  C   UNL     1      31.418 -23.164 -17.158  0.00  0.00    +0.017 C 
ATOM     21  C   UNL     1      33.224 -23.632 -15.029  0.00  0.00    +0.016 C 
ATOM     22  C   UNL     1      30.969 -23.670 -15.932  0.00  0.00    +0.065 C 
ATOM     23  C   UNL     1      31.860 -23.899 -14.886  0.00  0.00    +0.017 C 
ATOM     24  H   UNL     1      35.738 -22.841 -16.133  0.00  0.00    +0.152 HD
BRANCH  22  25
ATOM     25  N   UNL     1      29.580 -23.953 -15.754  0.00  0.00    -0.219 N 
ATOM     26  H   UNL     1      29.280 -24.626 -15.101  0.00  0.00    +0.173 HD
BRANCH  25  27
ATOM     27  S   UNL     1      28.444 -23.080 -16.711  0.00  0.00    +0.056 S 
ATOM     28  O   UNL     1      29.088 -21.876 -17.201  0.00  0.00    -0.154 OA
ATOM     29  O   UNL     1      27.744 -23.965 -17.621  0.00  0.00    -0.154 OA
ATOM     30  C   UNL     1      27.296 -22.575 -15.450  0.00  0.00    +0.200 C 
ENDBRANCH  25  27
ENDBRANCH  22  25
ENDBRANCH   8  16
BRANCH  11  31
ATOM     31  N   UNL     1      33.669 -18.346 -23.375  0.00  0.00    -0.332 N 
ATOM     32  H   UNL     1      33.103 -19.006 -22.912  0.00  0.00    +0.147 HD
BRANCH  31  33
ATOM     33  C   UNL     1      34.064 -18.614 -24.725  0.00  0.00    +0.069 C 
ATOM     34  C   UNL     1      34.819 -17.414 -25.282  0.00  0.00    +0.021 C 
ATOM     35  C   UNL     1      34.921 -19.872 -24.758  0.00  0.00    +0.021 C 
ENDBRANCH  31  33
ENDBRANCH  11  31
TORSDOF 5
ENDMDL
MODEL 5
REMARK VINA RESULT:      -8.7      3.830      9.686
REMARK  Name = 5625
REMARK  5 active torsions:
REMARK  status: ('A' for Active; 'I' for Inactive)
REMARK    1  A    between atoms: C_8  and  C_10
REMARK    2  A    between atoms: C_16  and  N_19
REMARK    3  A    between atoms: N_19  and  S_21
REMARK    4  A    between atoms: C_27  and  N_31
REMARK    5  A    between atoms: N_31  and  C_33
REMARK                            x       y       z     vdW  Elec       q    Type
REMARK                         _______ _______ _______ _____ _____    ______ ____
ROOT
ATOM      1  O   UNL     1      33.878 -15.273 -26.147  0.00  0.00    -0.269 OA
ATOM      2  N   UNL     1      34.174 -18.384 -22.263  0.00  0.00    -0.289 N 
ATOM      3  N   UNL     1      34.388 -16.275 -24.125  0.00  0.00    -0.272 N 
ATOM      4  C   UNL     1      33.579 -18.534 -23.602  0.00  0.00    +0.114 C 
ATOM      5  C   UNL     1      34.333 -17.006 -21.777  0.00  0.00    +0.114 C 
ATOM      6  C   UNL     1      34.304 -17.649 -24.614  0.00  0.00    +0.115 C 
ATOM      7  C   UNL     1      35.050 -16.154 -22.823  0.00  0.00    +0.115 C 
ATOM      8  C   UNL     1      33.921 -15.212 -24.917  0.00  0.00    +0.263 C 
ATOM      9  N   UNL     1      32.829 -20.175 -21.414  0.00  0.00    -0.228 NA
ATOM     10  C   UNL     1      33.976 -19.422 -21.344  0.00  0.00    +0.145 C 
ATOM     11  C   UNL     1      34.950 -19.684 -20.361  0.00  0.00    +0.077 C 
ATOM     12  C   UNL     1      34.744 -20.716 -19.452  0.00  0.00    +0.019 C 
ATOM     13  C   UNL     1      32.666 -21.170 -20.514  0.00  0.00    +0.100 C 
ATOM     14  C   UNL     1      33.584 -21.478 -19.523  0.00  0.00    +0.022 C 
ENDROOT
BRANCH   8  16
ATOM     15  N   UNL     1      32.615 -14.023 -23.165  0.00  0.00    -0.309 N 
ATOM     16  C   UNL     1      33.476 -14.008 -24.225  0.00  0.00    +0.103 C 
ATOM     17  C   UNL     1      33.814 -12.705 -24.489  0.00  0.00    +0.020 C 
ATOM     18  C   UNL     1      33.128 -11.886 -23.548  0.00  0.00    +0.016 C 
ATOM     19  C   UNL     1      32.384 -12.738 -22.729  0.00  0.00    +0.049 C 
ATOM     20  C   UNL     1      33.070 -10.498 -23.314  0.00  0.00    +0.017 C 
ATOM     21  C   UNL     1      31.581 -12.268 -21.684  0.00  0.00    +0.016 C 
ATOM     22  C   UNL     1      32.271 -10.014 -22.272  0.00  0.00    +0.065 C 
ATOM     23  C   UNL     1      31.539 -10.888 -21.470  0.00  0.00    +0.017 C 
ATOM     24  H   UNL     1      32.219 -14.833 -22.770  0.00  0.00    +0.152 HD
BRANCH  22  25
ATOM     25  N   UNL     1      32.208  -8.608 -22.027  0.00  0.00    -0.219 N 
ATOM     26  H   UNL     1      32.471  -8.234 -21.155  0.00  0.00    +0.173 HD
BRANCH  25  27
ATOM     27  S   UNL     1      31.663  -7.585 -23.301  0.00  0.00    +0.056 S 
ATOM     28  O   UNL     1      32.812  -7.186 -24.092  0.00  0.00    -0.154 OA
ATOM     29  O   UNL     1      30.483  -8.135 -23.939  0.00  0.00    -0.154 OA
ATOM     30  C   UNL     1      31.161  -6.158 -22.364  0.00  0.00    +0.200 C 
ENDBRANCH  25  27
ENDBRANCH  22  25
ENDBRANCH   8  16
BRANCH  11  31
ATOM     31  N   UNL     1      36.124 -18.912 -20.290  0.00  0.00    -0.332 N 
ATOM     32  H   UNL     1      36.064 -17.998 -19.926  0.00  0.00    +0.147 HD
BRANCH  31  33
ATOM     33  C   UNL     1      37.400 -19.392 -20.724  0.00  0.00    +0.069 C 
ATOM     34  C   UNL     1      37.406 -20.916 -20.700  0.00  0.00    +0.021 C 
ATOM     35  C   UNL     1      37.690 -18.858 -22.121  0.00  0.00    +0.021 C 
ENDBRANCH  31  33
ENDBRANCH  11  31
TORSDOF 5
ENDMDL
