MODEL 1
REMARK VINA RESULT:     -11.3      0.000      0.000
REMARK  Name = 46937091
REMARK  8 active torsions:
REMARK  status: ('A' for Active; 'I' for Inactive)
REMARK    1  A    between atoms: C_1  and  C_4
REMARK    2  A    between atoms: C_1  and  C_18
REMARK    3  A    between atoms: C_10  and  C_12
REMARK    4  A    between atoms: C_18  and  C_19
REMARK    5  A    between atoms: C_19  and  N_20
REMARK    6  A    between atoms: C_19  and  C_30
REMARK    7  A    between atoms: C_24  and  C_27
REMARK    8  A    between atoms: C_30  and  O_32
REMARK                            x       y       z     vdW  Elec       q    Type
REMARK                         _______ _______ _______ _____ _____    ______ ____
ROOT
ATOM      1  C   UNL     1      34.728 -24.548 -14.569  0.00  0.00    +0.031 C 
ENDROOT
BRANCH   1   4
ATOM      2  O   UNL     1      33.767 -22.932 -16.981  0.00  0.00    -0.425 OA
ATOM      3  N   UNL     1      31.631 -22.516 -17.613  0.00  0.00    -0.368 NA
ATOM      4  C   UNL     1      33.298 -24.287 -14.968  0.00  0.00    +0.014 C 
ATOM      5  C   UNL     1      32.937 -23.539 -16.082  0.00  0.00    +0.170 C 
ATOM      6  C   UNL     1      32.237 -24.798 -14.212  0.00  0.00    -0.005 C 
ATOM      7  C   UNL     1      31.630 -23.283 -16.472  0.00  0.00    +0.151 C 
ATOM      8  C   UNL     1      30.904 -24.562 -14.571  0.00  0.00    -0.019 C 
ATOM      9  C   UNL     1      30.579 -23.802 -15.705  0.00  0.00    +0.088 C 
ATOM     10  C   UNL     1      32.910 -22.344 -17.861  0.00  0.00    +0.282 C 
BRANCH  10  12
ATOM     11 CL   UNL     1      35.508 -19.354 -22.297  0.00  0.00    -0.082 Cl
ATOM     12  C   UNL     1      33.539 -21.622 -18.933  0.00  0.00    +0.066 C 
ATOM     13  C   UNL     1      32.785 -20.755 -19.724  0.00  0.00    +0.007 C 
ATOM     14  C   UNL     1      34.901 -21.787 -19.182  0.00  0.00    +0.007 C 
ATOM     15  C   UNL     1      33.395 -20.053 -20.765  0.00  0.00    +0.012 C 
ATOM     16  C   UNL     1      35.510 -21.086 -20.222  0.00  0.00    +0.012 C 
ATOM     17  C   UNL     1      34.757 -20.219 -21.013  0.00  0.00    +0.058 C 
ENDBRANCH  10  12
ENDBRANCH   1   4
BRANCH   1  18
ATOM     18  C   UNL     1      35.035 -24.274 -13.086  0.00  0.00    +0.023 C 
BRANCH  18  19
ATOM     19  C   UNL     1      36.355 -23.504 -12.819  0.00  0.00    +0.087 C 
BRANCH  19  20
ATOM     20  N   UNL     1      37.484 -23.929 -13.750  0.00  0.00    -0.246 NA
ATOM     21  N   UNL     1      38.854 -23.920 -15.497  0.00  0.00    -0.251 NA
ATOM     22  C   UNL     1      38.325 -24.989 -13.570  0.00  0.00    +0.125 C 
ATOM     23  C   UNL     1      37.839 -23.316 -14.919  0.00  0.00    +0.201 C 
ATOM     24  C   UNL     1      39.163 -24.964 -14.661  0.00  0.00    +0.124 C 
BRANCH  24  27
ATOM     25  O   UNL     1      40.675 -26.066 -16.091  0.00  0.00    -0.269 OA
ATOM     26  N   UNL     1      40.796 -26.583 -13.860  0.00  0.00    -0.324 N 
ATOM     27  C   UNL     1      40.226 -25.881 -14.932  0.00  0.00    +0.257 C 
ATOM     28  H   UNL     1      41.530 -27.220 -14.023  0.00  0.00    +0.145 HD
ATOM     29  H   UNL     1      40.464 -26.440 -12.945  0.00  0.00    +0.145 HD
ENDBRANCH  24  27
ENDBRANCH  19  20
BRANCH  19  30
ATOM     30  C   UNL     1      36.742 -23.594 -11.318  0.00  0.00    +0.125 C 
ATOM     31  C   UNL     1      35.653 -24.196 -10.436  0.00  0.00    +0.033 C 
BRANCH  30  32
ATOM     32  O   UNL     1      37.104 -22.312 -10.810  0.00  0.00    -0.383 OA
ATOM     33  H   UNL     1      37.885 -22.399 -10.241  0.00  0.00    +0.210 HD
ENDBRANCH  30  32
ENDBRANCH  19  30
ENDBRANCH  18  19
ENDBRANCH   1  18
TORSDOF 8
ENDMDL
MODEL 2
REMARK VINA RESULT:     -11.2      3.533      7.457
REMARK  Name = 46937091
REMARK  8 active torsions:
REMARK  status: ('A' for Active; 'I' for Inactive)
REMARK    1  A    between atoms: C_1  and  C_4
REMARK    2  A    between atoms: C_1  and  C_18
REMARK    3  A    between atoms: C_10  and  C_12
REMARK    4  A    between atoms: C_18  and  C_19
REMARK    5  A    between atoms: C_19  and  N_20
REMARK    6  A    between atoms: C_19  and  C_30
REMARK    7  A    between atoms: C_24  and  C_27
REMARK    8  A    between atoms: C_30  and  O_32
REMARK                            x       y       z     vdW  Elec       q    Type
REMARK                         _______ _______ _______ _____ _____    ______ ____
ROOT
ATOM      1  C   UNL     1      32.988 -23.553 -17.090  0.00  0.00    +0.031 C 
ENDROOT
BRANCH   1   4
ATOM      2  O   UNL     1      34.739 -21.677 -18.753  0.00  0.00    -0.425 OA
ATOM      3  N   UNL     1      36.902 -21.109 -18.390  0.00  0.00    -0.368 NA
ATOM      4  C   UNL     1      34.427 -23.191 -16.825  0.00  0.00    +0.014 C 
ATOM      5  C   UNL     1      35.161 -22.328 -17.630  0.00  0.00    +0.170 C 
ATOM      6  C   UNL     1      35.111 -23.723 -15.726  0.00  0.00    -0.005 C 
ATOM      7  C   UNL     1      36.485 -21.977 -17.410  0.00  0.00    +0.151 C 
ATOM      8  C   UNL     1      36.448 -23.395 -15.469  0.00  0.00    -0.019 C 
ATOM      9  C   UNL     1      37.156 -22.518 -16.305  0.00  0.00    +0.088 C 
ATOM     10  C   UNL     1      35.835 -20.972 -19.146  0.00  0.00    +0.282 C 
BRANCH  10  12
ATOM     11 CL   UNL     1      35.106 -17.700 -24.059  0.00  0.00    -0.082 Cl
ATOM     12  C   UNL     1      35.658 -20.181 -20.334  0.00  0.00    +0.066 C 
ATOM     13  C   UNL     1      36.723 -19.435 -20.839  0.00  0.00    +0.007 C 
ATOM     14  C   UNL     1      34.424 -20.161 -20.981  0.00  0.00    +0.007 C 
ATOM     15  C   UNL     1      36.552 -18.668 -21.991  0.00  0.00    +0.012 C 
ATOM     16  C   UNL     1      34.253 -19.394 -22.133  0.00  0.00    +0.012 C 
ATOM     17  C   UNL     1      35.317 -18.647 -22.638  0.00  0.00    +0.058 C 
ENDBRANCH  10  12
ENDBRANCH   1   4
BRANCH   1  18
ATOM     18  C   UNL     1      31.982 -22.918 -16.114  0.00  0.00    +0.023 C 
BRANCH  18  19
ATOM     19  C   UNL     1      30.923 -23.892 -15.533  0.00  0.00    +0.087 C 
BRANCH  19  20
ATOM     20  N   UNL     1      29.529 -23.652 -16.099  0.00  0.00    -0.246 NA
ATOM     21  N   UNL     1      27.672 -23.990 -17.268  0.00  0.00    -0.251 NA
ATOM     22  C   UNL     1      28.722 -22.582 -15.836  0.00  0.00    +0.125 C 
ATOM     23  C   UNL     1      28.857 -24.471 -16.963  0.00  0.00    +0.201 C 
ATOM     24  C   UNL     1      27.582 -22.812 -16.569  0.00  0.00    +0.124 C 
BRANCH  24  27
ATOM     25  O   UNL     1      25.570 -21.938 -15.711  0.00  0.00    -0.269 OA
ATOM     26  N   UNL     1      26.267 -21.130 -17.741  0.00  0.00    -0.324 N 
ATOM     27  C   UNL     1      26.429 -21.967 -16.627  0.00  0.00    +0.257 C 
ATOM     28  H   UNL     1      25.481 -20.539 -17.803  0.00  0.00    +0.145 HD
ATOM     29  H   UNL     1      26.938 -21.132 -18.460  0.00  0.00    +0.145 HD
ENDBRANCH  24  27
ENDBRANCH  19  20
BRANCH  19  30
ATOM     30  C   UNL     1      30.959 -23.870 -13.981  0.00  0.00    +0.125 C 
ATOM     31  C   UNL     1      32.224 -23.244 -13.402  0.00  0.00    +0.033 C 
BRANCH  30  32
ATOM     32  O   UNL     1      30.800 -25.184 -13.452  0.00  0.00    -0.383 OA
ATOM     33  H   UNL     1      31.569 -25.724 -13.693  0.00  0.00    +0.210 HD
ENDBRANCH  30  32
ENDBRANCH  19  30
ENDBRANCH  18  19
ENDBRANCH   1  18
TORSDOF 8
ENDMDL
MODEL 3
REMARK VINA RESULT:     -11.0     11.083     15.134
REMARK  Name = 46937091
REMARK  8 active torsions:
REMARK  status: ('A' for Active; 'I' for Inactive)
REMARK    1  A    between atoms: C_1  and  C_4
REMARK    2  A    between atoms: C_1  and  C_18
REMARK    3  A    between atoms: C_10  and  C_12
REMARK    4  A    between atoms: C_18  and  C_19
REMARK    5  A    between atoms: C_19  and  N_20
REMARK    6  A    between atoms: C_19  and  C_30
REMARK    7  A    between atoms: C_24  and  C_27
REMARK    8  A    between atoms: C_30  and  O_32
REMARK                            x       y       z     vdW  Elec       q    Type
REMARK                         _______ _______ _______ _____ _____    ______ ____
ROOT
ATOM      1  C   UNL     1      31.751 -12.430 -22.502  0.00  0.00    +0.031 C 
ENDROOT
BRANCH   1   4
ATOM      2  O   UNL     1      32.307  -9.437 -22.789  0.00  0.00    -0.425 OA
ATOM      3  N   UNL     1      32.348  -7.868 -21.154  0.00  0.00    -0.368 NA
ATOM      4  C   UNL     1      31.771 -11.406 -21.396  0.00  0.00    +0.014 C 
ATOM      5  C   UNL     1      32.034 -10.057 -21.604  0.00  0.00    +0.170 C 
ATOM      6  C   UNL     1      31.521 -11.776 -20.070  0.00  0.00    -0.005 C 
ATOM      7  C   UNL     1      32.059  -9.094 -20.606  0.00  0.00    +0.151 C 
ATOM      8  C   UNL     1      31.538 -10.836 -19.033  0.00  0.00    -0.019 C 
ATOM      9  C   UNL     1      31.806  -9.481 -19.283  0.00  0.00    +0.088 C 
ATOM     10  C   UNL     1      32.482  -8.133 -22.435  0.00  0.00    +0.282 C 
BRANCH  10  12
ATOM     11 CL   UNL     1      33.747  -4.447 -26.927  0.00  0.00    -0.082 Cl
ATOM     12  C   UNL     1      32.788  -7.243 -23.520  0.00  0.00    +0.066 C 
ATOM     13  C   UNL     1      31.808  -6.381 -24.012  0.00  0.00    +0.007 C 
ATOM     14  C   UNL     1      34.065  -7.239 -24.081  0.00  0.00    +0.007 C 
ATOM     15  C   UNL     1      32.105  -5.516 -25.066  0.00  0.00    +0.012 C 
ATOM     16  C   UNL     1      34.362  -6.375 -25.135  0.00  0.00    +0.012 C 
ATOM     17  C   UNL     1      33.381  -5.513 -25.627  0.00  0.00    +0.058 C 
ENDBRANCH  10  12
ENDBRANCH   1   4
BRANCH   1  18
ATOM     18  C   UNL     1      33.143 -12.856 -22.999  0.00  0.00    +0.023 C 
BRANCH  18  19
ATOM     19  C   UNL     1      33.212 -13.266 -24.494  0.00  0.00    +0.087 C 
BRANCH  19  20
ATOM     20  N   UNL     1      33.621 -14.721 -24.688  0.00  0.00    -0.246 NA
ATOM     21  N   UNL     1      33.870 -16.699 -25.665  0.00  0.00    -0.251 NA
ATOM     22  C   UNL     1      34.277 -15.504 -23.783  0.00  0.00    +0.125 C 
ATOM     23  C   UNL     1      33.397 -15.480 -25.803  0.00  0.00    +0.201 C 
ATOM     24  C   UNL     1      34.420 -16.721 -24.408  0.00  0.00    +0.124 C 
BRANCH  24  27
ATOM     25  O   UNL     1      34.710 -19.048 -24.190  0.00  0.00    -0.269 OA
ATOM     26  N   UNL     1      36.091 -17.713 -22.939  0.00  0.00    -0.324 N 
ATOM     27  C   UNL     1      35.048 -17.884 -23.862  0.00  0.00    +0.257 C 
ATOM     28  H   UNL     1      36.539 -18.499 -22.550  0.00  0.00    +0.145 HD
ATOM     29  H   UNL     1      36.376 -16.807 -22.681  0.00  0.00    +0.145 HD
ENDBRANCH  24  27
ENDBRANCH  19  20
BRANCH  19  30
ATOM     30  C   UNL     1      34.105 -12.275 -25.288  0.00  0.00    +0.125 C 
ATOM     31  C   UNL     1      34.219 -10.897 -24.646  0.00  0.00    +0.033 C 
BRANCH  30  32
ATOM     32  O   UNL     1      33.636 -12.132 -26.627  0.00  0.00    -0.383 OA
ATOM     33  H   UNL     1      33.063 -12.882 -26.851  0.00  0.00    +0.210 HD
ENDBRANCH  30  32
ENDBRANCH  19  30
ENDBRANCH  18  19
ENDBRANCH   1  18
TORSDOF 8
ENDMDL
MODEL 4
REMARK VINA RESULT:     -10.8     10.972     14.891
REMARK  Name = 46937091
REMARK  8 active torsions:
REMARK  status: ('A' for Active; 'I' for Inactive)
REMARK    1  A    between atoms: C_1  and  C_4
REMARK    2  A    between atoms: C_1  and  C_18
REMARK    3  A    between atoms: C_10  and  C_12
REMARK    4  A    between atoms: C_18  and  C_19
REMARK    5  A    between atoms: C_19  and  N_20
REMARK    6  A    between atoms: C_19  and  C_30
REMARK    7  A    between atoms: C_24  and  C_27
REMARK    8  A    between atoms: C_30  and  O_32
REMARK                            x       y       z     vdW  Elec       q    Type
REMARK                         _______ _______ _______ _____ _____    ______ ____
ROOT
ATOM      1  C   UNL     1      31.569 -11.952 -22.484  0.00  0.00    +0.031 C 
ENDROOT
BRANCH   1   4
ATOM      2  O   UNL     1      32.380  -9.038 -22.933  0.00  0.00    -0.425 OA
ATOM      3  N   UNL     1      32.592  -7.400 -21.382  0.00  0.00    -0.368 NA
ATOM      4  C   UNL     1      31.702 -10.881 -21.433  0.00  0.00    +0.014 C 
ATOM      5  C   UNL     1      32.078  -9.572 -21.714  0.00  0.00    +0.170 C 
ATOM      6  C   UNL     1      31.449 -11.161 -20.086  0.00  0.00    -0.005 C 
ATOM      7  C   UNL     1      32.208  -8.567 -20.767  0.00  0.00    +0.151 C 
ATOM      8  C   UNL     1      31.570 -10.175 -19.099  0.00  0.00    -0.019 C 
ATOM      9  C   UNL     1      31.950  -8.864 -19.421  0.00  0.00    +0.088 C 
ATOM     10  C   UNL     1      32.676  -7.739 -22.649  0.00  0.00    +0.282 C 
BRANCH  10  12
ATOM     11 CL   UNL     1      34.170  -4.408 -27.344  0.00  0.00    -0.082 Cl
ATOM     12  C   UNL     1      33.036  -6.934 -23.784  0.00  0.00    +0.066 C 
ATOM     13  C   UNL     1      34.301  -7.065 -24.358  0.00  0.00    +0.007 C 
ATOM     14  C   UNL     1      32.123  -6.022 -24.311  0.00  0.00    +0.007 C 
ATOM     15  C   UNL     1      34.651  -6.284 -25.459  0.00  0.00    +0.012 C 
ATOM     16  C   UNL     1      32.473  -5.241 -25.412  0.00  0.00    +0.012 C 
ATOM     17  C   UNL     1      33.738  -5.372 -25.986  0.00  0.00    +0.058 C 
ENDBRANCH  10  12
ENDBRANCH   1   4
BRANCH   1  18
ATOM     18  C   UNL     1      32.906 -12.434 -23.074  0.00  0.00    +0.023 C 
BRANCH  18  19
ATOM     19  C   UNL     1      32.913 -13.901 -23.580  0.00  0.00    +0.087 C 
BRANCH  19  20
ATOM     20  N   UNL     1      33.735 -14.827 -22.693  0.00  0.00    -0.246 NA
ATOM     21  N   UNL     1      34.777 -15.595 -20.889  0.00  0.00    -0.251 NA
ATOM     22  C   UNL     1      34.287 -16.020 -23.061  0.00  0.00    +0.125 C 
ATOM     23  C   UNL     1      34.055 -14.612 -21.382  0.00  0.00    +0.201 C 
ATOM     24  C   UNL     1      34.925 -16.477 -21.931  0.00  0.00    +0.124 C 
BRANCH  24  27
ATOM     25  O   UNL     1      35.775 -18.306 -20.716  0.00  0.00    -0.269 OA
ATOM     26  N   UNL     1      36.250 -18.244 -22.958  0.00  0.00    -0.324 N 
ATOM     27  C   UNL     1      35.658 -17.698 -21.809  0.00  0.00    +0.257 C 
ATOM     28  H   UNL     1      36.759 -19.085 -22.898  0.00  0.00    +0.145 HD
ATOM     29  H   UNL     1      36.156 -17.786 -23.824  0.00  0.00    +0.145 HD
ENDBRANCH  24  27
ENDBRANCH  19  20
BRANCH  19  30
ATOM     30  C   UNL     1      33.337 -13.958 -25.073  0.00  0.00    +0.125 C 
ATOM     31  C   UNL     1      33.705 -12.601 -25.662  0.00  0.00    +0.033 C 
BRANCH  30  32
ATOM     32  O   UNL     1      32.313 -14.553 -25.868  0.00  0.00    -0.383 OA
ATOM     33  H   UNL     1      32.682 -15.303 -26.361  0.00  0.00    +0.210 HD
ENDBRANCH  30  32
ENDBRANCH  19  30
ENDBRANCH  18  19
ENDBRANCH   1  18
TORSDOF 8
ENDMDL
MODEL 5
REMARK VINA RESULT:     -10.5     11.275     15.303
REMARK  Name = 46937091
REMARK  8 active torsions:
REMARK  status: ('A' for Active; 'I' for Inactive)
REMARK    1  A    between atoms: C_1  and  C_4
REMARK    2  A    between atoms: C_1  and  C_18
REMARK    3  A    between atoms: C_10  and  C_12
REMARK    4  A    between atoms: C_18  and  C_19
REMARK    5  A    between atoms: C_19  and  N_20
REMARK    6  A    between atoms: C_19  and  C_30
REMARK    7  A    between atoms: C_24  and  C_27
REMARK    8  A    between atoms: C_30  and  O_32
REMARK                            x       y       z     vdW  Elec       q    Type
REMARK                         _______ _______ _______ _____ _____    ______ ____
ROOT
ATOM      1  C   UNL     1      31.708 -12.247 -22.193  0.00  0.00    +0.031 C 
ENDROOT
BRANCH   1   4
ATOM      2  O   UNL     1      32.402  -9.306 -22.665  0.00  0.00    -0.425 OA
ATOM      3  N   UNL     1      32.475  -7.633 -21.138  0.00  0.00    -0.368 NA
ATOM      4  C   UNL     1      31.747 -11.152 -21.157  0.00  0.00    +0.014 C 
ATOM      5  C   UNL     1      32.074  -9.832 -21.448  0.00  0.00    +0.170 C 
ATOM      6  C   UNL     1      31.451 -11.420 -19.817  0.00  0.00    -0.005 C 
ATOM      7  C   UNL     1      32.119  -8.806 -20.516  0.00  0.00    +0.151 C 
ATOM      8  C   UNL     1      31.485 -10.413 -18.845  0.00  0.00    -0.019 C 
ATOM      9  C   UNL     1      31.819  -9.092 -19.177  0.00  0.00    +0.088 C 
ATOM     10  C   UNL     1      32.626  -7.991 -22.394  0.00  0.00    +0.282 C 
BRANCH  10  12
ATOM     11 CL   UNL     1      34.157  -4.674 -27.087  0.00  0.00    -0.082 Cl
ATOM     12  C   UNL     1      32.997  -7.189 -23.528  0.00  0.00    +0.066 C 
ATOM     13  C   UNL     1      32.068  -6.321 -24.101  0.00  0.00    +0.007 C 
ATOM     14  C   UNL     1      34.284  -7.280 -24.056  0.00  0.00    +0.007 C 
ATOM     15  C   UNL     1      32.427  -5.543 -25.202  0.00  0.00    +0.012 C 
ATOM     16  C   UNL     1      34.643  -6.502 -25.157  0.00  0.00    +0.012 C 
ATOM     17  C   UNL     1      33.715  -5.633 -25.729  0.00  0.00    +0.058 C 
ENDBRANCH  10  12
ENDBRANCH   1   4
BRANCH   1  18
ATOM     18  C   UNL     1      32.188 -13.618 -21.687  0.00  0.00    +0.023 C 
BRANCH  18  19
ATOM     19  C   UNL     1      33.560 -14.081 -22.245  0.00  0.00    +0.087 C 
BRANCH  19  20
ATOM     20  N   UNL     1      33.531 -14.335 -23.746  0.00  0.00    -0.246 NA
ATOM     21  N   UNL     1      33.605 -15.440 -25.671  0.00  0.00    -0.251 NA
ATOM     22  C   UNL     1      33.353 -13.397 -24.722  0.00  0.00    +0.125 C 
ATOM     23  C   UNL     1      33.677 -15.547 -24.363  0.00  0.00    +0.201 C 
ATOM     24  C   UNL     1      33.402 -14.102 -25.902  0.00  0.00    +0.124 C 
BRANCH  24  27
ATOM     25  O   UNL     1      34.226 -13.510 -28.028  0.00  0.00    -0.269 OA
ATOM     26  N   UNL     1      32.011 -13.081 -27.621  0.00  0.00    -0.324 N 
ATOM     27  C   UNL     1      33.266 -13.559 -27.218  0.00  0.00    +0.257 C 
ATOM     28  H   UNL     1      31.894 -12.702 -28.523  0.00  0.00    +0.145 HD
ATOM     29  H   UNL     1      31.246 -13.124 -27.003  0.00  0.00    +0.145 HD
ENDBRANCH  24  27
ENDBRANCH  19  20
BRANCH  19  30
ATOM     30  C   UNL     1      34.093 -15.295 -21.436  0.00  0.00    +0.125 C 
ATOM     31  C   UNL     1      32.995 -16.161 -20.829  0.00  0.00    +0.033 C 
BRANCH  30  32
ATOM     32  O   UNL     1      34.979 -14.867 -20.404  0.00  0.00    -0.383 OA
ATOM     33  H   UNL     1      35.526 -15.614 -20.117  0.00  0.00    +0.210 HD
ENDBRANCH  30  32
ENDBRANCH  19  30
ENDBRANCH  18  19
ENDBRANCH   1  18
TORSDOF 8
ENDMDL
MODEL 6
REMARK VINA RESULT:     -10.2      4.008      8.074
REMARK  Name = 46937091
REMARK  8 active torsions:
REMARK  status: ('A' for Active; 'I' for Inactive)
REMARK    1  A    between atoms: C_1  and  C_4
REMARK    2  A    between atoms: C_1  and  C_18
REMARK    3  A    between atoms: C_10  and  C_12
REMARK    4  A    between atoms: C_18  and  C_19
REMARK    5  A    between atoms: C_19  and  N_20
REMARK    6  A    between atoms: C_19  and  C_30
REMARK    7  A    between atoms: C_24  and  C_27
REMARK    8  A    between atoms: C_30  and  O_32
REMARK                            x       y       z     vdW  Elec       q    Type
REMARK                         _______ _______ _______ _____ _____    ______ ____
ROOT
ATOM      1  C   UNL     1      33.531 -22.790 -19.080  0.00  0.00    +0.031 C 
ENDROOT
BRANCH   1   4
ATOM      2  O   UNL     1      35.002 -23.848 -16.616  0.00  0.00    -0.425 OA
ATOM      3  N   UNL     1      34.197 -24.080 -14.510  0.00  0.00    -0.368 NA
ATOM      4  C   UNL     1      32.972 -22.933 -17.687  0.00  0.00    +0.014 C 
ATOM      5  C   UNL     1      33.704 -23.425 -16.613  0.00  0.00    +0.170 C 
ATOM      6  C   UNL     1      31.651 -22.568 -17.403  0.00  0.00    -0.005 C 
ATOM      7  C   UNL     1      33.215 -23.567 -15.323  0.00  0.00    +0.151 C 
ATOM      8  C   UNL     1      31.119 -22.696 -16.115  0.00  0.00    -0.019 C 
ATOM      9  C   UNL     1      31.890 -23.197 -15.055  0.00  0.00    +0.088 C 
ATOM     10  C   UNL     1      35.219 -24.223 -15.325  0.00  0.00    +0.282 C 
BRANCH  10  12
ATOM     11 CL   UNL     1      40.682 -26.276 -14.181  0.00  0.00    -0.082 Cl
ATOM     12  C   UNL     1      36.539 -24.719 -15.048  0.00  0.00    +0.066 C 
ATOM     13  C   UNL     1      37.643 -23.877 -15.183  0.00  0.00    +0.007 C 
ATOM     14  C   UNL     1      36.717 -26.042 -14.645  0.00  0.00    +0.007 C 
ATOM     15  C   UNL     1      38.924 -24.359 -14.915  0.00  0.00    +0.012 C 
ATOM     16  C   UNL     1      37.998 -26.524 -14.376  0.00  0.00    +0.012 C 
ATOM     17  C   UNL     1      39.102 -25.682 -14.511  0.00  0.00    +0.058 C 
ENDBRANCH  10  12
ENDBRANCH   1   4
BRANCH   1  18
ATOM     18  C   UNL     1      33.549 -21.347 -19.613  0.00  0.00    +0.023 C 
BRANCH  18  19
ATOM     19  C   UNL     1      34.921 -20.627 -19.522  0.00  0.00    +0.087 C 
BRANCH  19  20
ATOM     20  N   UNL     1      35.197 -19.732 -20.723  0.00  0.00    -0.246 NA
ATOM     21  N   UNL     1      36.152 -18.165 -21.973  0.00  0.00    -0.251 NA
ATOM     22  C   UNL     1      34.526 -19.743 -21.912  0.00  0.00    +0.125 C 
ATOM     23  C   UNL     1      36.164 -18.769 -20.805  0.00  0.00    +0.201 C 
ATOM     24  C   UNL     1      35.133 -18.767 -22.668  0.00  0.00    +0.124 C 
BRANCH  24  27
ATOM     25  O   UNL     1      34.136 -19.153 -24.767  0.00  0.00    -0.269 OA
ATOM     26  N   UNL     1      35.166 -17.126 -24.468  0.00  0.00    -0.324 N 
ATOM     27  C   UNL     1      34.784 -18.394 -24.004  0.00  0.00    +0.257 C 
ATOM     28  H   UNL     1      34.937 -16.847 -25.384  0.00  0.00    +0.145 HD
ATOM     29  H   UNL     1      35.663 -16.515 -23.878  0.00  0.00    +0.145 HD
ENDBRANCH  24  27
ENDBRANCH  19  20
BRANCH  19  30
ATOM     30  C   UNL     1      36.056 -21.654 -19.258  0.00  0.00    +0.125 C 
ATOM     31  C   UNL     1      36.790 -21.435 -17.940  0.00  0.00    +0.033 C 
BRANCH  30  32
ATOM     32  O   UNL     1      36.999 -21.651 -20.328  0.00  0.00    -0.383 OA
ATOM     33  H   UNL     1      36.940 -20.811 -20.809  0.00  0.00    +0.210 HD
ENDBRANCH  30  32
ENDBRANCH  19  30
ENDBRANCH  18  19
ENDBRANCH   1  18
TORSDOF 8
ENDMDL
MODEL 7
REMARK VINA RESULT:     -10.2     10.762     15.863
REMARK  Name = 46937091
REMARK  8 active torsions:
REMARK  status: ('A' for Active; 'I' for Inactive)
REMARK    1  A    between atoms: C_1  and  C_4
REMARK    2  A    between atoms: C_1  and  C_18
REMARK    3  A    between atoms: C_10  and  C_12
REMARK    4  A    between atoms: C_18  and  C_19
REMARK    5  A    between atoms: C_19  and  N_20
REMARK    6  A    between atoms: C_19  and  C_30
REMARK    7  A    between atoms: C_24  and  C_27
REMARK    8  A    between atoms: C_30  and  O_32
REMARK                            x       y       z     vdW  Elec       q    Type
REMARK                         _______ _______ _______ _____ _____    ______ ____
ROOT
ATOM      1  C   UNL     1      33.792 -11.880 -23.652  0.00  0.00    +0.031 C 
ENDROOT
BRANCH   1   4
ATOM      2  O   UNL     1      34.186 -14.911 -23.738  0.00  0.00    -0.425 OA
ATOM      3  N   UNL     1      33.918 -16.298 -25.510  0.00  0.00    -0.368 NA
ATOM      4  C   UNL     1      33.606 -12.780 -24.846  0.00  0.00    +0.014 C 
ATOM      5  C   UNL     1      33.805 -14.155 -24.809  0.00  0.00    +0.170 C 
ATOM      6  C   UNL     1      33.213 -12.259 -26.084  0.00  0.00    -0.005 C 
ATOM      7  C   UNL     1      33.641 -15.007 -25.892  0.00  0.00    +0.151 C 
ATOM      8  C   UNL     1      33.037 -13.084 -27.202  0.00  0.00    -0.019 C 
ATOM      9  C   UNL     1      33.247 -14.469 -27.125  0.00  0.00    +0.088 C 
ATOM     10  C   UNL     1      34.230 -16.177 -24.239  0.00  0.00    +0.282 C 
BRANCH  10  12
ATOM     11 CL   UNL     1      35.820 -20.377 -20.340  0.00  0.00    -0.082 Cl
ATOM     12  C   UNL     1      34.614 -17.192 -23.297  0.00  0.00    +0.066 C 
ATOM     13  C   UNL     1      34.957 -16.839 -21.992  0.00  0.00    +0.007 C 
ATOM     14  C   UNL     1      34.645 -18.531 -23.688  0.00  0.00    +0.007 C 
ATOM     15  C   UNL     1      35.330 -17.823 -21.078  0.00  0.00    +0.012 C 
ATOM     16  C   UNL     1      35.018 -19.515 -22.773  0.00  0.00    +0.012 C 
ATOM     17  C   UNL     1      35.360 -19.162 -21.468  0.00  0.00    +0.058 C 
ENDBRANCH  10  12
ENDBRANCH   1   4
BRANCH   1  18
ATOM     18  C   UNL     1      33.556 -10.387 -23.938  0.00  0.00    +0.023 C 
BRANCH  18  19
ATOM     19  C   UNL     1      32.284  -9.784 -23.284  0.00  0.00    +0.087 C 
BRANCH  19  20
ATOM     20  N   UNL     1      32.263  -8.262 -23.330  0.00  0.00    -0.246 NA
ATOM     21  N   UNL     1      33.010  -6.173 -23.445  0.00  0.00    -0.251 NA
ATOM     22  C   UNL     1      31.155  -7.466 -23.281  0.00  0.00    +0.125 C 
ATOM     23  C   UNL     1      33.353  -7.442 -23.429  0.00  0.00    +0.201 C 
ATOM     24  C   UNL     1      31.640  -6.181 -23.354  0.00  0.00    +0.124 C 
BRANCH  24  27
ATOM     25  O   UNL     1      30.524  -4.385 -24.393  0.00  0.00    -0.269 OA
ATOM     26  N   UNL     1      30.447  -4.465 -22.103  0.00  0.00    -0.324 N 
ATOM     27  C   UNL     1      30.862  -4.981 -23.339  0.00  0.00    +0.257 C 
ATOM     28  H   UNL     1      29.911  -3.640 -22.068  0.00  0.00    +0.145 HD
ATOM     29  H   UNL     1      30.693  -4.927 -21.269  0.00  0.00    +0.145 HD
ENDBRANCH  24  27
ENDBRANCH  19  20
BRANCH  19  30
ATOM     30  C   UNL     1      32.091 -10.349 -21.850  0.00  0.00    +0.125 C 
ATOM     31  C   UNL     1      30.776 -11.096 -21.654  0.00  0.00    +0.033 C 
BRANCH  30  32
ATOM     32  O   UNL     1      32.190  -9.309 -20.879  0.00  0.00    -0.383 OA
ATOM     33  H   UNL     1      33.085  -8.934 -20.899  0.00  0.00    +0.210 HD
ENDBRANCH  30  32
ENDBRANCH  19  30
ENDBRANCH  18  19
ENDBRANCH   1  18
TORSDOF 8
ENDMDL
MODEL 8
REMARK VINA RESULT:     -10.2      7.370     12.533
REMARK  Name = 46937091
REMARK  8 active torsions:
REMARK  status: ('A' for Active; 'I' for Inactive)
REMARK    1  A    between atoms: C_1  and  C_4
REMARK    2  A    between atoms: C_1  and  C_18
REMARK    3  A    between atoms: C_10  and  C_12
REMARK    4  A    between atoms: C_18  and  C_19
REMARK    5  A    between atoms: C_19  and  N_20
REMARK    6  A    between atoms: C_19  and  C_30
REMARK    7  A    between atoms: C_24  and  C_27
REMARK    8  A    between atoms: C_30  and  O_32
REMARK                            x       y       z     vdW  Elec       q    Type
REMARK                         _______ _______ _______ _____ _____    ______ ____
ROOT
ATOM      1  C   UNL     1      33.068 -15.582 -21.289  0.00  0.00    +0.031 C 
ENDROOT
BRANCH   1   4
ATOM      2  O   UNL     1      33.994 -18.468 -20.886  0.00  0.00    -0.425 OA
ATOM      3  N   UNL     1      35.148 -19.773 -22.335  0.00  0.00    -0.368 NA
ATOM      4  C   UNL     1      33.835 -16.429 -22.272  0.00  0.00    +0.014 C 
ATOM      5  C   UNL     1      34.224 -17.739 -22.017  0.00  0.00    +0.170 C 
ATOM      6  C   UNL     1      34.203 -15.922 -23.523  0.00  0.00    -0.005 C 
ATOM      7  C   UNL     1      34.929 -18.541 -22.902  0.00  0.00    +0.151 C 
ATOM      8  C   UNL     1      34.916 -16.698 -24.445  0.00  0.00    -0.019 C 
ATOM      9  C   UNL     1      35.290 -18.017 -24.151  0.00  0.00    +0.088 C 
ATOM     10  C   UNL     1      34.577 -19.669 -21.156  0.00  0.00    +0.282 C 
BRANCH  10  12
ATOM     11 CL   UNL     1      34.175 -23.705 -16.806  0.00  0.00    -0.082 Cl
ATOM     12  C   UNL     1      34.479 -20.644 -20.104  0.00  0.00    +0.066 C 
ATOM     13  C   UNL     1      35.636 -21.139 -19.503  0.00  0.00    +0.007 C 
ATOM     14  C   UNL     1      33.228 -21.095 -19.685  0.00  0.00    +0.007 C 
ATOM     15  C   UNL     1      35.542 -22.086 -18.483  0.00  0.00    +0.012 C 
ATOM     16  C   UNL     1      33.134 -22.042 -18.665  0.00  0.00    +0.012 C 
ATOM     17  C   UNL     1      34.291 -22.537 -18.064  0.00  0.00    +0.058 C 
ENDBRANCH  10  12
ENDBRANCH   1   4
BRANCH   1  18
ATOM     18  C   UNL     1      33.355 -14.074 -21.390  0.00  0.00    +0.023 C 
BRANCH  18  19
ATOM     19  C   UNL     1      32.325 -13.262 -22.220  0.00  0.00    +0.087 C 
BRANCH  19  20
ATOM     20  N   UNL     1      32.824 -12.937 -23.622  0.00  0.00    -0.246 NA
ATOM     21  N   UNL     1      33.953 -11.928 -25.247  0.00  0.00    -0.251 NA
ATOM     22  C   UNL     1      32.456 -13.563 -24.778  0.00  0.00    +0.125 C 
ATOM     23  C   UNL     1      33.725 -11.962 -23.952  0.00  0.00    +0.201 C 
ATOM     24  C   UNL     1      33.165 -12.924 -25.768  0.00  0.00    +0.124 C 
BRANCH  24  27
ATOM     25  O   UNL     1      34.157 -13.462 -27.835  0.00  0.00    -0.269 OA
ATOM     26  N   UNL     1      31.873 -13.259 -27.805  0.00  0.00    -0.324 N 
ATOM     27  C   UNL     1      33.121 -13.220 -27.166  0.00  0.00    +0.257 C 
ATOM     28  H   UNL     1      31.818 -13.461 -28.767  0.00  0.00    +0.145 HD
ATOM     29  H   UNL     1      31.052 -13.084 -27.292  0.00  0.00    +0.145 HD
ENDBRANCH  24  27
ENDBRANCH  19  20
BRANCH  19  30
ATOM     30  C   UNL     1      31.865 -12.004 -21.435  0.00  0.00    +0.125 C 
ATOM     31  C   UNL     1      31.871 -12.187 -19.921  0.00  0.00    +0.033 C 
BRANCH  30  32
ATOM     32  O   UNL     1      30.566 -11.592 -21.854  0.00  0.00    -0.383 OA
ATOM     33  H   UNL     1      29.955 -11.639 -21.102  0.00  0.00    +0.210 HD
ENDBRANCH  30  32
ENDBRANCH  19  30
ENDBRANCH  18  19
ENDBRANCH   1  18
TORSDOF 8
ENDMDL
MODEL 9
REMARK VINA RESULT:     -10.2      1.513      2.088
REMARK  Name = 46937091
REMARK  8 active torsions:
REMARK  status: ('A' for Active; 'I' for Inactive)
REMARK    1  A    between atoms: C_1  and  C_4
REMARK    2  A    between atoms: C_1  and  C_18
REMARK    3  A    between atoms: C_10  and  C_12
REMARK    4  A    between atoms: C_18  and  C_19
REMARK    5  A    between atoms: C_19  and  N_20
REMARK    6  A    between atoms: C_19  and  C_30
REMARK    7  A    between atoms: C_24  and  C_27
REMARK    8  A    between atoms: C_30  and  O_32
REMARK                            x       y       z     vdW  Elec       q    Type
REMARK                         _______ _______ _______ _____ _____    ______ ____
ROOT
ATOM      1  C   UNL     1      33.566 -24.164 -13.622  0.00  0.00    +0.031 C 
ENDROOT
BRANCH   1   4
ATOM      2  O   UNL     1      33.076 -22.969 -16.394  0.00  0.00    -0.425 OA
ATOM      3  N   UNL     1      31.127 -22.886 -17.547  0.00  0.00    -0.368 NA
ATOM      4  C   UNL     1      32.257 -24.123 -14.368  0.00  0.00    +0.014 C 
ATOM      5  C   UNL     1      32.111 -23.560 -15.631  0.00  0.00    +0.170 C 
ATOM      6  C   UNL     1      31.095 -24.664 -13.809  0.00  0.00    -0.005 C 
ATOM      7  C   UNL     1      30.919 -23.508 -16.339  0.00  0.00    +0.151 C 
ATOM      8  C   UNL     1      29.872 -24.632 -14.490  0.00  0.00    -0.019 C 
ATOM      9  C   UNL     1      29.764 -24.055 -15.764  0.00  0.00    +0.088 C 
ATOM     10  C   UNL     1      32.408 -22.594 -17.520  0.00  0.00    +0.282 C 
BRANCH  10  12
ATOM     11 CL   UNL     1      35.729 -19.860 -21.627  0.00  0.00    -0.082 Cl
ATOM     12  C   UNL     1      33.210 -21.933 -18.513  0.00  0.00    +0.066 C 
ATOM     13  C   UNL     1      34.563 -22.249 -18.639  0.00  0.00    +0.007 C 
ATOM     14  C   UNL     1      32.637 -20.977 -19.350  0.00  0.00    +0.007 C 
ATOM     15  C   UNL     1      35.342 -21.608 -19.602  0.00  0.00    +0.012 C 
ATOM     16  C   UNL     1      33.416 -20.335 -20.313  0.00  0.00    +0.012 C 
ATOM     17  C   UNL     1      34.768 -20.651 -20.439  0.00  0.00    +0.058 C 
ENDBRANCH  10  12
ENDBRANCH   1   4
BRANCH   1  18
ATOM     18  C   UNL     1      34.584 -25.175 -14.179  0.00  0.00    +0.023 C 
BRANCH  18  19
ATOM     19  C   UNL     1      35.751 -24.554 -14.992  0.00  0.00    +0.087 C 
BRANCH  19  20
ATOM     20  N   UNL     1      37.056 -25.324 -14.832  0.00  0.00    -0.246 NA
ATOM     21  N   UNL     1      38.446 -27.046 -14.654  0.00  0.00    -0.251 NA
ATOM     22  C   UNL     1      38.302 -24.784 -14.690  0.00  0.00    +0.125 C 
ATOM     23  C   UNL     1      37.191 -26.684 -14.805  0.00  0.00    +0.201 C 
ATOM     24  C   UNL     1      39.144 -25.866 -14.582  0.00  0.00    +0.124 C 
BRANCH  24  27
ATOM     25  O   UNL     1      41.232 -24.776 -14.625  0.00  0.00    -0.269 OA
ATOM     26  N   UNL     1      41.228 -26.976 -13.981  0.00  0.00    -0.324 N 
ATOM     27  C   UNL     1      40.564 -25.819 -14.414  0.00  0.00    +0.257 C 
ATOM     28  H   UNL     1      42.205 -26.968 -13.859  0.00  0.00    +0.145 HD
ATOM     29  H   UNL     1      40.717 -27.798 -13.800  0.00  0.00    +0.145 HD
ENDBRANCH  24  27
ENDBRANCH  19  20
BRANCH  19  30
ATOM     30  C   UNL     1      35.897 -23.043 -14.666  0.00  0.00    +0.125 C 
ATOM     31  C   UNL     1      36.576 -22.237 -15.768  0.00  0.00    +0.033 C 
BRANCH  30  32
ATOM     32  O   UNL     1      36.604 -22.854 -13.442  0.00  0.00    -0.383 OA
ATOM     33  H   UNL     1      36.765 -21.908 -13.305  0.00  0.00    +0.210 HD
ENDBRANCH  30  32
ENDBRANCH  19  30
ENDBRANCH  18  19
ENDBRANCH   1  18
TORSDOF 8
ENDMDL
