MODEL 1
REMARK VINA RESULT:      -7.6      0.000      0.000
REMARK  Name = 708857
REMARK  2 active torsions:
REMARK  status: ('A' for Active; 'I' for Inactive)
REMARK    1  A    between atoms: C_6  and  C_8
REMARK    2  A    between atoms: C_9  and  C_11
REMARK                            x       y       z     vdW  Elec       q    Type
REMARK                         _______ _______ _______ _____ _____    ______ ____
ROOT
ATOM      1  N   UNL     1      34.538 -15.801 -22.060  0.00  0.00    -0.292 N 
ATOM      2  N   UNL     1      34.901 -17.530 -23.687  0.00  0.00    -0.256 NA
ATOM      3  C   UNL     1      34.293 -14.768 -23.063  0.00  0.00    +0.094 C 
ATOM      4  C   UNL     1      33.791 -15.419 -24.342  0.00  0.00    +0.048 C 
ATOM      5  C   UNL     1      34.744 -16.530 -24.748  0.00  0.00    +0.129 C 
ATOM      6  C   UNL     1      34.807 -17.117 -22.454  0.00  0.00    +0.127 C 
ATOM      7  C   UNL     1      34.572 -15.354 -20.674  0.00  0.00    +0.114 C 
ENDROOT
BRANCH   6   8
ATOM      8  C   UNL     1      35.006 -18.198 -21.447  0.00  0.00    +0.034 C 
ATOM      9  C   UNL     1      34.097 -19.163 -21.404  0.00  0.00    +0.009 C 
BRANCH   9  11
ATOM     10  S   UNL     1      35.718 -20.874 -20.084  0.00  0.00    -0.086 S 
ATOM     11  C   UNL     1      34.181 -20.267 -20.493  0.00  0.00    +0.030 C 
ATOM     12  C   UNL     1      33.157 -20.928 -19.883  0.00  0.00    +0.007 C 
ATOM     13  C   UNL     1      33.641 -21.974 -19.046  0.00  0.00    +0.007 C 
ATOM     14  C   UNL     1      35.016 -22.055 -19.062  0.00  0.00    +0.035 C 
ENDBRANCH   9  11
ENDBRANCH   6   8
TORSDOF 2
ENDMDL
MODEL 2
REMARK VINA RESULT:      -7.1      1.173      2.273
REMARK  Name = 708857
REMARK  2 active torsions:
REMARK  status: ('A' for Active; 'I' for Inactive)
REMARK    1  A    between atoms: C_6  and  C_8
REMARK    2  A    between atoms: C_9  and  C_11
REMARK                            x       y       z     vdW  Elec       q    Type
REMARK                         _______ _______ _______ _____ _____    ______ ____
ROOT
ATOM      1  N   UNL     1      34.357 -16.564 -23.922  0.00  0.00    -0.292 N 
ATOM      2  N   UNL     1      34.119 -15.761 -21.671  0.00  0.00    -0.256 NA
ATOM      3  C   UNL     1      33.834 -15.339 -24.522  0.00  0.00    +0.094 C 
ATOM      4  C   UNL     1      34.062 -14.177 -23.569  0.00  0.00    +0.048 C 
ATOM      5  C   UNL     1      33.513 -14.535 -22.199  0.00  0.00    +0.129 C 
ATOM      6  C   UNL     1      34.477 -16.673 -22.532  0.00  0.00    +0.127 C 
ATOM      7  C   UNL     1      34.646 -17.656 -24.841  0.00  0.00    +0.114 C 
ENDROOT
BRANCH   6   8
ATOM      8  C   UNL     1      35.058 -17.892 -21.901  0.00  0.00    +0.034 C 
ATOM      9  C   UNL     1      34.232 -18.677 -21.221  0.00  0.00    +0.009 C 
BRANCH   9  11
ATOM     10  S   UNL     1      33.486 -20.927 -19.925  0.00  0.00    -0.086 S 
ATOM     11  C   UNL     1      34.662 -19.885 -20.581  0.00  0.00    +0.030 C 
ATOM     12  C   UNL     1      35.938 -20.336 -20.418  0.00  0.00    +0.007 C 
ATOM     13  C   UNL     1      35.962 -21.583 -19.729  0.00  0.00    +0.007 C 
ATOM     14  C   UNL     1      34.698 -22.019 -19.402  0.00  0.00    +0.035 C 
ENDBRANCH   9  11
ENDBRANCH   6   8
TORSDOF 2
ENDMDL
MODEL 3
REMARK VINA RESULT:      -7.1      2.611      6.088
REMARK  Name = 708857
REMARK  2 active torsions:
REMARK  status: ('A' for Active; 'I' for Inactive)
REMARK    1  A    between atoms: C_6  and  C_8
REMARK    2  A    between atoms: C_9  and  C_11
REMARK                            x       y       z     vdW  Elec       q    Type
REMARK                         _______ _______ _______ _____ _____    ______ ____
ROOT
ATOM      1  N   UNL     1      34.197 -20.725 -20.094  0.00  0.00    -0.292 N 
ATOM      2  N   UNL     1      36.469 -20.013 -20.411  0.00  0.00    -0.256 NA
ATOM      3  C   UNL     1      34.567 -21.894 -19.300  0.00  0.00    +0.094 C 
ATOM      4  C   UNL     1      35.913 -21.645 -18.638  0.00  0.00    +0.048 C 
ATOM      5  C   UNL     1      36.918 -21.208 -19.690  0.00  0.00    +0.129 C 
ATOM      6  C   UNL     1      35.184 -19.858 -20.575  0.00  0.00    +0.127 C 
ATOM      7  C   UNL     1      32.782 -20.587 -20.412  0.00  0.00    +0.114 C 
ENDROOT
BRANCH   6   8
ATOM      8  C   UNL     1      34.827 -18.630 -21.341  0.00  0.00    +0.034 C 
ATOM      9  C   UNL     1      34.982 -18.668 -22.658  0.00  0.00    +0.009 C 
BRANCH   9  11
ATOM     10  S   UNL     1      34.429 -16.027 -22.804  0.00  0.00    -0.086 S 
ATOM     11  C   UNL     1      34.659 -17.560 -23.508  0.00  0.00    +0.030 C 
ATOM     12  C   UNL     1      34.503 -17.563 -24.863  0.00  0.00    +0.007 C 
ATOM     13  C   UNL     1      34.182 -16.264 -25.350  0.00  0.00    +0.007 C 
ATOM     14  C   UNL     1      34.111 -15.334 -24.337  0.00  0.00    +0.035 C 
ENDBRANCH   9  11
ENDBRANCH   6   8
TORSDOF 2
ENDMDL
MODEL 4
REMARK VINA RESULT:      -6.9      2.798      6.116
REMARK  Name = 708857
REMARK  2 active torsions:
REMARK  status: ('A' for Active; 'I' for Inactive)
REMARK    1  A    between atoms: C_6  and  C_8
REMARK    2  A    between atoms: C_9  and  C_11
REMARK                            x       y       z     vdW  Elec       q    Type
REMARK                         _______ _______ _______ _____ _____    ______ ____
ROOT
ATOM      1  N   UNL     1      35.457 -20.857 -19.792  0.00  0.00    -0.292 N 
ATOM      2  N   UNL     1      33.068 -20.667 -19.952  0.00  0.00    -0.256 NA
ATOM      3  C   UNL     1      35.408 -22.040 -18.938  0.00  0.00    +0.094 C 
ATOM      4  C   UNL     1      34.099 -22.777 -19.176  0.00  0.00    +0.048 C 
ATOM      5  C   UNL     1      32.942 -21.803 -19.035  0.00  0.00    +0.129 C 
ATOM      6  C   UNL     1      34.274 -20.268 -20.252  0.00  0.00    +0.127 C 
ATOM      7  C   UNL     1      36.781 -20.302 -20.043  0.00  0.00    +0.114 C 
ENDROOT
BRANCH   6   8
ATOM      8  C   UNL     1      34.302 -19.093 -21.168  0.00  0.00    +0.034 C 
ATOM      9  C   UNL     1      34.559 -19.327 -22.448  0.00  0.00    +0.009 C 
BRANCH   9  11
ATOM     10  S   UNL     1      34.790 -16.676 -22.915  0.00  0.00    -0.086 S 
ATOM     11  C   UNL     1      34.598 -18.286 -23.433  0.00  0.00    +0.030 C 
ATOM     12  C   UNL     1      34.497 -18.412 -24.787  0.00  0.00    +0.007 C 
ATOM     13  C   UNL     1      34.580 -17.145 -25.432  0.00  0.00    +0.007 C 
ATOM     14  C   UNL     1      34.740 -16.115 -24.533  0.00  0.00    +0.035 C 
ENDBRANCH   9  11
ENDBRANCH   6   8
TORSDOF 2
ENDMDL
MODEL 5
REMARK VINA RESULT:      -6.9      3.394      6.316
REMARK  Name = 708857
REMARK  2 active torsions:
REMARK  status: ('A' for Active; 'I' for Inactive)
REMARK    1  A    between atoms: C_6  and  C_8
REMARK    2  A    between atoms: C_9  and  C_11
REMARK                            x       y       z     vdW  Elec       q    Type
REMARK                         _______ _______ _______ _____ _____    ______ ____
ROOT
ATOM      1  N   UNL     1      34.768 -17.200 -23.578  0.00  0.00    -0.292 N 
ATOM      2  N   UNL     1      35.089 -17.079 -21.201  0.00  0.00    -0.256 NA
ATOM      3  C   UNL     1      35.169 -18.602 -23.663  0.00  0.00    +0.094 C 
ATOM      4  C   UNL     1      34.922 -19.276 -22.323  0.00  0.00    +0.048 C 
ATOM      5  C   UNL     1      35.577 -18.461 -21.221  0.00  0.00    +0.129 C 
ATOM      6  C   UNL     1      34.741 -16.547 -22.340  0.00  0.00    +0.127 C 
ATOM      7  C   UNL     1      34.497 -16.532 -24.844  0.00  0.00    +0.114 C 
ENDROOT
BRANCH   6   8
ATOM      8  C   UNL     1      34.283 -15.134 -22.223  0.00  0.00    +0.034 C 
ATOM      9  C   UNL     1      33.053 -14.929 -21.769  0.00  0.00    +0.009 C 
BRANCH   9  11
ATOM     10  S   UNL     1      32.358 -12.603 -22.954  0.00  0.00    -0.086 S 
ATOM     11  C   UNL     1      32.499 -13.618 -21.595  0.00  0.00    +0.030 C 
ATOM     12  C   UNL     1      32.052 -13.046 -20.441  0.00  0.00    +0.007 C 
ATOM     13  C   UNL     1      31.572 -11.725 -20.671  0.00  0.00    +0.007 C 
ATOM     14  C   UNL     1      31.680 -11.357 -21.993  0.00  0.00    +0.035 C 
ENDBRANCH   9  11
ENDBRANCH   6   8
TORSDOF 2
ENDMDL
MODEL 6
REMARK VINA RESULT:      -6.9      2.771      5.968
REMARK  Name = 708857
REMARK  2 active torsions:
REMARK  status: ('A' for Active; 'I' for Inactive)
REMARK    1  A    between atoms: C_6  and  C_8
REMARK    2  A    between atoms: C_9  and  C_11
REMARK                            x       y       z     vdW  Elec       q    Type
REMARK                         _______ _______ _______ _____ _____    ______ ____
ROOT
ATOM      1  N   UNL     1      34.308 -20.220 -20.475  0.00  0.00    -0.292 N 
ATOM      2  N   UNL     1      36.266 -18.900 -20.914  0.00  0.00    -0.256 NA
ATOM      3  C   UNL     1      35.062 -21.334 -19.906  0.00  0.00    +0.094 C 
ATOM      4  C   UNL     1      36.382 -20.818 -19.356  0.00  0.00    +0.048 C 
ATOM      5  C   UNL     1      37.092 -20.009 -20.428  0.00  0.00    +0.129 C 
ATOM      6  C   UNL     1      34.973 -19.072 -20.921  0.00  0.00    +0.127 C 
ATOM      7  C   UNL     1      32.873 -20.425 -20.623  0.00  0.00    +0.114 C 
ENDROOT
BRANCH   6   8
ATOM      8  C   UNL     1      34.220 -17.902 -21.455  0.00  0.00    +0.034 C 
ATOM      9  C   UNL     1      34.469 -16.719 -20.909  0.00  0.00    +0.009 C 
BRANCH   9  11
ATOM     10  S   UNL     1      34.248 -14.858 -22.854  0.00  0.00    -0.086 S 
ATOM     11  C   UNL     1      33.824 -15.514 -21.342  0.00  0.00    +0.030 C 
ATOM     12  C   UNL     1      32.877 -14.789 -20.682  0.00  0.00    +0.007 C 
ATOM     13  C   UNL     1      32.478 -13.649 -21.438  0.00  0.00    +0.007 C 
ATOM     14  C   UNL     1      33.144 -13.566 -22.640  0.00  0.00    +0.035 C 
ENDBRANCH   9  11
ENDBRANCH   6   8
TORSDOF 2
ENDMDL
MODEL 7
REMARK VINA RESULT:      -6.9      5.241      8.589
REMARK  Name = 708857
REMARK  2 active torsions:
REMARK  status: ('A' for Active; 'I' for Inactive)
REMARK    1  A    between atoms: C_6  and  C_8
REMARK    2  A    between atoms: C_9  and  C_11
REMARK                            x       y       z     vdW  Elec       q    Type
REMARK                         _______ _______ _______ _____ _____    ______ ____
ROOT
ATOM      1  N   UNL     1      34.016 -14.779 -23.426  0.00  0.00    -0.292 N 
ATOM      2  N   UNL     1      33.043 -13.876 -25.428  0.00  0.00    -0.256 NA
ATOM      3  C   UNL     1      34.142 -16.127 -23.974  0.00  0.00    +0.094 C 
ATOM      4  C   UNL     1      34.227 -16.047 -25.490  0.00  0.00    +0.048 C 
ATOM      5  C   UNL     1      33.067 -15.219 -26.015  0.00  0.00    +0.129 C 
ATOM      6  C   UNL     1      33.489 -13.746 -24.209  0.00  0.00    +0.127 C 
ATOM      7  C   UNL     1      34.380 -14.619 -22.025  0.00  0.00    +0.114 C 
ENDROOT
BRANCH   6   8
ATOM      8  C   UNL     1      33.400 -12.351 -23.690  0.00  0.00    +0.034 C 
ATOM      9  C   UNL     1      34.058 -11.412 -24.357  0.00  0.00    +0.009 C 
BRANCH   9  11
ATOM     10  S   UNL     1      32.738  -9.460 -23.035  0.00  0.00    -0.086 S 
ATOM     11  C   UNL     1      34.041 -10.031 -23.970  0.00  0.00    +0.030 C 
ATOM     12  C   UNL     1      34.963  -9.070 -24.261  0.00  0.00    +0.007 C 
ATOM     13  C   UNL     1      34.595  -7.813 -23.699  0.00  0.00    +0.007 C 
ATOM     14  C   UNL     1      33.407  -7.883 -23.007  0.00  0.00    +0.035 C 
ENDBRANCH   9  11
ENDBRANCH   6   8
TORSDOF 2
ENDMDL
MODEL 8
REMARK VINA RESULT:      -6.9      2.771      4.481
REMARK  Name = 708857
REMARK  2 active torsions:
REMARK  status: ('A' for Active; 'I' for Inactive)
REMARK    1  A    between atoms: C_6  and  C_8
REMARK    2  A    between atoms: C_9  and  C_11
REMARK                            x       y       z     vdW  Elec       q    Type
REMARK                         _______ _______ _______ _____ _____    ______ ____
ROOT
ATOM      1  N   UNL     1      33.345 -13.686 -25.643  0.00  0.00    -0.292 N 
ATOM      2  N   UNL     1      33.732 -12.769 -23.457  0.00  0.00    -0.256 NA
ATOM      3  C   UNL     1      33.407 -12.389 -26.310  0.00  0.00    +0.094 C 
ATOM      4  C   UNL     1      34.246 -11.435 -25.475  0.00  0.00    +0.048 C 
ATOM      5  C   UNL     1      33.728 -11.428 -24.047  0.00  0.00    +0.129 C 
ATOM      6  C   UNL     1      33.533 -13.779 -24.259  0.00  0.00    +0.127 C 
ATOM      7  C   UNL     1      32.995 -14.824 -26.483  0.00  0.00    +0.114 C 
ENDROOT
BRANCH   6   8
ATOM      8  C   UNL     1      33.529 -15.098 -23.566  0.00  0.00    +0.034 C 
ATOM      9  C   UNL     1      34.675 -15.764 -23.520  0.00  0.00    +0.009 C 
BRANCH   9  11
ATOM     10  S   UNL     1      34.934 -17.076 -21.173  0.00  0.00    -0.086 S 
ATOM     11  C   UNL     1      34.807 -17.035 -22.870  0.00  0.00    +0.030 C 
ATOM     12  C   UNL     1      34.848 -18.270 -23.447  0.00  0.00    +0.007 C 
ATOM     13  C   UNL     1      34.989 -19.295 -22.468  0.00  0.00    +0.007 C 
ATOM     14  C   UNL     1      35.048 -18.785 -21.190  0.00  0.00    +0.035 C 
ENDBRANCH   9  11
ENDBRANCH   6   8
TORSDOF 2
ENDMDL
MODEL 9
REMARK VINA RESULT:      -6.8      3.126      6.603
REMARK  Name = 708857
REMARK  2 active torsions:
REMARK  status: ('A' for Active; 'I' for Inactive)
REMARK    1  A    between atoms: C_6  and  C_8
REMARK    2  A    between atoms: C_9  and  C_11
REMARK                            x       y       z     vdW  Elec       q    Type
REMARK                         _______ _______ _______ _____ _____    ______ ____
ROOT
ATOM      1  N   UNL     1      35.314 -22.037 -18.126  0.00  0.00    -0.292 N 
ATOM      2  N   UNL     1      33.120 -21.858 -19.086  0.00  0.00    -0.256 NA
ATOM      3  C   UNL     1      34.858 -22.809 -16.974  0.00  0.00    +0.094 C 
ATOM      4  C   UNL     1      33.580 -23.546 -17.338  0.00  0.00    +0.048 C 
ATOM      5  C   UNL     1      32.579 -22.561 -17.919  0.00  0.00    +0.129 C 
ATOM      6  C   UNL     1      34.405 -21.634 -19.111  0.00  0.00    +0.127 C 
ATOM      7  C   UNL     1      36.720 -21.652 -18.126  0.00  0.00    +0.114 C 
ENDROOT
BRANCH   6   8
ATOM      8  C   UNL     1      34.856 -20.892 -20.322  0.00  0.00    +0.034 C 
ATOM      9  C   UNL     1      34.225 -19.762 -20.613  0.00  0.00    +0.009 C 
BRANCH   9  11
ATOM     10  S   UNL     1      34.798 -17.277 -21.504  0.00  0.00    -0.086 S 
ATOM     11  C   UNL     1      34.574 -18.948 -21.740  0.00  0.00    +0.030 C 
ATOM     12  C   UNL     1      34.758 -19.343 -23.032  0.00  0.00    +0.007 C 
ATOM     13  C   UNL     1      35.096 -18.240 -23.868  0.00  0.00    +0.007 C 
ATOM     14  C   UNL     1      35.153 -17.057 -23.166  0.00  0.00    +0.035 C 
ENDBRANCH   9  11
ENDBRANCH   6   8
TORSDOF 2
ENDMDL
