MODEL 1
REMARK VINA RESULT:      -4.3      0.000      0.000
REMARK  Name = 6590
REMARK  2 active torsions:
REMARK  status: ('A' for Active; 'I' for Inactive)
REMARK    1  A    between atoms: C_2  and  C_3
REMARK    2  A    between atoms: C_2  and  O_6
REMARK                            x       y       z     vdW  Elec       q    Type
REMARK                         _______ _______ _______ _____ _____    ______ ____
ROOT
ATOM      1  O   UNL     1      40.974 -24.766 -14.218  0.00  0.00    -0.250 OA
ATOM      2  C   UNL     1      40.124 -25.322 -14.898  0.00  0.00    +0.313 C 
ENDROOT
BRANCH   2   3
ATOM      3  C   UNL     1      38.655 -25.449 -14.550  0.00  0.00    +0.099 C 
ATOM      4  C   UNL     1      38.495 -25.678 -13.053  0.00  0.00    +0.012 C 
ATOM      5  C   UNL     1      37.886 -24.209 -14.998  0.00  0.00    +0.012 C 
ENDBRANCH   2   3
BRANCH   2   6
ATOM      6  O   UNL     1      40.388 -25.926 -16.085  0.00  0.00    -0.480 OA
ATOM      7  H   UNL     1      41.004 -25.543 -16.679  0.00  0.00    +0.295 HD
ENDBRANCH   2   6
TORSDOF 2
ENDMDL
MODEL 2
REMARK VINA RESULT:      -4.3      9.942     10.677
REMARK  Name = 6590
REMARK  2 active torsions:
REMARK  status: ('A' for Active; 'I' for Inactive)
REMARK    1  A    between atoms: C_2  and  C_3
REMARK    2  A    between atoms: C_2  and  O_6
REMARK                            x       y       z     vdW  Elec       q    Type
REMARK                         _______ _______ _______ _____ _____    ______ ____
ROOT
ATOM      1  O   UNL     1      42.268 -16.444 -15.754  0.00  0.00    -0.250 OA
ATOM      2  C   UNL     1      41.279 -15.731 -15.828  0.00  0.00    +0.313 C 
ENDROOT
BRANCH   2   3
ATOM      3  C   UNL     1      41.172 -14.441 -16.615  0.00  0.00    +0.099 C 
ATOM      4  C   UNL     1      42.173 -13.424 -16.081  0.00  0.00    +0.012 C 
ATOM      5  C   UNL     1      41.395 -14.697 -18.103  0.00  0.00    +0.012 C 
ENDBRANCH   2   3
BRANCH   2   6
ATOM      6  O   UNL     1      40.110 -15.999 -15.189  0.00  0.00    -0.480 OA
ATOM      7  H   UNL     1      39.411 -15.375 -15.210  0.00  0.00    +0.295 HD
ENDBRANCH   2   6
TORSDOF 2
ENDMDL
MODEL 3
REMARK VINA RESULT:      -4.3     10.543     11.320
REMARK  Name = 6590
REMARK  2 active torsions:
REMARK  status: ('A' for Active; 'I' for Inactive)
REMARK    1  A    between atoms: C_2  and  C_3
REMARK    2  A    between atoms: C_2  and  O_6
REMARK                            x       y       z     vdW  Elec       q    Type
REMARK                         _______ _______ _______ _____ _____    ______ ____
ROOT
ATOM      1  O   UNL     1      27.707 -23.887 -17.647  0.00  0.00    -0.250 OA
ATOM      2  C   UNL     1      28.139 -23.019 -16.904  0.00  0.00    +0.313 C 
ENDROOT
BRANCH   2   3
ATOM      3  C   UNL     1      29.153 -23.222 -15.797  0.00  0.00    +0.099 C 
ATOM      4  C   UNL     1      29.020 -24.628 -15.225  0.00  0.00    +0.012 C 
ATOM      5  C   UNL     1      30.569 -22.974 -16.310  0.00  0.00    +0.012 C 
ENDBRANCH   2   3
BRANCH   2   6
ATOM      6  O   UNL     1      27.751 -21.719 -16.963  0.00  0.00    -0.480 OA
ATOM      7  H   UNL     1      28.385 -21.047 -17.123  0.00  0.00    +0.295 HD
ENDBRANCH   2   6
TORSDOF 2
ENDMDL
MODEL 4
REMARK VINA RESULT:      -4.1     11.929     12.769
REMARK  Name = 6590
REMARK  2 active torsions:
REMARK  status: ('A' for Active; 'I' for Inactive)
REMARK    1  A    between atoms: C_2  and  C_3
REMARK    2  A    between atoms: C_2  and  O_6
REMARK                            x       y       z     vdW  Elec       q    Type
REMARK                         _______ _______ _______ _____ _____    ______ ____
ROOT
ATOM      1  O   UNL     1      26.882 -21.274 -17.333  0.00  0.00    -0.250 OA
ATOM      2  C   UNL     1      26.755 -22.011 -16.367  0.00  0.00    +0.313 C 
ENDROOT
BRANCH   2   3
ATOM      3  C   UNL     1      27.789 -22.994 -15.858  0.00  0.00    +0.099 C 
ATOM      4  C   UNL     1      28.217 -23.925 -16.986  0.00  0.00    +0.012 C 
ATOM      5  C   UNL     1      28.990 -22.258 -15.272  0.00  0.00    +0.012 C 
ENDBRANCH   2   3
BRANCH   2   6
ATOM      6  O   UNL     1      25.634 -22.058 -15.601  0.00  0.00    -0.480 OA
ATOM      7  H   UNL     1      24.790 -21.978 -16.001  0.00  0.00    +0.295 HD
ENDBRANCH   2   6
TORSDOF 2
ENDMDL
MODEL 5
REMARK VINA RESULT:      -4.1      7.746      8.775
REMARK  Name = 6590
REMARK  2 active torsions:
REMARK  status: ('A' for Active; 'I' for Inactive)
REMARK    1  A    between atoms: C_2  and  C_3
REMARK    2  A    between atoms: C_2  and  O_6
REMARK                            x       y       z     vdW  Elec       q    Type
REMARK                         _______ _______ _______ _____ _____    ______ ____
ROOT
ATOM      1  O   UNL     1      34.824 -22.834 -19.352  0.00  0.00    -0.250 OA
ATOM      2  C   UNL     1      33.946 -21.985 -19.379  0.00  0.00    +0.313 C 
ENDROOT
BRANCH   2   3
ATOM      3  C   UNL     1      34.095 -20.571 -19.904  0.00  0.00    +0.099 C 
ATOM      4  C   UNL     1      35.375 -20.456 -20.722  0.00  0.00    +0.012 C 
ATOM      5  C   UNL     1      32.878 -20.173 -20.733  0.00  0.00    +0.012 C 
ENDBRANCH   2   3
BRANCH   2   6
ATOM      6  O   UNL     1      32.684 -22.194 -18.922  0.00  0.00    -0.480 OA
ATOM      7  H   UNL     1      31.950 -21.878 -19.412  0.00  0.00    +0.295 HD
ENDBRANCH   2   6
TORSDOF 2
ENDMDL
MODEL 6
REMARK VINA RESULT:      -4.0     12.202     13.225
REMARK  Name = 6590
REMARK  2 active torsions:
REMARK  status: ('A' for Active; 'I' for Inactive)
REMARK    1  A    between atoms: C_2  and  C_3
REMARK    2  A    between atoms: C_2  and  O_6
REMARK                            x       y       z     vdW  Elec       q    Type
REMARK                         _______ _______ _______ _____ _____    ______ ____
ROOT
ATOM      1  O   UNL     1      34.740 -16.781 -25.761  0.00  0.00    -0.250 OA
ATOM      2  C   UNL     1      34.992 -16.916 -24.573  0.00  0.00    +0.313 C 
ENDROOT
BRANCH   2   3
ATOM      3  C   UNL     1      34.738 -18.161 -23.748  0.00  0.00    +0.099 C 
ATOM      4  C   UNL     1      34.666 -19.379 -24.660  0.00  0.00    +0.012 C 
ATOM      5  C   UNL     1      35.822 -18.336 -22.688  0.00  0.00    +0.012 C 
ENDBRANCH   2   3
BRANCH   2   6
ATOM      6  O   UNL     1      35.541 -15.938 -23.806  0.00  0.00    -0.480 OA
ATOM      7  H   UNL     1      34.989 -15.368 -23.307  0.00  0.00    +0.295 HD
ENDBRANCH   2   6
TORSDOF 2
ENDMDL
MODEL 7
REMARK VINA RESULT:      -4.0      7.009      8.027
REMARK  Name = 6590
REMARK  2 active torsions:
REMARK  status: ('A' for Active; 'I' for Inactive)
REMARK    1  A    between atoms: C_2  and  C_3
REMARK    2  A    between atoms: C_2  and  O_6
REMARK                            x       y       z     vdW  Elec       q    Type
REMARK                         _______ _______ _______ _____ _____    ______ ____
ROOT
ATOM      1  O   UNL     1      34.137 -23.451 -17.492  0.00  0.00    -0.250 OA
ATOM      2  C   UNL     1      33.547 -22.718 -18.271  0.00  0.00    +0.313 C 
ENDROOT
BRANCH   2   3
ATOM      3  C   UNL     1      34.153 -22.033 -19.478  0.00  0.00    +0.099 C 
ATOM      4  C   UNL     1      33.307 -20.828 -19.869  0.00  0.00    +0.012 C 
ATOM      5  C   UNL     1      35.595 -21.618 -19.195  0.00  0.00    +0.012 C 
ENDBRANCH   2   3
BRANCH   2   6
ATOM      6  O   UNL     1      32.231 -22.401 -18.153  0.00  0.00    -0.480 OA
ATOM      7  H   UNL     1      31.764 -22.057 -18.889  0.00  0.00    +0.295 HD
ENDBRANCH   2   6
TORSDOF 2
ENDMDL
MODEL 8
REMARK VINA RESULT:      -4.0      9.197     10.020
REMARK  Name = 6590
REMARK  2 active torsions:
REMARK  status: ('A' for Active; 'I' for Inactive)
REMARK    1  A    between atoms: C_2  and  C_3
REMARK    2  A    between atoms: C_2  and  O_6
REMARK                            x       y       z     vdW  Elec       q    Type
REMARK                         _______ _______ _______ _____ _____    ______ ____
ROOT
ATOM      1  O   UNL     1      35.392 -17.410 -20.660  0.00  0.00    -0.250 OA
ATOM      2  C   UNL     1      35.637 -18.333 -21.423  0.00  0.00    +0.313 C 
ENDROOT
BRANCH   2   3
ATOM      3  C   UNL     1      35.131 -19.755 -21.286  0.00  0.00    +0.099 C 
ATOM      4  C   UNL     1      35.995 -20.517 -20.290  0.00  0.00    +0.012 C 
ATOM      5  C   UNL     1      33.666 -19.767 -20.859  0.00  0.00    +0.012 C 
ENDBRANCH   2   3
BRANCH   2   6
ATOM      6  O   UNL     1      36.425 -18.210 -22.522  0.00  0.00    -0.480 OA
ATOM      7  H   UNL     1      36.989 -18.914 -22.775  0.00  0.00    +0.295 HD
ENDBRANCH   2   6
TORSDOF 2
ENDMDL
MODEL 9
REMARK VINA RESULT:      -4.0      8.270      9.297
REMARK  Name = 6590
REMARK  2 active torsions:
REMARK  status: ('A' for Active; 'I' for Inactive)
REMARK    1  A    between atoms: C_2  and  C_3
REMARK    2  A    between atoms: C_2  and  O_6
REMARK                            x       y       z     vdW  Elec       q    Type
REMARK                         _______ _______ _______ _____ _____    ______ ____
ROOT
ATOM      1  O   UNL     1      35.584 -21.612 -20.090  0.00  0.00    -0.250 OA
ATOM      2  C   UNL     1      35.579 -20.411 -20.314  0.00  0.00    +0.313 C 
ENDROOT
BRANCH   2   3
ATOM      3  C   UNL     1      34.390 -19.604 -20.795  0.00  0.00    +0.099 C 
ATOM      4  C   UNL     1      34.507 -19.355 -22.293  0.00  0.00    +0.012 C 
ATOM      5  C   UNL     1      33.083 -20.316 -20.460  0.00  0.00    +0.012 C 
ENDBRANCH   2   3
BRANCH   2   6
ATOM      6  O   UNL     1      36.669 -19.614 -20.166  0.00  0.00    -0.480 OA
ATOM      7  H   UNL     1      36.899 -19.005 -20.840  0.00  0.00    +0.295 HD
ENDBRANCH   2   6
TORSDOF 2
ENDMDL
