MODEL 1
REMARK VINA RESULT:      -9.6      0.000      0.000
REMARK  Name = 65957
REMARK  4 active torsions:
REMARK  status: ('A' for Active; 'I' for Inactive)
REMARK    1  A    between atoms: C_5  and  C_17
REMARK    2  A    between atoms: C_16  and  C_25
REMARK    3  A    between atoms: C_17  and  N_20
REMARK    4  A    between atoms: C_25  and  O_26
REMARK                            x       y       z     vdW  Elec       q    Type
REMARK                         _______ _______ _______ _____ _____    ______ ____
ROOT
ATOM      1  F   UNL     1      36.861 -21.903 -18.410  0.00  0.00    -0.204 F 
ATOM      2  O   UNL     1      32.594 -23.351 -16.968  0.00  0.00    -0.473 OA
ATOM      3  O   UNL     1      37.562 -23.175 -13.572  0.00  0.00    -0.286 OA
ATOM      4  N   UNL     1      33.608 -23.798 -14.317  0.00  0.00    -0.281 N 
ATOM      5  C   UNL     1      34.721 -22.619 -17.676  0.00  0.00    +0.022 C 
ATOM      6  C   UNL     1      33.911 -23.119 -16.655  0.00  0.00    +0.148 C 
ATOM      7  C   UNL     1      34.428 -23.346 -15.370  0.00  0.00    +0.089 C 
ATOM      8  C   UNL     1      36.072 -22.374 -17.435  0.00  0.00    +0.137 C 
ATOM      9  C   UNL     1      32.176 -23.903 -14.612  0.00  0.00    +0.121 C 
ATOM     10  C   UNL     1      35.797 -23.105 -15.149  0.00  0.00    +0.058 C 
ATOM     11  C   UNL     1      31.991 -24.296 -16.078  0.00  0.00    +0.225 C 
ATOM     12  C   UNL     1      36.616 -22.622 -16.175  0.00  0.00    +0.034 C 
ATOM     13  C   UNL     1      34.157 -24.021 -13.070  0.00  0.00    +0.075 C 
ATOM     14  C   UNL     1      36.373 -23.360 -13.802  0.00  0.00    +0.204 C 
ATOM     15  C   UNL     1      31.473 -22.586 -14.276  0.00  0.00    +0.026 C 
ATOM     16  C   UNL     1      35.445 -23.845 -12.746  0.00  0.00    +0.129 C 
ENDROOT
BRANCH   5  17
ATOM     17  C   UNL     1      34.164 -22.350 -19.035  0.00  0.00    -0.024 C 
ATOM     18  C   UNL     1      34.629 -21.124 -19.758  0.00  0.00    -0.018 C 
ATOM     19  C   UNL     1      33.237 -21.185 -19.199  0.00  0.00    -0.018 C 
BRANCH  17  20
ATOM     20  N   UNL     1      33.909 -23.572 -19.806  0.00  0.00    +0.385 N 
ATOM     21  H   UNL     1      34.296 -24.374 -19.310  0.00  0.00    -0.089 HD
ATOM     22  H   UNL     1      34.348 -23.494 -20.723  0.00  0.00    -0.089 HD
ATOM     23  H   UNL     1      32.903 -23.697 -19.922  0.00  0.00    -0.089 HD
ENDBRANCH  17  20
ENDBRANCH   5  17
BRANCH  16  25
ATOM     24  O   UNL     1      35.417 -25.036 -10.688  0.00  0.00    -0.245 OA
ATOM     25  C   UNL     1      35.861 -24.130 -11.372  0.00  0.00    +0.342 C 
BRANCH  25  26
ATOM     26  O   UNL     1      36.801 -23.241 -10.988  0.00  0.00    -0.477 OA
ATOM     27  H   UNL     1      37.049 -23.180 -10.086  0.00  0.00    +0.295 HD
ENDBRANCH  25  26
ENDBRANCH  16  25
TORSDOF 4
ENDMDL
MODEL 2
REMARK VINA RESULT:      -9.5      7.600     11.549
REMARK  Name = 65957
REMARK  4 active torsions:
REMARK  status: ('A' for Active; 'I' for Inactive)
REMARK    1  A    between atoms: C_5  and  C_17
REMARK    2  A    between atoms: C_16  and  C_25
REMARK    3  A    between atoms: C_17  and  N_20
REMARK    4  A    between atoms: C_25  and  O_26
REMARK                            x       y       z     vdW  Elec       q    Type
REMARK                         _______ _______ _______ _____ _____    ______ ____
ROOT
ATOM      1  F   UNL     1      35.204 -20.146 -23.778  0.00  0.00    -0.204 F 
ATOM      2  O   UNL     1      34.684 -16.774 -20.499  0.00  0.00    -0.473 OA
ATOM      3  O   UNL     1      33.901 -16.044 -26.423  0.00  0.00    -0.286 OA
ATOM      4  N   UNL     1      33.907 -14.886 -22.520  0.00  0.00    -0.281 N 
ATOM      5  C   UNL     1      34.929 -18.453 -22.138  0.00  0.00    +0.022 C 
ATOM      6  C   UNL     1      34.628 -17.126 -21.826  0.00  0.00    +0.148 C 
ATOM      7  C   UNL     1      34.266 -16.213 -22.829  0.00  0.00    +0.089 C 
ATOM      8  C   UNL     1      34.907 -18.877 -23.465  0.00  0.00    +0.137 C 
ATOM      9  C   UNL     1      33.822 -14.554 -21.095  0.00  0.00    +0.121 C 
ATOM     10  C   UNL     1      34.261 -16.656 -24.165  0.00  0.00    +0.058 C 
ATOM     11  C   UNL     1      34.865 -15.366 -20.325  0.00  0.00    +0.225 C 
ATOM     12  C   UNL     1      34.581 -17.981 -24.483  0.00  0.00    +0.034 C 
ATOM     13  C   UNL     1      33.567 -14.015 -23.537  0.00  0.00    +0.075 C 
ATOM     14  C   UNL     1      33.903 -15.702 -25.247  0.00  0.00    +0.204 C 
ATOM     15  C   UNL     1      32.403 -14.805 -20.580  0.00  0.00    +0.026 C 
ATOM     16  C   UNL     1      33.545 -14.316 -24.842  0.00  0.00    +0.129 C 
ENDROOT
BRANCH   5  17
ATOM     17  C   UNL     1      35.286 -19.431 -21.068  0.00  0.00    -0.024 C 
ATOM     18  C   UNL     1      34.938 -20.870 -21.283  0.00  0.00    -0.018 C 
ATOM     19  C   UNL     1      34.174 -20.053 -20.282  0.00  0.00    -0.018 C 
BRANCH  17  20
ATOM     20  N   UNL     1      36.540 -19.101 -20.380  0.00  0.00    +0.385 N 
ATOM     21  H   UNL     1      37.330 -19.411 -20.946  0.00  0.00    -0.089 HD
ATOM     22  H   UNL     1      36.565 -19.569 -19.474  0.00  0.00    -0.089 HD
ATOM     23  H   UNL     1      36.597 -18.092 -20.242  0.00  0.00    -0.089 HD
ENDBRANCH  17  20
ENDBRANCH   5  17
BRANCH  16  25
ATOM     24  O   UNL     1      33.607 -12.136 -25.786  0.00  0.00    -0.245 OA
ATOM     25  C   UNL     1      33.161 -13.270 -25.790  0.00  0.00    +0.342 C 
BRANCH  25  26
ATOM     26  O   UNL     1      32.247 -13.755 -26.656  0.00  0.00    -0.477 OA
ATOM     27  H   UNL     1      32.334 -14.627 -26.990  0.00  0.00    +0.295 HD
ENDBRANCH  25  26
ENDBRANCH  16  25
TORSDOF 4
ENDMDL
MODEL 3
REMARK VINA RESULT:      -8.8     12.690     15.402
REMARK  Name = 65957
REMARK  4 active torsions:
REMARK  status: ('A' for Active; 'I' for Inactive)
REMARK    1  A    between atoms: C_5  and  C_17
REMARK    2  A    between atoms: C_16  and  C_25
REMARK    3  A    between atoms: C_17  and  N_20
REMARK    4  A    between atoms: C_25  and  O_26
REMARK                            x       y       z     vdW  Elec       q    Type
REMARK                         _______ _______ _______ _____ _____    ______ ____
ROOT
ATOM      1  F   UNL     1      34.220  -7.065 -23.471  0.00  0.00    -0.204 F 
ATOM      2  O   UNL     1      31.441  -9.836 -20.828  0.00  0.00    -0.473 OA
ATOM      3  O   UNL     1      34.528 -11.594 -25.689  0.00  0.00    -0.286 OA
ATOM      4  N   UNL     1      32.100 -12.106 -22.460  0.00  0.00    -0.281 N 
ATOM      5  C   UNL     1      32.838  -8.464 -22.143  0.00  0.00    +0.022 C 
ATOM      6  C   UNL     1      32.286  -9.724 -21.905  0.00  0.00    +0.148 C 
ATOM      7  C   UNL     1      32.607 -10.818 -22.723  0.00  0.00    +0.089 C 
ATOM      8  C   UNL     1      33.692  -8.272 -23.228  0.00  0.00    +0.137 C 
ATOM      9  C   UNL     1      31.321 -12.255 -21.228  0.00  0.00    +0.121 C 
ATOM     10  C   UNL     1      33.462 -10.603 -23.821  0.00  0.00    +0.058 C 
ATOM     11  C   UNL     1      30.561 -10.957 -20.952  0.00  0.00    +0.225 C 
ATOM     12  C   UNL     1      34.001  -9.337 -24.073  0.00  0.00    +0.034 C 
ATOM     13  C   UNL     1      32.431 -13.155 -23.296  0.00  0.00    +0.075 C 
ATOM     14  C   UNL     1      33.799 -11.742 -24.715  0.00  0.00    +0.204 C 
ATOM     15  C   UNL     1      32.241 -12.641 -20.068  0.00  0.00    +0.026 C 
ATOM     16  C   UNL     1      33.217 -13.068 -24.377  0.00  0.00    +0.129 C 
ENDROOT
BRANCH   5  17
ATOM     17  C   UNL     1      32.518  -7.306 -21.255  0.00  0.00    -0.024 C 
ATOM     18  C   UNL     1      31.188  -6.639 -21.417  0.00  0.00    -0.018 C 
ATOM     19  C   UNL     1      32.438  -5.945 -21.874  0.00  0.00    -0.018 C 
BRANCH  17  20
ATOM     20  N   UNL     1      33.085  -7.440 -19.908  0.00  0.00    +0.385 N 
ATOM     21  H   UNL     1      32.337  -7.383 -19.218  0.00  0.00    -0.089 HD
ATOM     22  H   UNL     1      33.757  -6.689 -19.746  0.00  0.00    -0.089 HD
ATOM     23  H   UNL     1      33.556  -8.340 -19.826  0.00  0.00    -0.089 HD
ENDBRANCH  17  20
ENDBRANCH   5  17
BRANCH  16  25
ATOM     24  O   UNL     1      33.815 -15.349 -24.679  0.00  0.00    -0.245 OA
ATOM     25  C   UNL     1      33.465 -14.283 -25.154  0.00  0.00    +0.342 C 
BRANCH  25  26
ATOM     26  O   UNL     1      33.247 -14.037 -26.464  0.00  0.00    -0.477 OA
ATOM     27  H   UNL     1      33.772 -13.406 -26.916  0.00  0.00    +0.295 HD
ENDBRANCH  25  26
ENDBRANCH  16  25
TORSDOF 4
ENDMDL
MODEL 4
REMARK VINA RESULT:      -8.7      1.870      3.323
REMARK  Name = 65957
REMARK  4 active torsions:
REMARK  status: ('A' for Active; 'I' for Inactive)
REMARK    1  A    between atoms: C_5  and  C_17
REMARK    2  A    between atoms: C_16  and  C_25
REMARK    3  A    between atoms: C_17  and  N_20
REMARK    4  A    between atoms: C_25  and  O_26
REMARK                            x       y       z     vdW  Elec       q    Type
REMARK                         _______ _______ _______ _____ _____    ______ ____
ROOT
ATOM      1  F   UNL     1      31.820 -23.566 -17.333  0.00  0.00    -0.204 F 
ATOM      2  O   UNL     1      36.382 -22.315 -17.399  0.00  0.00    -0.473 OA
ATOM      3  O   UNL     1      33.384 -24.359 -12.595  0.00  0.00    -0.286 OA
ATOM      4  N   UNL     1      36.655 -23.051 -14.635  0.00  0.00    -0.281 N 
ATOM      5  C   UNL     1      34.112 -22.952 -17.361  0.00  0.00    +0.022 C 
ATOM      6  C   UNL     1      35.319 -22.799 -16.677  0.00  0.00    +0.148 C 
ATOM      7  C   UNL     1      35.429 -23.149 -15.322  0.00  0.00    +0.089 C 
ATOM      8  C   UNL     1      32.986 -23.424 -16.688  0.00  0.00    +0.137 C 
ATOM      9  C   UNL     1      37.820 -22.677 -15.442  0.00  0.00    +0.121 C 
ATOM     10  C   UNL     1      34.278 -23.611 -14.656  0.00  0.00    +0.058 C 
ATOM     11  C   UNL     1      37.379 -21.728 -16.556  0.00  0.00    +0.225 C 
ATOM     12  C   UNL     1      33.062 -23.748 -15.334  0.00  0.00    +0.034 C 
ATOM     13  C   UNL     1      36.720 -23.394 -13.299  0.00  0.00    +0.075 C 
ATOM     14  C   UNL     1      34.365 -23.966 -13.215  0.00  0.00    +0.204 C 
ATOM     15  C   UNL     1      38.502 -23.933 -15.992  0.00  0.00    +0.026 C 
ATOM     16  C   UNL     1      35.692 -23.826 -12.558  0.00  0.00    +0.129 C 
ENDROOT
BRANCH   5  17
ATOM     17  C   UNL     1      34.002 -22.608 -18.810  0.00  0.00    -0.024 C 
ATOM     18  C   UNL     1      34.697 -21.374 -19.296  0.00  0.00    -0.018 C 
ATOM     19  C   UNL     1      33.200 -21.401 -19.189  0.00  0.00    -0.018 C 
BRANCH  17  20
ATOM     20  N   UNL     1      33.961 -23.788 -19.682  0.00  0.00    +0.385 N 
ATOM     21  H   UNL     1      34.797 -23.808 -20.266  0.00  0.00    -0.089 HD
ATOM     22  H   UNL     1      33.132 -23.744 -20.274  0.00  0.00    -0.089 HD
ATOM     23  H   UNL     1      33.925 -24.631 -19.110  0.00  0.00    -0.089 HD
ENDBRANCH  17  20
ENDBRANCH   5  17
BRANCH  16  25
ATOM     24  O   UNL     1      36.700 -23.535 -10.425  0.00  0.00    -0.245 OA
ATOM     25  C   UNL     1      35.936 -24.147 -11.151  0.00  0.00    +0.342 C 
BRANCH  25  26
ATOM     26  O   UNL     1      35.190 -25.212 -10.791  0.00  0.00    -0.477 OA
ATOM     27  H   UNL     1      34.278 -25.104 -10.602  0.00  0.00    +0.295 HD
ENDBRANCH  25  26
ENDBRANCH  16  25
TORSDOF 4
ENDMDL
MODEL 5
REMARK VINA RESULT:      -8.5      9.944     12.395
REMARK  Name = 65957
REMARK  4 active torsions:
REMARK  status: ('A' for Active; 'I' for Inactive)
REMARK    1  A    between atoms: C_5  and  C_17
REMARK    2  A    between atoms: C_16  and  C_25
REMARK    3  A    between atoms: C_17  and  N_20
REMARK    4  A    between atoms: C_25  and  O_26
REMARK                            x       y       z     vdW  Elec       q    Type
REMARK                         _______ _______ _______ _____ _____    ______ ____
ROOT
ATOM      1  F   UNL     1      31.837 -12.846 -19.551  0.00  0.00    -0.204 F 
ATOM      2  O   UNL     1      32.748 -12.242 -24.154  0.00  0.00    -0.473 OA
ATOM      3  O   UNL     1      34.337 -17.033 -20.872  0.00  0.00    -0.286 OA
ATOM      4  N   UNL     1      34.000 -14.825 -24.277  0.00  0.00    -0.281 N 
ATOM      5  C   UNL     1      32.287 -12.556 -21.862  0.00  0.00    +0.022 C 
ATOM      6  C   UNL     1      32.853 -13.042 -23.042  0.00  0.00    +0.148 C 
ATOM      7  C   UNL     1      33.474 -14.300 -23.080  0.00  0.00    +0.089 C 
ATOM      8  C   UNL     1      32.368 -13.307 -20.691  0.00  0.00    +0.137 C 
ATOM      9  C   UNL     1      33.756 -14.039 -25.489  0.00  0.00    +0.121 C 
ATOM     10  C   UNL     1      33.557 -15.039 -21.885  0.00  0.00    +0.058 C 
ATOM     11  C   UNL     1      33.746 -12.552 -25.132  0.00  0.00    +0.225 C 
ATOM     12  C   UNL     1      33.008 -14.546 -20.696  0.00  0.00    +0.034 C 
ATOM     13  C   UNL     1      34.613 -16.062 -24.269  0.00  0.00    +0.075 C 
ATOM     14  C   UNL     1      34.231 -16.364 -21.893  0.00  0.00    +0.204 C 
ATOM     15  C   UNL     1      32.448 -14.482 -26.149  0.00  0.00    +0.026 C 
ATOM     16  C   UNL     1      34.769 -16.846 -23.194  0.00  0.00    +0.129 C 
ENDROOT
BRANCH   5  17
ATOM     17  C   UNL     1      31.600 -11.230 -21.830  0.00  0.00    -0.024 C 
ATOM     18  C   UNL     1      32.410 -10.008 -22.134  0.00  0.00    -0.018 C 
ATOM     19  C   UNL     1      31.955 -10.279 -20.729  0.00  0.00    -0.018 C 
BRANCH  17  20
ATOM     20  N   UNL     1      30.209 -11.290 -22.293  0.00  0.00    +0.385 N 
ATOM     21  H   UNL     1      30.102 -12.065 -22.947  0.00  0.00    -0.089 HD
ATOM     22  H   UNL     1      29.968 -10.415 -22.759  0.00  0.00    -0.089 HD
ATOM     23  H   UNL     1      29.591 -11.431 -21.494  0.00  0.00    -0.089 HD
ENDBRANCH  17  20
ENDBRANCH   5  17
BRANCH  16  25
ATOM     24  O   UNL     1      35.025 -19.051 -24.043  0.00  0.00    -0.245 OA
ATOM     25  C   UNL     1      35.446 -18.132 -23.364  0.00  0.00    +0.342 C 
BRANCH  25  26
ATOM     26  O   UNL     1      36.597 -18.135 -22.658  0.00  0.00    -0.477 OA
ATOM     27  H   UNL     1      37.228 -17.454 -22.786  0.00  0.00    +0.295 HD
ENDBRANCH  25  26
ENDBRANCH  16  25
TORSDOF 4
ENDMDL
MODEL 6
REMARK VINA RESULT:      -8.3      2.480      4.206
REMARK  Name = 65957
REMARK  4 active torsions:
REMARK  status: ('A' for Active; 'I' for Inactive)
REMARK    1  A    between atoms: C_5  and  C_17
REMARK    2  A    between atoms: C_16  and  C_25
REMARK    3  A    between atoms: C_17  and  N_20
REMARK    4  A    between atoms: C_25  and  O_26
REMARK                            x       y       z     vdW  Elec       q    Type
REMARK                         _______ _______ _______ _____ _____    ______ ____
ROOT
ATOM      1  F   UNL     1      33.266 -21.304 -19.840  0.00  0.00    -0.204 F 
ATOM      2  O   UNL     1      36.337 -22.768 -16.552  0.00  0.00    -0.473 OA
ATOM      3  O   UNL     1      30.368 -23.523 -16.348  0.00  0.00    -0.286 OA
ATOM      4  N   UNL     1      34.198 -23.936 -15.031  0.00  0.00    -0.281 N 
ATOM      5  C   UNL     1      34.802 -22.052 -18.193  0.00  0.00    +0.022 C 
ATOM      6  C   UNL     1      35.032 -22.691 -16.973  0.00  0.00    +0.148 C 
ATOM      7  C   UNL     1      33.972 -23.241 -16.235  0.00  0.00    +0.089 C 
ATOM      8  C   UNL     1      33.500 -21.923 -18.675  0.00  0.00    +0.137 C 
ATOM      9  C   UNL     1      35.600 -24.147 -14.659  0.00  0.00    +0.121 C 
ATOM     10  C   UNL     1      32.664 -23.091 -16.732  0.00  0.00    +0.058 C 
ATOM     11  C   UNL     1      36.433 -22.957 -15.137  0.00  0.00    +0.225 C 
ATOM     12  C   UNL     1      32.428 -22.435 -17.945  0.00  0.00    +0.034 C 
ATOM     13  C   UNL     1      33.128 -24.454 -14.329  0.00  0.00    +0.075 C 
ATOM     14  C   UNL     1      31.523 -23.646 -15.958  0.00  0.00    +0.204 C 
ATOM     15  C   UNL     1      36.103 -25.472 -15.239  0.00  0.00    +0.026 C 
ATOM     16  C   UNL     1      31.842 -24.357 -14.691  0.00  0.00    +0.129 C 
ENDROOT
BRANCH   5  17
ATOM     17  C   UNL     1      35.932 -21.492 -18.992  0.00  0.00    -0.024 C 
ATOM     18  C   UNL     1      35.623 -20.890 -20.326  0.00  0.00    -0.018 C 
ATOM     19  C   UNL     1      36.334 -22.209 -20.243  0.00  0.00    -0.018 C 
BRANCH  17  20
ATOM     20  N   UNL     1      36.975 -20.877 -18.162  0.00  0.00    +0.385 N 
ATOM     21  H   UNL     1      36.745 -21.005 -17.177  0.00  0.00    -0.089 HD
ATOM     22  H   UNL     1      37.033 -19.881 -18.372  0.00  0.00    -0.089 HD
ATOM     23  H   UNL     1      37.872 -21.318 -18.362  0.00  0.00    -0.089 HD
ENDBRANCH  17  20
ENDBRANCH   5  17
BRANCH  16  25
ATOM     24  O   UNL     1      30.636 -24.655 -12.664  0.00  0.00    -0.245 OA
ATOM     25  C   UNL     1      30.829 -24.965 -13.827  0.00  0.00    +0.342 C 
BRANCH  25  26
ATOM     26  O   UNL     1      30.152 -25.909 -14.514  0.00  0.00    -0.477 OA
ATOM     27  H   UNL     1      30.504 -26.774 -14.592  0.00  0.00    +0.295 HD
ENDBRANCH  25  26
ENDBRANCH  16  25
TORSDOF 4
ENDMDL
MODEL 7
REMARK VINA RESULT:      -8.2     11.024     14.067
REMARK  Name = 65957
REMARK  4 active torsions:
REMARK  status: ('A' for Active; 'I' for Inactive)
REMARK    1  A    between atoms: C_5  and  C_17
REMARK    2  A    between atoms: C_16  and  C_25
REMARK    3  A    between atoms: C_17  and  N_20
REMARK    4  A    between atoms: C_25  and  O_26
REMARK                            x       y       z     vdW  Elec       q    Type
REMARK                         _______ _______ _______ _____ _____    ______ ____
ROOT
ATOM      1  F   UNL     1      30.753 -10.657 -20.262  0.00  0.00    -0.204 F 
ATOM      2  O   UNL     1      33.401 -10.132 -24.148  0.00  0.00    -0.473 OA
ATOM      3  O   UNL     1      32.410 -15.323 -21.265  0.00  0.00    -0.286 OA
ATOM      4  N   UNL     1      33.909 -12.959 -24.221  0.00  0.00    -0.281 N 
ATOM      5  C   UNL     1      32.073 -10.403 -22.218  0.00  0.00    +0.022 C 
ATOM      6  C   UNL     1      32.886 -10.978 -23.197  0.00  0.00    +0.148 C 
ATOM      7  C   UNL     1      33.136 -12.359 -23.207  0.00  0.00    +0.089 C 
ATOM      8  C   UNL     1      31.527 -11.199 -21.212  0.00  0.00    +0.137 C 
ATOM      9  C   UNL     1      34.334 -12.081 -25.315  0.00  0.00    +0.121 C 
ATOM     10  C   UNL     1      32.587 -13.145 -22.176  0.00  0.00    +0.058 C 
ATOM     11  C   UNL     1      34.572 -10.672 -24.768  0.00  0.00    +0.225 C 
ATOM     12  C   UNL     1      31.788 -12.569 -21.183  0.00  0.00    +0.034 C 
ATOM     13  C   UNL     1      34.142 -14.320 -24.189  0.00  0.00    +0.075 C 
ATOM     14  C   UNL     1      32.857 -14.607 -22.152  0.00  0.00    +0.204 C 
ATOM     15  C   UNL     1      33.289 -12.094 -26.434  0.00  0.00    +0.026 C 
ATOM     16  C   UNL     1      33.690 -15.163 -23.252  0.00  0.00    +0.129 C 
ENDROOT
BRANCH   5  17
ATOM     17  C   UNL     1      31.783  -8.938 -22.225  0.00  0.00    -0.024 C 
ATOM     18  C   UNL     1      32.903  -7.996 -21.912  0.00  0.00    -0.018 C 
ATOM     19  C   UNL     1      31.801  -8.211 -20.916  0.00  0.00    -0.018 C 
BRANCH  17  20
ATOM     20  N   UNL     1      30.793  -8.551 -23.237  0.00  0.00    +0.385 N 
ATOM     21  H   UNL     1      29.875  -8.901 -22.965  0.00  0.00    -0.089 HD
ATOM     22  H   UNL     1      31.056  -8.948 -24.139  0.00  0.00    -0.089 HD
ATOM     23  H   UNL     1      30.762  -7.534 -23.310  0.00  0.00    -0.089 HD
ENDBRANCH  17  20
ENDBRANCH   5  17
BRANCH  16  25
ATOM     24  O   UNL     1      34.098 -17.191 -24.423  0.00  0.00    -0.245 OA
ATOM     25  C   UNL     1      34.032 -16.581 -23.370  0.00  0.00    +0.342 C 
BRANCH  25  26
ATOM     26  O   UNL     1      34.260 -17.097 -22.144  0.00  0.00    -0.477 OA
ATOM     27  H   UNL     1      35.138 -17.183 -21.827  0.00  0.00    +0.295 HD
ENDBRANCH  25  26
ENDBRANCH  16  25
TORSDOF 4
ENDMDL
MODEL 8
REMARK VINA RESULT:      -8.1     11.465     14.622
REMARK  Name = 65957
REMARK  4 active torsions:
REMARK  status: ('A' for Active; 'I' for Inactive)
REMARK    1  A    between atoms: C_5  and  C_17
REMARK    2  A    between atoms: C_16  and  C_25
REMARK    3  A    between atoms: C_17  and  N_20
REMARK    4  A    between atoms: C_25  and  O_26
REMARK                            x       y       z     vdW  Elec       q    Type
REMARK                         _______ _______ _______ _____ _____    ______ ____
ROOT
ATOM      1  F   UNL     1      32.337 -15.138 -21.293  0.00  0.00    -0.204 F 
ATOM      2  O   UNL     1      34.099 -12.847 -25.039  0.00  0.00    -0.473 OA
ATOM      3  O   UNL     1      31.130 -10.304 -20.460  0.00  0.00    -0.286 OA
ATOM      4  N   UNL     1      33.214 -10.336 -23.958  0.00  0.00    -0.281 N 
ATOM      5  C   UNL     1      33.229 -13.980 -23.163  0.00  0.00    +0.022 C 
ATOM      6  C   UNL     1      33.426 -12.778 -23.844  0.00  0.00    +0.148 C 
ATOM      7  C   UNL     1      32.972 -11.562 -23.307  0.00  0.00    +0.089 C 
ATOM      8  C   UNL     1      32.541 -13.988 -21.951  0.00  0.00    +0.137 C 
ATOM      9  C   UNL     1      34.058 -10.395 -25.155  0.00  0.00    +0.121 C 
ATOM     10  C   UNL     1      32.269 -11.592 -22.088  0.00  0.00    +0.058 C 
ATOM     11  C   UNL     1      33.819 -11.721 -25.877  0.00  0.00    +0.225 C 
ATOM     12  C   UNL     1      32.053 -12.798 -21.413  0.00  0.00    +0.034 C 
ATOM     13  C   UNL     1      32.741  -9.163 -23.403  0.00  0.00    +0.075 C 
ATOM     14  C   UNL     1      31.759 -10.320 -21.512  0.00  0.00    +0.204 C 
ATOM     15  C   UNL     1      35.528 -10.206 -24.770  0.00  0.00    +0.026 C 
ATOM     16  C   UNL     1      32.046  -9.068 -22.263  0.00  0.00    +0.129 C 
ENDROOT
BRANCH   5  17
ATOM     17  C   UNL     1      33.737 -15.270 -23.720  0.00  0.00    -0.024 C 
ATOM     18  C   UNL     1      33.906 -16.425 -22.783  0.00  0.00    -0.018 C 
ATOM     19  C   UNL     1      35.111 -15.714 -23.326  0.00  0.00    -0.018 C 
BRANCH  17  20
ATOM     20  N   UNL     1      33.273 -15.529 -25.088  0.00  0.00    +0.385 N 
ATOM     21  H   UNL     1      34.074 -15.560 -25.718  0.00  0.00    -0.089 HD
ATOM     22  H   UNL     1      32.638 -14.786 -25.378  0.00  0.00    -0.089 HD
ATOM     23  H   UNL     1      32.784 -16.423 -25.116  0.00  0.00    -0.089 HD
ENDBRANCH  17  20
ENDBRANCH   5  17
BRANCH  16  25
ATOM     24  O   UNL     1      31.025  -6.936 -22.513  0.00  0.00    -0.245 OA
ATOM     25  C   UNL     1      31.619  -7.741 -21.817  0.00  0.00    +0.342 C 
BRANCH  25  26
ATOM     26  O   UNL     1      31.984  -7.555 -20.531  0.00  0.00    -0.477 OA
ATOM     27  H   UNL     1      32.379  -6.747 -20.269  0.00  0.00    +0.295 HD
ENDBRANCH  25  26
ENDBRANCH  16  25
TORSDOF 4
ENDMDL
MODEL 9
REMARK VINA RESULT:      -7.9      9.674     12.174
REMARK  Name = 65957
REMARK  4 active torsions:
REMARK  status: ('A' for Active; 'I' for Inactive)
REMARK    1  A    between atoms: C_5  and  C_17
REMARK    2  A    between atoms: C_16  and  C_25
REMARK    3  A    between atoms: C_17  and  N_20
REMARK    4  A    between atoms: C_25  and  O_26
REMARK                            x       y       z     vdW  Elec       q    Type
REMARK                         _______ _______ _______ _____ _____    ______ ____
ROOT
ATOM      1  F   UNL     1      34.862 -17.570 -20.575  0.00  0.00    -0.204 F 
ATOM      2  O   UNL     1      34.021 -16.035 -24.971  0.00  0.00    -0.473 OA
ATOM      3  O   UNL     1      32.352 -13.237 -19.908  0.00  0.00    -0.286 OA
ATOM      4  N   UNL     1      32.753 -13.673 -23.936  0.00  0.00    -0.281 N 
ATOM      5  C   UNL     1      34.447 -16.788 -22.777  0.00  0.00    +0.022 C 
ATOM      6  C   UNL     1      33.895 -15.822 -23.620  0.00  0.00    +0.148 C 
ATOM      7  C   UNL     1      33.265 -14.682 -23.096  0.00  0.00    +0.089 C 
ATOM      8  C   UNL     1      34.344 -16.645 -21.394  0.00  0.00    +0.137 C 
ATOM      9  C   UNL     1      33.019 -13.829 -25.369  0.00  0.00    +0.121 C 
ATOM     10  C   UNL     1      33.160 -14.561 -21.697  0.00  0.00    +0.058 C 
ATOM     11  C   UNL     1      33.036 -15.317 -25.720  0.00  0.00    +0.225 C 
ATOM     12  C   UNL     1      33.695 -15.537 -20.850  0.00  0.00    +0.034 C 
ATOM     13  C   UNL     1      32.131 -12.572 -23.382  0.00  0.00    +0.075 C 
ATOM     14  C   UNL     1      32.477 -13.373 -21.119  0.00  0.00    +0.204 C 
ATOM     15  C   UNL     1      34.334 -13.136 -25.737  0.00  0.00    +0.026 C 
ATOM     16  C   UNL     1      31.954 -12.358 -22.072  0.00  0.00    +0.129 C 
ENDROOT
BRANCH   5  17
ATOM     17  C   UNL     1      35.143 -17.986 -23.334  0.00  0.00    -0.024 C 
ATOM     18  C   UNL     1      34.664 -18.534 -24.642  0.00  0.00    -0.018 C 
ATOM     19  C   UNL     1      34.395 -19.282 -23.369  0.00  0.00    -0.018 C 
BRANCH  17  20
ATOM     20  N   UNL     1      36.581 -18.005 -23.042  0.00  0.00    +0.385 N 
ATOM     21  H   UNL     1      37.096 -18.241 -23.890  0.00  0.00    -0.089 HD
ATOM     22  H   UNL     1      36.772 -18.701 -22.322  0.00  0.00    -0.089 HD
ATOM     23  H   UNL     1      36.872 -17.086 -22.711  0.00  0.00    -0.089 HD
ENDBRANCH  17  20
ENDBRANCH   5  17
BRANCH  16  25
ATOM     24  O   UNL     1      31.691 -10.006 -21.846  0.00  0.00    -0.245 OA
ATOM     25  C   UNL     1      31.270 -11.133 -21.654  0.00  0.00    +0.342 C 
BRANCH  25  26
ATOM     26  O   UNL     1      30.114 -11.448 -21.032  0.00  0.00    -0.477 OA
ATOM     27  H   UNL     1      29.922 -12.342 -20.825  0.00  0.00    +0.295 HD
ENDBRANCH  25  26
ENDBRANCH  16  25
TORSDOF 4
ENDMDL
