MODEL 1
REMARK VINA RESULT:      -9.5      0.000      0.000
REMARK  Name = 2809
REMARK  3 active torsions:
REMARK  status: ('A' for Active; 'I' for Inactive)
REMARK    1  A    between atoms: C_6  and  C_15
REMARK    2  A    between atoms: CA_8  and  C_22
REMARK    3  A    between atoms: C_22  and  O_23
REMARK                            x       y       z     vdW  Elec       q    Type
REMARK                         _______ _______ _______ _____ _____    ______ ____
ROOT
ATOM      1 CL   UNL     1      37.938 -26.129 -14.621  0.00  0.00    -0.082 Cl
ATOM      2  O   UNL     1      30.808 -22.415 -13.833  0.00  0.00    -0.272 OA
ATOM      3  N   UNL     1      32.905 -23.225 -13.427  0.00  0.00    -0.282 N 
ATOM      4  N   UNL     1      32.603 -23.290 -16.430  0.00  0.00    -0.252 NA
ATOM      5  C   UNL     1      34.553 -24.030 -15.110  0.00  0.00    +0.032 C 
ATOM      6  C   UNL     1      33.880 -23.362 -16.265  0.00  0.00    +0.078 C 
ATOM      7  C   UNL     1      34.109 -23.863 -13.790  0.00  0.00    +0.052 C 
ATOM      8  CA  UNL     1      31.728 -23.920 -15.465  0.00  0.00    +0.277 C 
ATOM      9  C   UNL     1      31.767 -23.097 -14.198  0.00  0.00    +0.260 C 
ATOM     10  C   UNL     1      35.732 -24.753 -15.360  0.00  0.00    +0.014 C 
ATOM     11  C   UNL     1      34.909 -24.330 -12.735  0.00  0.00    +0.016 C 
ATOM     12  C   UNL     1      36.491 -25.255 -14.303  0.00  0.00    +0.058 C 
ATOM     13  C   UNL     1      36.089 -25.029 -12.991  0.00  0.00    +0.013 C 
ATOM     14  H   UNL     1      32.871 -22.829 -12.527  0.00  0.00    +0.155 HD
ENDROOT
BRANCH   6  15
ATOM     15  C   UNL     1      34.724 -22.696 -17.298  0.00  0.00    +0.017 C 
ATOM     16  C   UNL     1      35.995 -22.248 -16.962  0.00  0.00    +0.001 C 
ATOM     17  C   UNL     1      34.228 -22.530 -18.586  0.00  0.00    +0.001 C 
ATOM     18  C   UNL     1      36.784 -21.624 -17.928  0.00  0.00    +0.000 C 
ATOM     19  C   UNL     1      35.018 -21.906 -19.551  0.00  0.00    +0.000 C 
ATOM     20  C   UNL     1      36.295 -21.453 -19.223  0.00  0.00    +0.000 C 
ENDBRANCH   6  15
BRANCH   8  22
ATOM     21  OXT UNL     1      29.586 -24.874 -16.038  0.00  0.00    -0.248 OA
ATOM     22  C   UNL     1      30.382 -23.950 -16.114  0.00  0.00    +0.346 C 
BRANCH  22  23
ATOM     23  O   UNL     1      30.158 -22.805 -16.805  0.00  0.00    -0.479 OA
ATOM     24  H   UNL     1      29.768 -22.840 -17.656  0.00  0.00    +0.295 HD
ENDBRANCH  22  23
ENDBRANCH   8  22
TORSDOF 3
ENDMDL
MODEL 2
REMARK VINA RESULT:      -9.1      3.643      4.826
REMARK  Name = 2809
REMARK  3 active torsions:
REMARK  status: ('A' for Active; 'I' for Inactive)
REMARK    1  A    between atoms: C_6  and  C_15
REMARK    2  A    between atoms: CA_8  and  C_22
REMARK    3  A    between atoms: C_22  and  O_23
REMARK                            x       y       z     vdW  Elec       q    Type
REMARK                         _______ _______ _______ _____ _____    ______ ____
ROOT
ATOM      1 CL   UNL     1      29.668 -22.259 -15.346  0.00  0.00    -0.082 Cl
ATOM      2  O   UNL     1      36.462 -25.705 -12.657  0.00  0.00    -0.272 OA
ATOM      3  N   UNL     1      34.299 -25.353 -13.302  0.00  0.00    -0.282 N 
ATOM      4  N   UNL     1      35.870 -23.098 -14.551  0.00  0.00    -0.252 NA
ATOM      5  C   UNL     1      33.435 -23.479 -14.695  0.00  0.00    +0.032 C 
ATOM      6  C   UNL     1      34.777 -23.104 -15.236  0.00  0.00    +0.078 C 
ATOM      7  C   UNL     1      33.251 -24.594 -13.863  0.00  0.00    +0.052 C 
ATOM      8  CA  UNL     1      35.826 -23.439 -13.145  0.00  0.00    +0.277 C 
ATOM      9  C   UNL     1      35.585 -24.927 -13.037  0.00  0.00    +0.260 C 
ATOM     10  C   UNL     1      32.318 -22.748 -15.133  0.00  0.00    +0.014 C 
ATOM     11  C   UNL     1      31.946 -25.022 -13.572  0.00  0.00    +0.016 C 
ATOM     12  C   UNL     1      31.028 -23.157 -14.794  0.00  0.00    +0.058 C 
ATOM     13  C   UNL     1      30.842 -24.302 -14.029  0.00  0.00    +0.013 C 
ATOM     14  H   UNL     1      34.091 -26.288 -13.073  0.00  0.00    +0.155 HD
ENDROOT
BRANCH   6  15
ATOM     15  C   UNL     1      34.891 -22.739 -16.676  0.00  0.00    +0.017 C 
ATOM     16  C   UNL     1      36.039 -22.104 -17.134  0.00  0.00    +0.001 C 
ATOM     17  C   UNL     1      33.848 -23.036 -17.545  0.00  0.00    +0.001 C 
ATOM     18  C   UNL     1      36.146 -21.761 -18.481  0.00  0.00    +0.000 C 
ATOM     19  C   UNL     1      33.956 -22.693 -18.892  0.00  0.00    +0.000 C 
ATOM     20  C   UNL     1      35.104 -22.056 -19.361  0.00  0.00    +0.000 C 
ENDBRANCH   6  15
BRANCH   8  22
ATOM     21  OXT UNL     1      37.303 -22.358 -11.571  0.00  0.00    -0.248 OA
ATOM     22  C   UNL     1      37.147 -23.009 -12.594  0.00  0.00    +0.346 C 
BRANCH  22  23
ATOM     23  O   UNL     1      38.159 -23.440 -13.386  0.00  0.00    -0.479 OA
ATOM     24  H   UNL     1      37.989 -24.061 -14.067  0.00  0.00    +0.295 HD
ENDBRANCH  22  23
ENDBRANCH   8  22
TORSDOF 3
ENDMDL
MODEL 3
REMARK VINA RESULT:      -9.1     11.632     14.177
REMARK  Name = 2809
REMARK  3 active torsions:
REMARK  status: ('A' for Active; 'I' for Inactive)
REMARK    1  A    between atoms: C_6  and  C_15
REMARK    2  A    between atoms: CA_8  and  C_22
REMARK    3  A    between atoms: C_22  and  O_23
REMARK                            x       y       z     vdW  Elec       q    Type
REMARK                         _______ _______ _______ _____ _____    ______ ____
ROOT
ATOM      1 CL   UNL     1      30.518 -11.120 -19.937  0.00  0.00    -0.082 Cl
ATOM      2  O   UNL     1      34.936 -11.388 -26.695  0.00  0.00    -0.272 OA
ATOM      3  N   UNL     1      33.995 -10.712 -24.726  0.00  0.00    -0.282 N 
ATOM      4  N   UNL     1      33.582 -13.701 -24.810  0.00  0.00    -0.252 NA
ATOM      5  C   UNL     1      32.839 -12.141 -23.047  0.00  0.00    +0.032 C 
ATOM      6  C   UNL     1      33.415 -13.420 -23.563  0.00  0.00    +0.078 C 
ATOM      7  C   UNL     1      33.210 -10.892 -23.569  0.00  0.00    +0.052 C 
ATOM      8  CA  UNL     1      33.160 -12.746 -25.813  0.00  0.00    +0.277 C 
ATOM      9  C   UNL     1      34.129 -11.587 -25.785  0.00  0.00    +0.260 C 
ATOM     10  C   UNL     1      31.986 -12.202 -21.933  0.00  0.00    +0.014 C 
ATOM     11  C   UNL     1      32.808  -9.726 -22.900  0.00  0.00    +0.016 C 
ATOM     12  C   UNL     1      31.554 -11.032 -21.308  0.00  0.00    +0.058 C 
ATOM     13  C   UNL     1      31.978  -9.796 -21.781  0.00  0.00    +0.013 C 
ATOM     14  H   UNL     1      34.503  -9.870 -24.786  0.00  0.00    +0.155 HD
ENDROOT
BRANCH   6  15
ATOM     15  C   UNL     1      33.867 -14.448 -22.582  0.00  0.00    +0.017 C 
ATOM     16  C   UNL     1      33.576 -14.285 -21.234  0.00  0.00    +0.001 C 
ATOM     17  C   UNL     1      34.573 -15.558 -23.029  0.00  0.00    +0.001 C 
ATOM     18  C   UNL     1      33.999 -15.247 -20.316  0.00  0.00    +0.000 C 
ATOM     19  C   UNL     1      34.996 -16.519 -22.111  0.00  0.00    +0.000 C 
ATOM     20  C   UNL     1      34.710 -16.364 -20.755  0.00  0.00    +0.000 C 
ENDBRANCH   6  15
BRANCH   8  22
ATOM     21  OXT UNL     1      33.796 -14.531 -27.309  0.00  0.00    -0.248 OA
ATOM     22  C   UNL     1      33.172 -13.501 -27.104  0.00  0.00    +0.346 C 
BRANCH  22  23
ATOM     23  O   UNL     1      32.394 -12.884 -28.026  0.00  0.00    -0.479 OA
ATOM     24  H   UNL     1      32.628 -12.034 -28.344  0.00  0.00    +0.295 HD
ENDBRANCH  22  23
ENDBRANCH   8  22
TORSDOF 3
ENDMDL
MODEL 4
REMARK VINA RESULT:      -8.5      1.595      4.500
REMARK  Name = 2809
REMARK  3 active torsions:
REMARK  status: ('A' for Active; 'I' for Inactive)
REMARK    1  A    between atoms: C_6  and  C_15
REMARK    2  A    between atoms: CA_8  and  C_22
REMARK    3  A    between atoms: C_22  and  O_23
REMARK                            x       y       z     vdW  Elec       q    Type
REMARK                         _______ _______ _______ _____ _____    ______ ____
ROOT
ATOM      1 CL   UNL     1      37.573 -21.111 -17.651  0.00  0.00    -0.082 Cl
ATOM      2  O   UNL     1      30.372 -24.498 -16.256  0.00  0.00    -0.272 OA
ATOM      3  N   UNL     1      32.247 -23.701 -17.289  0.00  0.00    -0.282 N 
ATOM      4  N   UNL     1      33.017 -24.008 -14.386  0.00  0.00    -0.252 NA
ATOM      5  C   UNL     1      34.432 -23.161 -16.223  0.00  0.00    +0.032 C 
ATOM      6  C   UNL     1      34.158 -23.951 -14.985  0.00  0.00    +0.078 C 
ATOM      7  C   UNL     1      33.545 -23.147 -17.311  0.00  0.00    +0.052 C 
ATOM      8  CA  UNL     1      31.907 -23.236 -14.904  0.00  0.00    +0.277 C 
ATOM      9  C   UNL     1      31.444 -23.894 -16.183  0.00  0.00    +0.260 C 
ATOM     10  C   UNL     1      35.671 -22.508 -16.331  0.00  0.00    +0.014 C 
ATOM     11  C   UNL     1      33.957 -22.573 -18.523  0.00  0.00    +0.016 C 
ATOM     12  C   UNL     1      36.048 -21.898 -17.528  0.00  0.00    +0.058 C 
ATOM     13  C   UNL     1      35.199 -21.946 -18.628  0.00  0.00    +0.013 C 
ATOM     14  H   UNL     1      31.874 -23.979 -18.156  0.00  0.00    +0.155 HD
ENDROOT
BRANCH   6  15
ATOM     15  C   UNL     1      35.260 -24.765 -14.397  0.00  0.00    +0.017 C 
ATOM     16  C   UNL     1      35.899 -25.720 -15.176  0.00  0.00    +0.001 C 
ATOM     17  C   UNL     1      35.635 -24.559 -13.075  0.00  0.00    +0.001 C 
ATOM     18  C   UNL     1      36.929 -26.483 -14.627  0.00  0.00    +0.000 C 
ATOM     19  C   UNL     1      36.665 -25.321 -12.525  0.00  0.00    +0.000 C 
ATOM     20  C   UNL     1      37.312 -26.283 -13.300  0.00  0.00    +0.000 C 
ENDBRANCH   6  15
BRANCH   8  22
ATOM     21  OXT UNL     1      31.058 -23.670 -12.687  0.00  0.00    -0.248 OA
ATOM     22  C   UNL     1      30.877 -23.252 -13.820  0.00  0.00    +0.346 C 
BRANCH  22  23
ATOM     23  O   UNL     1      29.706 -22.737 -14.266  0.00  0.00    -0.479 OA
ATOM     24  H   UNL     1      28.920 -23.246 -14.215  0.00  0.00    +0.295 HD
ENDBRANCH  22  23
ENDBRANCH   8  22
TORSDOF 3
ENDMDL
MODEL 5
REMARK VINA RESULT:      -8.0     14.395     16.256
REMARK  Name = 2809
REMARK  3 active torsions:
REMARK  status: ('A' for Active; 'I' for Inactive)
REMARK    1  A    between atoms: C_6  and  C_15
REMARK    2  A    between atoms: CA_8  and  C_22
REMARK    3  A    between atoms: C_22  and  O_23
REMARK                            x       y       z     vdW  Elec       q    Type
REMARK                         _______ _______ _______ _____ _____    ______ ____
ROOT
ATOM      1 CL   UNL     1      31.551 -13.627 -20.929  0.00  0.00    -0.082 Cl
ATOM      2  O   UNL     1      32.299  -5.587 -20.695  0.00  0.00    -0.272 OA
ATOM      3  N   UNL     1      32.336  -7.801 -20.133  0.00  0.00    -0.282 N 
ATOM      4  N   UNL     1      32.182  -7.756 -23.148  0.00  0.00    -0.252 NA
ATOM      5  C   UNL     1      32.223  -9.744 -21.686  0.00  0.00    +0.032 C 
ATOM      6  C   UNL     1      32.595  -8.951 -22.896  0.00  0.00    +0.078 C 
ATOM      7  C   UNL     1      32.202  -9.179 -20.401  0.00  0.00    +0.052 C 
ATOM      8  CA  UNL     1      31.262  -7.117 -22.230  0.00  0.00    +0.277 C 
ATOM      9  C   UNL     1      32.031  -6.755 -20.981  0.00  0.00    +0.260 C 
ATOM     10  C   UNL     1      31.999 -11.122 -21.841  0.00  0.00    +0.014 C 
ATOM     11  C   UNL     1      32.064 -10.020 -19.286  0.00  0.00    +0.016 C 
ATOM     12  C   UNL     1      31.814 -11.939 -20.726  0.00  0.00    +0.058 C 
ATOM     13  C   UNL     1      31.863 -11.391 -19.449  0.00  0.00    +0.013 C 
ATOM     14  H   UNL     1      32.685  -7.558 -19.245  0.00  0.00    +0.155 HD
ENDROOT
BRANCH   6  15
ATOM     15  C   UNL     1      33.537  -9.551 -23.884  0.00  0.00    +0.017 C 
ATOM     16  C   UNL     1      34.684  -8.858 -24.248  0.00  0.00    +0.001 C 
ATOM     17  C   UNL     1      33.256 -10.798 -24.429  0.00  0.00    +0.001 C 
ATOM     18  C   UNL     1      35.564  -9.419 -25.172  0.00  0.00    +0.000 C 
ATOM     19  C   UNL     1      34.137 -11.360 -25.353  0.00  0.00    +0.000 C 
ATOM     20  C   UNL     1      35.291 -10.670 -25.725  0.00  0.00    +0.000 C 
ENDBRANCH   6  15
BRANCH   8  22
ATOM     21  OXT UNL     1      30.890  -5.716 -24.160  0.00  0.00    -0.248 OA
ATOM     22  C   UNL     1      30.732  -5.929 -22.967  0.00  0.00    +0.346 C 
BRANCH  22  23
ATOM     23  O   UNL     1      30.047  -5.113 -22.130  0.00  0.00    -0.479 OA
ATOM     24  H   UNL     1      29.653  -4.329 -22.459  0.00  0.00    +0.295 HD
ENDBRANCH  22  23
ENDBRANCH   8  22
TORSDOF 3
ENDMDL
MODEL 6
REMARK VINA RESULT:      -8.0     10.973     13.319
REMARK  Name = 2809
REMARK  3 active torsions:
REMARK  status: ('A' for Active; 'I' for Inactive)
REMARK    1  A    between atoms: C_6  and  C_15
REMARK    2  A    between atoms: CA_8  and  C_22
REMARK    3  A    between atoms: C_22  and  O_23
REMARK                            x       y       z     vdW  Elec       q    Type
REMARK                         _______ _______ _______ _____ _____    ______ ____
ROOT
ATOM      1 CL   UNL     1      32.731  -8.335 -23.192  0.00  0.00    -0.082 Cl
ATOM      2  O   UNL     1      32.079 -15.909 -20.462  0.00  0.00    -0.272 OA
ATOM      3  N   UNL     1      31.650 -13.720 -20.951  0.00  0.00    -0.282 N 
ATOM      4  N   UNL     1      33.852 -14.533 -22.850  0.00  0.00    -0.252 NA
ATOM      5  C   UNL     1      32.796 -12.311 -22.654  0.00  0.00    +0.032 C 
ATOM      6  C   UNL     1      33.372 -13.470 -23.400  0.00  0.00    +0.078 C 
ATOM      7  C   UNL     1      31.924 -12.481 -21.567  0.00  0.00    +0.052 C 
ATOM      8  CA  UNL     1      33.882 -14.631 -21.405  0.00  0.00    +0.277 C 
ATOM      9  C   UNL     1      32.464 -14.834 -20.925  0.00  0.00    +0.260 C 
ATOM     10  C   UNL     1      33.057 -11.018 -23.138  0.00  0.00    +0.014 C 
ATOM     11  C   UNL     1      31.245 -11.366 -21.054  0.00  0.00    +0.016 C 
ATOM     12  C   UNL     1      32.412  -9.912 -22.584  0.00  0.00    +0.058 C 
ATOM     13  C   UNL     1      31.494 -10.088 -21.554  0.00  0.00    +0.013 C 
ATOM     14  H   UNL     1      30.784 -13.798 -20.489  0.00  0.00    +0.155 HD
ENDROOT
BRANCH   6  15
ATOM     15  C   UNL     1      33.375 -13.433 -24.890  0.00  0.00    +0.017 C 
ATOM     16  C   UNL     1      33.804 -12.287 -25.547  0.00  0.00    +0.001 C 
ATOM     17  C   UNL     1      32.947 -14.545 -25.605  0.00  0.00    +0.001 C 
ATOM     18  C   UNL     1      33.807 -12.251 -26.941  0.00  0.00    +0.000 C 
ATOM     19  C   UNL     1      32.950 -14.509 -26.999  0.00  0.00    +0.000 C 
ATOM     20  C   UNL     1      33.379 -13.363 -27.668  0.00  0.00    +0.000 C 
ENDBRANCH   6  15
BRANCH   8  22
ATOM     21  OXT UNL     1      35.241 -16.552 -21.943  0.00  0.00    -0.248 OA
ATOM     22  C   UNL     1      34.783 -15.786 -21.107  0.00  0.00    +0.346 C 
BRANCH  22  23
ATOM     23  O   UNL     1      35.025 -15.874 -19.777  0.00  0.00    -0.479 OA
ATOM     24  H   UNL     1      35.765 -16.359 -19.466  0.00  0.00    +0.295 HD
ENDBRANCH  22  23
ENDBRANCH   8  22
TORSDOF 3
ENDMDL
MODEL 7
REMARK VINA RESULT:      -7.6      1.809      2.478
REMARK  Name = 2809
REMARK  3 active torsions:
REMARK  status: ('A' for Active; 'I' for Inactive)
REMARK    1  A    between atoms: C_6  and  C_15
REMARK    2  A    between atoms: CA_8  and  C_22
REMARK    3  A    between atoms: C_22  and  O_23
REMARK                            x       y       z     vdW  Elec       q    Type
REMARK                         _______ _______ _______ _____ _____    ______ ____
ROOT
ATOM      1 CL   UNL     1      35.727 -25.081 -14.359  0.00  0.00    -0.082 Cl
ATOM      2  O   UNL     1      28.380 -21.817 -15.146  0.00  0.00    -0.272 OA
ATOM      3  N   UNL     1      30.432 -22.405 -14.334  0.00  0.00    -0.282 N 
ATOM      4  N   UNL     1      30.580 -22.929 -17.304  0.00  0.00    -0.252 NA
ATOM      5  C   UNL     1      32.350 -23.326 -15.629  0.00  0.00    +0.032 C 
ATOM      6  C   UNL     1      31.821 -22.884 -16.955  0.00  0.00    +0.078 C 
ATOM      7  C   UNL     1      31.708 -23.001 -14.424  0.00  0.00    +0.052 C 
ATOM      8  CA  UNL     1      29.605 -23.474 -16.382  0.00  0.00    +0.277 C 
ATOM      9  C   UNL     1      29.415 -22.474 -15.265  0.00  0.00    +0.260 C 
ATOM     10  C   UNL     1      33.587 -23.990 -15.599  0.00  0.00    +0.014 C 
ATOM     11  C   UNL     1      32.367 -23.250 -13.210  0.00  0.00    +0.016 C 
ATOM     12  C   UNL     1      34.207 -24.276 -14.383  0.00  0.00    +0.058 C 
ATOM     13  C   UNL     1      33.605 -23.891 -13.190  0.00  0.00    +0.013 C 
ATOM     14  H   UNL     1      30.246 -21.886 -13.519  0.00  0.00    +0.155 HD
ENDROOT
BRANCH   6  15
ATOM     15  C   UNL     1      32.772 -22.316 -17.952  0.00  0.00    +0.017 C 
ATOM     16  C   UNL     1      34.109 -22.692 -17.917  0.00  0.00    +0.001 C 
ATOM     17  C   UNL     1      32.311 -21.417 -18.906  0.00  0.00    +0.001 C 
ATOM     18  C   UNL     1      34.999 -22.161 -18.849  0.00  0.00    +0.000 C 
ATOM     19  C   UNL     1      33.202 -20.886 -19.838  0.00  0.00    +0.000 C 
ATOM     20  C   UNL     1      34.546 -21.257 -19.811  0.00  0.00    +0.000 C 
ENDBRANCH   6  15
BRANCH   8  22
ATOM     21  OXT UNL     1      27.724 -22.813 -17.744  0.00  0.00    -0.248 OA
ATOM     22  C   UNL     1      28.372 -23.695 -17.199  0.00  0.00    +0.346 C 
BRANCH  22  23
ATOM     23  O   UNL     1      28.065 -25.013 -17.254  0.00  0.00    -0.479 OA
ATOM     24  H   UNL     1      27.307 -25.298 -17.727  0.00  0.00    +0.295 HD
ENDBRANCH  22  23
ENDBRANCH   8  22
TORSDOF 3
ENDMDL
MODEL 8
REMARK VINA RESULT:      -7.6     14.530     16.952
REMARK  Name = 2809
REMARK  3 active torsions:
REMARK  status: ('A' for Active; 'I' for Inactive)
REMARK    1  A    between atoms: C_6  and  C_15
REMARK    2  A    between atoms: CA_8  and  C_22
REMARK    3  A    between atoms: C_22  and  O_23
REMARK                            x       y       z     vdW  Elec       q    Type
REMARK                         _______ _______ _______ _____ _____    ______ ____
ROOT
ATOM      1 CL   UNL     1      30.116  -5.326 -22.848  0.00  0.00    -0.082 Cl
ATOM      2  O   UNL     1      36.003 -10.412 -25.023  0.00  0.00    -0.272 OA
ATOM      3  N   UNL     1      34.848  -8.528 -24.446  0.00  0.00    -0.282 N 
ATOM      4  N   UNL     1      33.143 -10.825 -23.481  0.00  0.00    -0.252 NA
ATOM      5  C   UNL     1      32.636  -8.415 -23.309  0.00  0.00    +0.032 C 
ATOM      6  C   UNL     1      32.686  -9.822 -22.810  0.00  0.00    +0.078 C 
ATOM      7  C   UNL     1      33.710  -7.827 -23.994  0.00  0.00    +0.052 C 
ATOM      8  CA  UNL     1      33.616 -10.614 -24.833  0.00  0.00    +0.277 C 
ATOM      9  C   UNL     1      34.930  -9.871 -24.752  0.00  0.00    +0.260 C 
ATOM     10  C   UNL     1      31.515  -7.635 -22.976  0.00  0.00    +0.014 C 
ATOM     11  C   UNL     1      33.691  -6.445 -24.239  0.00  0.00    +0.016 C 
ATOM     12  C   UNL     1      31.489  -6.272 -23.270  0.00  0.00    +0.058 C 
ATOM     13  C   UNL     1      32.584  -5.675 -23.886  0.00  0.00    +0.013 C 
ATOM     14  H   UNL     1      35.673  -8.002 -24.555  0.00  0.00    +0.155 HD
ENDROOT
BRANCH   6  15
ATOM     15  C   UNL     1      32.210 -10.109 -21.426  0.00  0.00    +0.017 C 
ATOM     16  C   UNL     1      32.310  -9.127 -20.449  0.00  0.00    +0.001 C 
ATOM     17  C   UNL     1      31.673 -11.356 -21.130  0.00  0.00    +0.001 C 
ATOM     18  C   UNL     1      31.865  -9.395 -19.155  0.00  0.00    +0.000 C 
ATOM     19  C   UNL     1      31.228 -11.624 -19.836  0.00  0.00    +0.000 C 
ATOM     20  C   UNL     1      31.324 -10.644 -18.848  0.00  0.00    +0.000 C 
ENDBRANCH   6  15
BRANCH   8  22
ATOM     21  OXT UNL     1      33.501 -12.269 -26.587  0.00  0.00    -0.248 OA
ATOM     22  C   UNL     1      33.742 -11.982 -25.423  0.00  0.00    +0.346 C 
BRANCH  22  23
ATOM     23  O   UNL     1      34.161 -12.870 -24.489  0.00  0.00    -0.479 OA
ATOM     24  H   UNL     1      34.502 -13.702 -24.753  0.00  0.00    +0.295 HD
ENDBRANCH  22  23
ENDBRANCH   8  22
TORSDOF 3
ENDMDL
MODEL 9
REMARK VINA RESULT:      -7.4     10.482     12.404
REMARK  Name = 2809
REMARK  3 active torsions:
REMARK  status: ('A' for Active; 'I' for Inactive)
REMARK    1  A    between atoms: C_6  and  C_15
REMARK    2  A    between atoms: CA_8  and  C_22
REMARK    3  A    between atoms: C_22  and  O_23
REMARK                            x       y       z     vdW  Elec       q    Type
REMARK                         _______ _______ _______ _____ _____    ______ ____
ROOT
ATOM      1 CL   UNL     1      36.724 -18.541 -21.592  0.00  0.00    -0.082 Cl
ATOM      2  O   UNL     1      32.155 -15.327 -27.427  0.00  0.00    -0.272 OA
ATOM      3  N   UNL     1      33.176 -16.808 -26.020  0.00  0.00    -0.282 N 
ATOM      4  N   UNL     1      33.408 -14.129 -24.647  0.00  0.00    -0.252 NA
ATOM      5  C   UNL     1      34.280 -16.296 -23.848  0.00  0.00    +0.032 C 
ATOM      6  C   UNL     1      33.618 -14.966 -23.689  0.00  0.00    +0.078 C 
ATOM      7  C   UNL     1      33.974 -17.159 -24.911  0.00  0.00    +0.052 C 
ATOM      8  CA  UNL     1      33.865 -14.454 -25.982  0.00  0.00    +0.277 C 
ATOM      9  C   UNL     1      32.968 -15.541 -26.527  0.00  0.00    +0.260 C 
ATOM     10  C   UNL     1      35.152 -16.726 -22.833  0.00  0.00    +0.014 C 
ATOM     11  C   UNL     1      34.459 -18.476 -24.884  0.00  0.00    +0.016 C 
ATOM     12  C   UNL     1      35.666 -18.022 -22.846  0.00  0.00    +0.058 C 
ATOM     13  C   UNL     1      35.306 -18.902 -23.861  0.00  0.00    +0.013 C 
ATOM     14  H   UNL     1      32.719 -17.547 -26.483  0.00  0.00    +0.155 HD
ENDROOT
BRANCH   6  15
ATOM     15  C   UNL     1      33.126 -14.568 -22.338  0.00  0.00    +0.017 C 
ATOM     16  C   UNL     1      32.711 -13.261 -22.116  0.00  0.00    +0.001 C 
ATOM     17  C   UNL     1      33.090 -15.509 -21.317  0.00  0.00    +0.001 C 
ATOM     18  C   UNL     1      32.252 -12.889 -20.854  0.00  0.00    +0.000 C 
ATOM     19  C   UNL     1      32.631 -15.137 -20.054  0.00  0.00    +0.000 C 
ATOM     20  C   UNL     1      32.212 -13.827 -19.822  0.00  0.00    +0.000 C 
ENDBRANCH   6  15
BRANCH   8  22
ATOM     21  OXT UNL     1      33.451 -12.094 -26.279  0.00  0.00    -0.248 OA
ATOM     22  C   UNL     1      33.780 -13.173 -26.749  0.00  0.00    +0.346 C 
BRANCH  22  23
ATOM     23  O   UNL     1      34.117 -13.369 -28.047  0.00  0.00    -0.479 OA
ATOM     24  H   UNL     1      33.481 -13.698 -28.652  0.00  0.00    +0.295 HD
ENDBRANCH  22  23
ENDBRANCH   8  22
TORSDOF 3
ENDMDL
