MODEL 1
REMARK VINA RESULT:      -9.3      0.000      0.000
REMARK  Name = 11955614
REMARK  4 active torsions:
REMARK  status: ('A' for Active; 'I' for Inactive)
REMARK    1  A    between atoms: C_4  and  O_20
REMARK    2  A    between atoms: C_14  and  O_16
REMARK    3  A    between atoms: C_15  and  O_18
REMARK    4  A    between atoms: O_20  and  C_23
REMARK                            x       y       z     vdW  Elec       q    Type
REMARK                         _______ _______ _______ _____ _____    ______ ____
ROOT
ATOM      1  N   UNL     1      34.548 -17.181 -24.067  0.00  0.00    -0.290 N 
ATOM      2  N   UNL     1      34.085 -15.992 -26.004  0.00  0.00    -0.230 NA
ATOM      3  N   UNL     1      32.969 -13.861 -25.881  0.00  0.00    -0.248 NA
ATOM      4  C   UNL     1      34.720 -19.216 -22.888  0.00  0.00    +0.190 C 
ATOM      5  C   UNL     1      36.108 -18.784 -23.334  0.00  0.00    +0.067 C 
ATOM      6  C   UNL     1      33.788 -18.401 -23.786  0.00  0.00    +0.136 C 
ATOM      7  C   UNL     1      35.936 -17.294 -23.629  0.00  0.00    +0.096 C 
ATOM      8  C   UNL     1      34.013 -16.058 -24.662  0.00  0.00    +0.130 C 
ATOM      9  C   UNL     1      33.438 -15.071 -23.865  0.00  0.00    +0.048 C 
ATOM     10  C   UNL     1      32.913 -13.958 -24.541  0.00  0.00    +0.066 C 
ATOM     11  C   UNL     1      33.375 -15.163 -22.464  0.00  0.00    +0.044 C 
ATOM     12  C   UNL     1      32.330 -12.950 -23.778  0.00  0.00    +0.112 C 
ATOM     13  C   UNL     1      33.552 -14.882 -26.539  0.00  0.00    +0.252 C 
ATOM     14  C   UNL     1      32.786 -14.140 -21.726  0.00  0.00    +0.169 C 
ATOM     15  C   UNL     1      32.262 -13.033 -22.384  0.00  0.00    +0.156 C 
ENDROOT
BRANCH  14  16
ATOM     16  O   UNL     1      32.727 -14.235 -20.369  0.00  0.00    -0.469 OA
ATOM     17  C   UNL     1      32.336 -15.495 -19.823  0.00  0.00    +0.253 C 
ENDBRANCH  14  16
BRANCH  15  18
ATOM     18  O   UNL     1      31.680 -12.021 -21.682  0.00  0.00    -0.472 OA
ATOM     19  C   UNL     1      31.798 -10.706 -22.221  0.00  0.00    +0.252 C 
ENDBRANCH  15  18
BRANCH   4  20
ATOM     20  O   UNL     1      34.503 -18.847 -21.531  0.00  0.00    -0.455 OA
BRANCH  20  23
ATOM     21  N   UNL     1      35.205 -20.293 -19.856  0.00  0.00    -0.368 NA
ATOM     22  N   UNL     1      32.659 -21.398 -19.760  0.00  0.00    -0.257 NA
ATOM     23  C   UNL     1      34.217 -19.861 -20.656  0.00  0.00    +0.278 C 
ATOM     24  C   UNL     1      32.962 -20.402 -20.612  0.00  0.00    +0.224 C 
ATOM     25  C   UNL     1      34.921 -21.287 -18.997  0.00  0.00    +0.152 C 
ATOM     26  C   UNL     1      33.632 -21.848 -18.949  0.00  0.00    +0.106 C 
ATOM     27  C   UNL     1      35.906 -21.778 -18.142  0.00  0.00    +0.034 C 
ATOM     28  C   UNL     1      33.374 -22.877 -18.046  0.00  0.00    +0.021 C 
ATOM     29  C   UNL     1      35.637 -22.809 -17.243  0.00  0.00    +0.003 C 
ATOM     30  C   UNL     1      34.365 -23.361 -17.195  0.00  0.00    +0.002 C 
ENDBRANCH  20  23
ENDBRANCH   4  20
TORSDOF 4
ENDMDL
MODEL 2
REMARK VINA RESULT:      -8.7      6.511     13.029
REMARK  Name = 11955614
REMARK  4 active torsions:
REMARK  status: ('A' for Active; 'I' for Inactive)
REMARK    1  A    between atoms: C_4  and  O_20
REMARK    2  A    between atoms: C_14  and  O_16
REMARK    3  A    between atoms: C_15  and  O_18
REMARK    4  A    between atoms: O_20  and  C_23
REMARK                            x       y       z     vdW  Elec       q    Type
REMARK                         _______ _______ _______ _____ _____    ______ ____
ROOT
ATOM      1  N   UNL     1      32.012  -8.546 -22.181  0.00  0.00    -0.290 N 
ATOM      2  N   UNL     1      31.213 -10.123 -20.679  0.00  0.00    -0.230 NA
ATOM      3  N   UNL     1      31.588 -12.470 -21.070  0.00  0.00    -0.248 NA
ATOM      4  C   UNL     1      31.778  -6.520 -23.362  0.00  0.00    +0.190 C 
ATOM      5  C   UNL     1      32.670  -6.287 -22.153  0.00  0.00    +0.067 C 
ATOM      6  C   UNL     1      31.057  -7.827 -23.027  0.00  0.00    +0.136 C 
ATOM      7  C   UNL     1      33.127  -7.696 -21.776  0.00  0.00    +0.096 C 
ATOM      8  C   UNL     1      31.878  -9.871 -21.820  0.00  0.00    +0.130 C 
ATOM      9  C   UNL     1      32.425 -10.859 -22.636  0.00  0.00    +0.048 C 
ATOM     10  C   UNL     1      32.249 -12.184 -22.205  0.00  0.00    +0.066 C 
ATOM     11  C   UNL     1      33.117 -10.570 -23.824  0.00  0.00    +0.044 C 
ATOM     12  C   UNL     1      32.782 -13.199 -22.995  0.00  0.00    +0.112 C 
ATOM     13  C   UNL     1      31.107 -11.425 -20.368  0.00  0.00    +0.252 C 
ATOM     14  C   UNL     1      33.640 -11.605 -24.594  0.00  0.00    +0.169 C 
ATOM     15  C   UNL     1      33.471 -12.922 -24.178  0.00  0.00    +0.156 C 
ENDROOT
BRANCH  14  16
ATOM     16  O   UNL     1      34.308 -11.320 -25.745  0.00  0.00    -0.469 OA
ATOM     17  C   UNL     1      35.377 -10.378 -25.658  0.00  0.00    +0.253 C 
ENDBRANCH  14  16
BRANCH  15  18
ATOM     18  O   UNL     1      33.973 -13.951 -24.916  0.00  0.00    -0.472 OA
ATOM     19  C   UNL     1      33.077 -14.601 -25.816  0.00  0.00    +0.252 C 
ENDBRANCH  15  18
BRANCH   4  20
ATOM     20  O   UNL     1      32.570  -6.707 -24.529  0.00  0.00    -0.455 OA
BRANCH  20  23
ATOM     21  N   UNL     1      33.903  -5.578 -26.057  0.00  0.00    -0.368 NA
ATOM     22  N   UNL     1      32.086  -3.477 -26.072  0.00  0.00    -0.257 NA
ATOM     23  C   UNL     1      32.789  -5.603 -25.309  0.00  0.00    +0.278 C 
ATOM     24  C   UNL     1      31.891  -4.571 -25.313  0.00  0.00    +0.224 C 
ATOM     25  C   UNL     1      34.115  -4.494 -26.823  0.00  0.00    +0.152 C 
ATOM     26  C   UNL     1      33.196  -3.429 -26.830  0.00  0.00    +0.106 C 
ATOM     27  C   UNL     1      35.254  -4.410 -27.621  0.00  0.00    +0.034 C 
ATOM     28  C   UNL     1      33.448  -2.321 -27.635  0.00  0.00    +0.021 C 
ATOM     29  C   UNL     1      35.497  -3.297 -28.423  0.00  0.00    +0.003 C 
ATOM     30  C   UNL     1      34.590  -2.247 -28.430  0.00  0.00    +0.002 C 
ENDBRANCH  20  23
ENDBRANCH   4  20
TORSDOF 4
ENDMDL
MODEL 3
REMARK VINA RESULT:      -8.5      6.473     13.119
REMARK  Name = 11955614
REMARK  4 active torsions:
REMARK  status: ('A' for Active; 'I' for Inactive)
REMARK    1  A    between atoms: C_4  and  O_20
REMARK    2  A    between atoms: C_14  and  O_16
REMARK    3  A    between atoms: C_15  and  O_18
REMARK    4  A    between atoms: O_20  and  C_23
REMARK                            x       y       z     vdW  Elec       q    Type
REMARK                         _______ _______ _______ _____ _____    ______ ____
ROOT
ATOM      1  N   UNL     1      32.076  -8.599 -21.800  0.00  0.00    -0.290 N 
ATOM      2  N   UNL     1      31.177 -10.260 -20.454  0.00  0.00    -0.230 NA
ATOM      3  N   UNL     1      31.499 -12.581 -21.013  0.00  0.00    -0.248 NA
ATOM      4  C   UNL     1      31.943  -6.481 -22.826  0.00  0.00    +0.190 C 
ATOM      5  C   UNL     1      32.797  -6.370 -21.573  0.00  0.00    +0.067 C 
ATOM      6  C   UNL     1      31.174  -7.786 -22.619  0.00  0.00    +0.136 C 
ATOM      7  C   UNL     1      33.199  -7.818 -21.292  0.00  0.00    +0.096 C 
ATOM      8  C   UNL     1      31.891  -9.942 -21.549  0.00  0.00    +0.130 C 
ATOM      9  C   UNL     1      32.439 -10.881 -22.419  0.00  0.00    +0.048 C 
ATOM     10  C   UNL     1      32.209 -12.229 -22.100  0.00  0.00    +0.066 C 
ATOM     11  C   UNL     1      33.182 -10.524 -23.557  0.00  0.00    +0.044 C 
ATOM     12  C   UNL     1      32.741 -13.197 -22.947  0.00  0.00    +0.112 C 
ATOM     13  C   UNL     1      31.023 -11.579 -20.249  0.00  0.00    +0.252 C 
ATOM     14  C   UNL     1      33.703 -11.513 -24.387  0.00  0.00    +0.169 C 
ATOM     15  C   UNL     1      33.480 -12.851 -24.081  0.00  0.00    +0.156 C 
ENDROOT
BRANCH  14  16
ATOM     16  O   UNL     1      34.420 -11.161 -25.488  0.00  0.00    -0.469 OA
ATOM     17  C   UNL     1      35.364 -10.100 -25.337  0.00  0.00    +0.253 C 
ENDBRANCH  14  16
BRANCH  15  18
ATOM     18  O   UNL     1      33.979 -13.836 -24.880  0.00  0.00    -0.472 OA
ATOM     19  C   UNL     1      33.036 -14.692 -25.520  0.00  0.00    +0.252 C 
ENDBRANCH  15  18
BRANCH   4  20
ATOM     20  O   UNL     1      32.772  -6.603 -23.977  0.00  0.00    -0.455 OA
BRANCH  20  23
ATOM     21  N   UNL     1      31.674  -4.716 -24.768  0.00  0.00    -0.368 NA
ATOM     22  N   UNL     1      33.340  -4.695 -26.991  0.00  0.00    -0.257 NA
ATOM     23  C   UNL     1      32.635  -5.639 -24.940  0.00  0.00    +0.278 C 
ATOM     24  C   UNL     1      33.457  -5.633 -26.033  0.00  0.00    +0.224 C 
ATOM     25  C   UNL     1      31.542  -3.771 -25.714  0.00  0.00    +0.152 C 
ATOM     26  C   UNL     1      32.385  -3.760 -26.841  0.00  0.00    +0.106 C 
ATOM     27  C   UNL     1      30.564  -2.787 -25.592  0.00  0.00    +0.034 C 
ATOM     28  C   UNL     1      32.220  -2.766 -27.801  0.00  0.00    +0.021 C 
ATOM     29  C   UNL     1      30.407  -1.796 -26.559  0.00  0.00    +0.003 C 
ATOM     30  C   UNL     1      31.238  -1.786 -27.669  0.00  0.00    +0.002 C 
ENDBRANCH  20  23
ENDBRANCH   4  20
TORSDOF 4
ENDMDL
MODEL 4
REMARK VINA RESULT:      -8.0      4.681     10.546
REMARK  Name = 11955614
REMARK  4 active torsions:
REMARK  status: ('A' for Active; 'I' for Inactive)
REMARK    1  A    between atoms: C_4  and  O_20
REMARK    2  A    between atoms: C_14  and  O_16
REMARK    3  A    between atoms: C_15  and  O_18
REMARK    4  A    between atoms: O_20  and  C_23
REMARK                            x       y       z     vdW  Elec       q    Type
REMARK                         _______ _______ _______ _____ _____    ______ ____
ROOT
ATOM      1  N   UNL     1      33.084 -23.233 -17.133  0.00  0.00    -0.290 N 
ATOM      2  N   UNL     1      31.697 -24.211 -15.552  0.00  0.00    -0.230 NA
ATOM      3  N   UNL     1      32.524 -24.685 -13.339  0.00  0.00    -0.248 NA
ATOM      4  C   UNL     1      33.848 -23.014 -19.352  0.00  0.00    +0.190 C 
ATOM      5  C   UNL     1      32.866 -21.891 -19.054  0.00  0.00    +0.067 C 
ATOM      6  C   UNL     1      33.557 -24.042 -18.258  0.00  0.00    +0.136 C 
ATOM      7  C   UNL     1      32.831 -21.850 -17.527  0.00  0.00    +0.096 C 
ATOM      8  C   UNL     1      32.911 -23.716 -15.853  0.00  0.00    +0.130 C 
ATOM      9  C   UNL     1      33.976 -23.671 -14.956  0.00  0.00    +0.048 C 
ATOM     10  C   UNL     1      33.726 -24.183 -13.672  0.00  0.00    +0.066 C 
ATOM     11  C   UNL     1      35.236 -23.149 -15.294  0.00  0.00    +0.044 C 
ATOM     12  C   UNL     1      34.767 -24.155 -12.748  0.00  0.00    +0.112 C 
ATOM     13  C   UNL     1      31.575 -24.671 -14.296  0.00  0.00    +0.252 C 
ATOM     14  C   UNL     1      36.259 -23.133 -14.350  0.00  0.00    +0.169 C 
ATOM     15  C   UNL     1      36.023 -23.638 -13.075  0.00  0.00    +0.156 C 
ENDROOT
BRANCH  14  16
ATOM     16  O   UNL     1      37.478 -22.627 -14.683  0.00  0.00    -0.469 OA
ATOM     17  C   UNL     1      37.664 -22.225 -16.040  0.00  0.00    +0.253 C 
ENDBRANCH  14  16
BRANCH  15  18
ATOM     18  O   UNL     1      37.009 -23.634 -12.136  0.00  0.00    -0.472 OA
ATOM     19  C   UNL     1      37.800 -24.815 -12.020  0.00  0.00    +0.252 C 
ENDBRANCH  15  18
BRANCH   4  20
ATOM     20  O   UNL     1      35.185 -22.547 -19.212  0.00  0.00    -0.455 OA
BRANCH  20  23
ATOM     21  N   UNL     1      34.699 -21.001 -20.874  0.00  0.00    -0.368 NA
ATOM     22  N   UNL     1      36.959 -19.550 -20.168  0.00  0.00    -0.257 NA
ATOM     23  C   UNL     1      35.509 -21.395 -19.878  0.00  0.00    +0.278 C 
ATOM     24  C   UNL     1      36.623 -20.684 -19.528  0.00  0.00    +0.224 C 
ATOM     25  C   UNL     1      35.018 -19.869 -21.526  0.00  0.00    +0.152 C 
ATOM     26  C   UNL     1      36.164 -19.134 -21.169  0.00  0.00    +0.106 C 
ATOM     27  C   UNL     1      34.216 -19.409 -22.568  0.00  0.00    +0.034 C 
ATOM     28  C   UNL     1      36.463 -17.967 -21.866  0.00  0.00    +0.021 C 
ATOM     29  C   UNL     1      34.526 -18.240 -23.259  0.00  0.00    +0.003 C 
ATOM     30  C   UNL     1      35.655 -17.515 -22.907  0.00  0.00    +0.002 C 
ENDBRANCH  20  23
ENDBRANCH   4  20
TORSDOF 4
ENDMDL
MODEL 5
REMARK VINA RESULT:      -7.9      6.050     10.667
REMARK  Name = 11955614
REMARK  4 active torsions:
REMARK  status: ('A' for Active; 'I' for Inactive)
REMARK    1  A    between atoms: C_4  and  O_20
REMARK    2  A    between atoms: C_14  and  O_16
REMARK    3  A    between atoms: C_15  and  O_18
REMARK    4  A    between atoms: O_20  and  C_23
REMARK                            x       y       z     vdW  Elec       q    Type
REMARK                         _______ _______ _______ _____ _____    ______ ____
ROOT
ATOM      1  N   UNL     1      31.646  -7.126 -22.764  0.00  0.00    -0.290 N 
ATOM      2  N   UNL     1      30.566  -5.243 -21.948  0.00  0.00    -0.230 NA
ATOM      3  N   UNL     1      30.688  -3.158 -23.151  0.00  0.00    -0.248 NA
ATOM      4  C   UNL     1      32.882  -9.104 -22.423  0.00  0.00    +0.190 C 
ATOM      5  C   UNL     1      31.419  -9.464 -22.626  0.00  0.00    +0.067 C 
ATOM      6  C   UNL     1      32.837  -7.617 -22.068  0.00  0.00    +0.136 C 
ATOM      7  C   UNL     1      30.840  -8.219 -23.298  0.00  0.00    +0.096 C 
ATOM      8  C   UNL     1      31.332  -5.791 -22.909  0.00  0.00    +0.130 C 
ATOM      9  C   UNL     1      31.811  -5.093 -24.015  0.00  0.00    +0.048 C 
ATOM     10  C   UNL     1      31.451  -3.737 -24.094  0.00  0.00    +0.066 C 
ATOM     11  C   UNL     1      32.609  -5.688 -25.006  0.00  0.00    +0.044 C 
ATOM     12  C   UNL     1      31.911  -3.006 -25.186  0.00  0.00    +0.112 C 
ATOM     13  C   UNL     1      30.286  -3.941 -22.130  0.00  0.00    +0.252 C 
ATOM     14  C   UNL     1      33.055  -4.933 -26.087  0.00  0.00    +0.169 C 
ATOM     15  C   UNL     1      32.706  -3.590 -26.176  0.00  0.00    +0.156 C 
ENDROOT
BRANCH  14  16
ATOM     16  O   UNL     1      33.829  -5.515 -27.043  0.00  0.00    -0.469 OA
ATOM     17  C   UNL     1      35.226  -5.225 -27.013  0.00  0.00    +0.253 C 
ENDBRANCH  14  16
BRANCH  15  18
ATOM     18  O   UNL     1      33.132  -2.831 -27.224  0.00  0.00    -0.472 OA
ATOM     19  C   UNL     1      32.232  -2.673 -28.319  0.00  0.00    +0.252 C 
ENDBRANCH  15  18
BRANCH   4  20
ATOM     20  O   UNL     1      33.604  -9.273 -23.637  0.00  0.00    -0.455 OA
BRANCH  20  23
ATOM     21  N   UNL     1      33.575 -11.574 -23.322  0.00  0.00    -0.368 NA
ATOM     22  N   UNL     1      33.709 -11.939 -26.073  0.00  0.00    -0.257 NA
ATOM     23  C   UNL     1      33.623 -10.534 -24.172  0.00  0.00    +0.278 C 
ATOM     24  C   UNL     1      33.689 -10.710 -25.526  0.00  0.00    +0.224 C 
ATOM     25  C   UNL     1      33.594 -12.810 -23.849  0.00  0.00    +0.152 C 
ATOM     26  C   UNL     1      33.663 -12.996 -25.242  0.00  0.00    +0.106 C 
ATOM     27  C   UNL     1      33.547 -13.927 -23.019  0.00  0.00    +0.034 C 
ATOM     28  C   UNL     1      33.680 -14.291 -25.753  0.00  0.00    +0.021 C 
ATOM     29  C   UNL     1      33.565 -15.219 -23.541  0.00  0.00    +0.003 C 
ATOM     30  C   UNL     1      33.632 -15.402 -24.914  0.00  0.00    +0.002 C 
ENDBRANCH  20  23
ENDBRANCH   4  20
TORSDOF 4
ENDMDL
MODEL 6
REMARK VINA RESULT:      -7.5      5.702     11.911
REMARK  Name = 11955614
REMARK  4 active torsions:
REMARK  status: ('A' for Active; 'I' for Inactive)
REMARK    1  A    between atoms: C_4  and  O_20
REMARK    2  A    between atoms: C_14  and  O_16
REMARK    3  A    between atoms: C_15  and  O_18
REMARK    4  A    between atoms: O_20  and  C_23
REMARK                            x       y       z     vdW  Elec       q    Type
REMARK                         _______ _______ _______ _____ _____    ______ ____
ROOT
ATOM      1  N   UNL     1      34.263 -23.848 -14.072  0.00  0.00    -0.290 N 
ATOM      2  N   UNL     1      34.457 -24.320 -11.809  0.00  0.00    -0.230 NA
ATOM      3  N   UNL     1      36.612 -24.817 -10.854  0.00  0.00    -0.248 NA
ATOM      4  C   UNL     1      33.101 -24.000 -16.117  0.00  0.00    +0.190 C 
ATOM      5  C   UNL     1      32.816 -22.646 -15.486  0.00  0.00    +0.067 C 
ATOM      6  C   UNL     1      33.628 -24.834 -14.949  0.00  0.00    +0.136 C 
ATOM      7  C   UNL     1      33.954 -22.481 -14.478  0.00  0.00    +0.096 C 
ATOM      8  C   UNL     1      35.067 -24.173 -12.999  0.00  0.00    +0.130 C 
ATOM      9  C   UNL     1      36.437 -24.331 -13.195  0.00  0.00    +0.048 C 
ATOM     10  C   UNL     1      37.190 -24.663 -12.057  0.00  0.00    +0.066 C 
ATOM     11  C   UNL     1      37.051 -24.172 -14.449  0.00  0.00    +0.044 C 
ATOM     12  C   UNL     1      38.564 -24.829 -12.214  0.00  0.00    +0.112 C 
ATOM     13  C   UNL     1      35.278 -24.636 -10.794  0.00  0.00    +0.252 C 
ATOM     14  C   UNL     1      38.427 -24.344 -14.577  0.00  0.00    +0.169 C 
ATOM     15  C   UNL     1      39.183 -24.674 -13.457  0.00  0.00    +0.156 C 
ENDROOT
BRANCH  14  16
ATOM     16  O   UNL     1      39.016 -24.191 -15.794  0.00  0.00    -0.469 OA
ATOM     17  C   UNL     1      38.598 -23.076 -16.581  0.00  0.00    +0.253 C 
ENDBRANCH  14  16
BRANCH  15  18
ATOM     18  O   UNL     1      40.530 -24.848 -13.559  0.00  0.00    -0.472 OA
ATOM     19  C   UNL     1      40.986 -26.096 -14.078  0.00  0.00    +0.252 C 
ENDBRANCH  15  18
BRANCH   4  20
ATOM     20  O   UNL     1      34.120 -23.878 -17.103  0.00  0.00    -0.455 OA
BRANCH  20  23
ATOM     21  N   UNL     1      35.094 -22.336 -18.540  0.00  0.00    -0.368 NA
ATOM     22  N   UNL     1      32.568 -21.436 -19.265  0.00  0.00    -0.257 NA
ATOM     23  C   UNL     1      33.977 -22.867 -18.016  0.00  0.00    +0.278 C 
ATOM     24  C   UNL     1      32.732 -22.427 -18.370  0.00  0.00    +0.224 C 
ATOM     25  C   UNL     1      34.951 -21.345 -19.436  0.00  0.00    +0.152 C 
ATOM     26  C   UNL     1      33.671 -20.888 -19.803  0.00  0.00    +0.106 C 
ATOM     27  C   UNL     1      36.072 -20.754 -20.015  0.00  0.00    +0.034 C 
ATOM     28  C   UNL     1      33.561 -19.859 -20.735  0.00  0.00    +0.021 C 
ATOM     29  C   UNL     1      35.950 -19.725 -20.946  0.00  0.00    +0.003 C 
ATOM     30  C   UNL     1      34.689 -19.275 -21.308  0.00  0.00    +0.002 C 
ENDBRANCH  20  23
ENDBRANCH   4  20
TORSDOF 4
ENDMDL
MODEL 7
REMARK VINA RESULT:      -7.4      3.986      7.320
REMARK  Name = 11955614
REMARK  4 active torsions:
REMARK  status: ('A' for Active; 'I' for Inactive)
REMARK    1  A    between atoms: C_4  and  O_20
REMARK    2  A    between atoms: C_14  and  O_16
REMARK    3  A    between atoms: C_15  and  O_18
REMARK    4  A    between atoms: O_20  and  C_23
REMARK                            x       y       z     vdW  Elec       q    Type
REMARK                         _______ _______ _______ _____ _____    ______ ____
ROOT
ATOM      1  N   UNL     1      31.886 -10.313 -21.093  0.00  0.00    -0.290 N 
ATOM      2  N   UNL     1      31.548  -8.155 -20.312  0.00  0.00    -0.230 NA
ATOM      3  N   UNL     1      32.494  -6.277 -21.489  0.00  0.00    -0.248 NA
ATOM      4  C   UNL     1      32.279 -12.606 -20.711  0.00  0.00    +0.190 C 
ATOM      5  C   UNL     1      30.798 -12.397 -20.987  0.00  0.00    +0.067 C 
ATOM      6  C   UNL     1      32.774 -11.206 -20.346  0.00  0.00    +0.136 C 
ATOM      7  C   UNL     1      30.756 -11.032 -21.674  0.00  0.00    +0.096 C 
ATOM      8  C   UNL     1      32.099  -8.958 -21.241  0.00  0.00    +0.130 C 
ATOM      9  C   UNL     1      32.855  -8.499 -22.317  0.00  0.00    +0.048 C 
ATOM     10  C   UNL     1      33.030  -7.108 -22.401  0.00  0.00    +0.066 C 
ATOM     11  C   UNL     1      33.419  -9.358 -23.275  0.00  0.00    +0.044 C 
ATOM     12  C   UNL     1      33.780  -6.611 -23.463  0.00  0.00    +0.112 C 
ATOM     13  C   UNL     1      31.782  -6.845 -20.496  0.00  0.00    +0.252 C 
ATOM     14  C   UNL     1      34.165  -8.834 -24.326  0.00  0.00    +0.169 C 
ATOM     15  C   UNL     1      34.346  -7.458 -24.420  0.00  0.00    +0.156 C 
ENDROOT
BRANCH  14  16
ATOM     16  O   UNL     1      34.710  -9.672 -25.250  0.00  0.00    -0.469 OA
ATOM     17  C   UNL     1      34.390 -11.058 -25.139  0.00  0.00    +0.253 C 
ENDBRANCH  14  16
BRANCH  15  18
ATOM     18  O   UNL     1      35.073  -6.923 -25.440  0.00  0.00    -0.472 OA
ATOM     19  C   UNL     1      34.535  -5.770 -26.085  0.00  0.00    +0.252 C 
ENDBRANCH  15  18
BRANCH   4  20
ATOM     20  O   UNL     1      32.941 -13.043 -21.892  0.00  0.00    -0.455 OA
BRANCH  20  23
ATOM     21  N   UNL     1      33.709 -14.963 -22.949  0.00  0.00    -0.368 NA
ATOM     22  N   UNL     1      34.771 -15.849 -20.540  0.00  0.00    -0.257 NA
ATOM     23  C   UNL     1      33.599 -14.242 -21.821  0.00  0.00    +0.278 C 
ATOM     24  C   UNL     1      34.120 -14.675 -20.633  0.00  0.00    +0.224 C 
ATOM     25  C   UNL     1      34.356 -16.138 -22.876  0.00  0.00    +0.152 C 
ATOM     26  C   UNL     1      34.893 -16.588 -21.656  0.00  0.00    +0.106 C 
ATOM     27  C   UNL     1      34.502 -16.930 -24.013  0.00  0.00    +0.034 C 
ATOM     28  C   UNL     1      35.557 -17.812 -21.619  0.00  0.00    +0.021 C 
ATOM     29  C   UNL     1      35.168 -18.153 -23.964  0.00  0.00    +0.003 C 
ATOM     30  C   UNL     1      35.698 -18.596 -22.762  0.00  0.00    +0.002 C 
ENDBRANCH  20  23
ENDBRANCH   4  20
TORSDOF 4
ENDMDL
MODEL 8
REMARK VINA RESULT:      -7.1      2.552      4.264
REMARK  Name = 11955614
REMARK  4 active torsions:
REMARK  status: ('A' for Active; 'I' for Inactive)
REMARK    1  A    between atoms: C_4  and  O_20
REMARK    2  A    between atoms: C_14  and  O_16
REMARK    3  A    between atoms: C_15  and  O_18
REMARK    4  A    between atoms: O_20  and  C_23
REMARK                            x       y       z     vdW  Elec       q    Type
REMARK                         _______ _______ _______ _____ _____    ______ ____
ROOT
ATOM      1  N   UNL     1      33.111 -13.979 -21.680  0.00  0.00    -0.290 N 
ATOM      2  N   UNL     1      32.823 -11.689 -21.911  0.00  0.00    -0.230 NA
ATOM      3  N   UNL     1      33.025 -10.654 -24.077  0.00  0.00    -0.248 NA
ATOM      4  C   UNL     1      33.898 -15.847 -20.475  0.00  0.00    +0.190 C 
ATOM      5  C   UNL     1      32.407 -15.688 -20.223  0.00  0.00    +0.067 C 
ATOM      6  C   UNL     1      34.316 -14.477 -21.013  0.00  0.00    +0.136 C 
ATOM      7  C   UNL     1      31.945 -14.805 -21.382  0.00  0.00    +0.096 C 
ATOM      8  C   UNL     1      33.085 -12.870 -22.499  0.00  0.00    +0.130 C 
ATOM      9  C   UNL     1      33.325 -13.023 -23.863  0.00  0.00    +0.048 C 
ATOM     10  C   UNL     1      33.283 -11.850 -24.634  0.00  0.00    +0.066 C 
ATOM     11  C   UNL     1      33.597 -14.269 -24.455  0.00  0.00    +0.044 C 
ATOM     12  C   UNL     1      33.519 -11.963 -26.001  0.00  0.00    +0.112 C 
ATOM     13  C   UNL     1      32.808 -10.638 -22.747  0.00  0.00    +0.252 C 
ATOM     14  C   UNL     1      33.828 -14.352 -25.825  0.00  0.00    +0.169 C 
ATOM     15  C   UNL     1      33.790 -13.197 -26.598  0.00  0.00    +0.156 C 
ENDROOT
BRANCH  14  16
ATOM     16  O   UNL     1      34.092 -15.561 -26.392  0.00  0.00    -0.469 OA
ATOM     17  C   UNL     1      34.233 -16.675 -25.510  0.00  0.00    +0.253 C 
ENDBRANCH  14  16
BRANCH  15  18
ATOM     18  O   UNL     1      34.015 -13.255 -27.940  0.00  0.00    -0.472 OA
ATOM     19  C   UNL     1      35.347 -13.010 -28.386  0.00  0.00    +0.252 C 
ENDBRANCH  15  18
BRANCH   4  20
ATOM     20  O   UNL     1      34.125 -16.832 -21.477  0.00  0.00    -0.455 OA
BRANCH  20  23
ATOM     21  N   UNL     1      33.612 -18.935 -20.637  0.00  0.00    -0.368 NA
ATOM     22  N   UNL     1      36.315 -19.574 -20.623  0.00  0.00    -0.257 NA
ATOM     23  C   UNL     1      34.547 -18.062 -21.046  0.00  0.00    +0.278 C 
ATOM     24  C   UNL     1      35.879 -18.372 -21.041  0.00  0.00    +0.224 C 
ATOM     25  C   UNL     1      34.029 -20.141 -20.216  0.00  0.00    +0.152 C 
ATOM     26  C   UNL     1      35.398 -20.465 -20.208  0.00  0.00    +0.106 C 
ATOM     27  C   UNL     1      33.106 -21.089 -19.779  0.00  0.00    +0.034 C 
ATOM     28  C   UNL     1      35.793 -21.725 -19.765  0.00  0.00    +0.021 C 
ATOM     29  C   UNL     1      33.513 -22.347 -19.337  0.00  0.00    +0.003 C 
ATOM     30  C   UNL     1      34.863 -22.666 -19.330  0.00  0.00    +0.002 C 
ENDBRANCH  20  23
ENDBRANCH   4  20
TORSDOF 4
ENDMDL
MODEL 9
REMARK VINA RESULT:      -6.9      2.701      8.943
REMARK  Name = 11955614
REMARK  4 active torsions:
REMARK  status: ('A' for Active; 'I' for Inactive)
REMARK    1  A    between atoms: C_4  and  O_20
REMARK    2  A    between atoms: C_14  and  O_16
REMARK    3  A    between atoms: C_15  and  O_18
REMARK    4  A    between atoms: O_20  and  C_23
REMARK                            x       y       z     vdW  Elec       q    Type
REMARK                         _______ _______ _______ _____ _____    ______ ____
ROOT
ATOM      1  N   UNL     1      33.762 -15.538 -24.950  0.00  0.00    -0.290 N 
ATOM      2  N   UNL     1      34.061 -17.634 -25.896  0.00  0.00    -0.230 NA
ATOM      3  N   UNL     1      34.894 -19.459 -24.561  0.00  0.00    -0.248 NA
ATOM      4  C   UNL     1      33.856 -13.186 -25.078  0.00  0.00    +0.190 C 
ATOM      5  C   UNL     1      32.423 -13.636 -25.312  0.00  0.00    +0.067 C 
ATOM      6  C   UNL     1      34.673 -14.455 -25.325  0.00  0.00    +0.136 C 
ATOM      7  C   UNL     1      32.401 -15.053 -24.738  0.00  0.00    +0.096 C 
ATOM      8  C   UNL     1      34.145 -16.854 -24.803  0.00  0.00    +0.130 C 
ATOM      9  C   UNL     1      34.591 -17.301 -23.561  0.00  0.00    +0.048 C 
ATOM     10  C   UNL     1      34.966 -18.653 -23.488  0.00  0.00    +0.066 C 
ATOM     11  C   UNL     1      34.670 -16.466 -22.434  0.00  0.00    +0.044 C 
ATOM     12  C   UNL     1      35.417 -19.135 -22.263  0.00  0.00    +0.112 C 
ATOM     13  C   UNL     1      34.445 -18.908 -25.706  0.00  0.00    +0.252 C 
ATOM     14  C   UNL     1      35.125 -16.976 -21.221  0.00  0.00    +0.169 C 
ATOM     15  C   UNL     1      35.500 -18.312 -21.136  0.00  0.00    +0.156 C 
ENDROOT
BRANCH  14  16
ATOM     16  O   UNL     1      35.200 -16.162 -20.132  0.00  0.00    -0.469 OA
ATOM     17  C   UNL     1      34.548 -14.895 -20.223  0.00  0.00    +0.253 C 
ENDBRANCH  14  16
BRANCH  15  18
ATOM     18  O   UNL     1      35.949 -18.832 -19.960  0.00  0.00    -0.472 OA
ATOM     19  C   UNL     1      36.488 -20.152 -19.998  0.00  0.00    +0.252 C 
ENDBRANCH  15  18
BRANCH   4  20
ATOM     20  O   UNL     1      34.029 -12.774 -23.728  0.00  0.00    -0.455 OA
BRANCH  20  23
ATOM     21  N   UNL     1      34.165 -10.460 -23.869  0.00  0.00    -0.368 NA
ATOM     22  N   UNL     1      31.919 -10.241 -22.250  0.00  0.00    -0.257 NA
ATOM     23  C   UNL     1      33.531 -11.543 -23.391  0.00  0.00    +0.278 C 
ATOM     24  C   UNL     1      32.425 -11.440 -22.593  0.00  0.00    +0.224 C 
ATOM     25  C   UNL     1      33.674  -9.254 -23.538  0.00  0.00    +0.152 C 
ATOM     26  C   UNL     1      32.537  -9.143 -22.717  0.00  0.00    +0.106 C 
ATOM     27  C   UNL     1      34.289  -8.094 -24.004  0.00  0.00    +0.034 C 
ATOM     28  C   UNL     1      32.056  -7.876 -22.394  0.00  0.00    +0.021 C 
ATOM     29  C   UNL     1      33.799  -6.831 -23.674  0.00  0.00    +0.003 C 
ATOM     30  C   UNL     1      32.678  -6.722 -22.865  0.00  0.00    +0.002 C 
ENDBRANCH  20  23
ENDBRANCH   4  20
TORSDOF 4
ENDMDL
