MODEL 1
REMARK VINA RESULT:     -12.2      0.000      0.000
REMARK  Name = 24882195
REMARK  2 active torsions:
REMARK  status: ('A' for Active; 'I' for Inactive)
REMARK    1  A    between atoms: C_5  and  N_15
REMARK    2  A    between atoms: N_15  and  C_21
REMARK                            x       y       z     vdW  Elec       q    Type
REMARK                         _______ _______ _______ _____ _____    ______ ____
ROOT
ATOM      1  C   UNL     1      34.491 -19.884 -20.812  0.00  0.00    +0.001 C 
ATOM      2  C   UNL     1      35.847 -20.006 -20.439  0.00  0.00    +0.000 C 
ATOM      3  C   UNL     1      33.876 -21.546 -19.120  0.00  0.00    +0.000 C 
ATOM      4  C   UNL     1      35.233 -21.668 -18.746  0.00  0.00    +0.000 C 
ATOM      5  C   UNL     1      35.111 -18.235 -22.490  0.00  0.00    +0.049 C 
ATOM      6  C   UNL     1      33.523 -20.657 -20.148  0.00  0.00    +0.000 C 
ATOM      7  C   UNL     1      34.139 -18.995 -21.840  0.00  0.00    +0.015 C 
ATOM      8  C   UNL     1      36.201 -20.896 -19.411  0.00  0.00    +0.000 C 
ATOM      9  C   UNL     1      36.815 -19.234 -21.103  0.00  0.00    +0.001 C 
ATOM     10  C   UNL     1      36.448 -18.354 -22.122  0.00  0.00    +0.015 C 
ATOM     11  C   UNL     1      32.910 -22.319 -18.456  0.00  0.00    +0.000 C 
ATOM     12  C   UNL     1      35.586 -22.558 -17.719  0.00  0.00    +0.000 C 
ATOM     13  C   UNL     1      33.276 -23.199 -17.437  0.00  0.00    +0.000 C 
ATOM     14  C   UNL     1      34.612 -23.318 -17.069  0.00  0.00    +0.000 C 
ENDROOT
BRANCH   5  15
ATOM     15  N   UNL     1      34.740 -17.345 -23.521  0.00  0.00    -0.299 N 
ATOM     16  H   UNL     1      35.004 -17.611 -24.431  0.00  0.00    +0.153 HD
BRANCH  15  21
ATOM     17  N   UNL     1      33.689 -15.547 -24.616  0.00  0.00    -0.106 N 
ATOM     18  N   UNL     1      32.655 -13.707 -23.463  0.00  0.00    -0.340 NA
ATOM     19  N   UNL     1      33.894 -15.949 -25.897  0.00  0.00    -0.139 NA
ATOM     20  N   UNL     1      32.762 -13.974 -25.872  0.00  0.00    -0.145 NA
ATOM     21  C   UNL     1      34.071 -16.176 -23.424  0.00  0.00    +0.138 C 
ATOM     22  C   UNL     1      33.754 -15.583 -22.262  0.00  0.00    +0.061 C 
ATOM     23  C   UNL     1      32.992 -14.335 -24.625  0.00  0.00    +0.174 C 
ATOM     24  C   UNL     1      33.010 -14.291 -22.357  0.00  0.00    +0.125 C 
ATOM     25  C   UNL     1      32.648 -13.614 -21.059  0.00  0.00    +0.068 C 
ATOM     26  C   UNL     1      33.321 -14.975 -26.597  0.00  0.00    +0.230 C 
ENDBRANCH  15  21
ENDBRANCH   5  15
TORSDOF 2
ENDMDL
MODEL 2
REMARK VINA RESULT:     -12.2      6.376     10.458
REMARK  Name = 24882195
REMARK  2 active torsions:
REMARK  status: ('A' for Active; 'I' for Inactive)
REMARK    1  A    between atoms: C_5  and  N_15
REMARK    2  A    between atoms: N_15  and  C_21
REMARK                            x       y       z     vdW  Elec       q    Type
REMARK                         _______ _______ _______ _____ _____    ______ ____
ROOT
ATOM      1  C   UNL     1      34.997 -21.976 -18.247  0.00  0.00    +0.001 C 
ATOM      2  C   UNL     1      33.688 -21.819 -18.753  0.00  0.00    +0.000 C 
ATOM      3  C   UNL     1      35.849 -20.475 -19.986  0.00  0.00    +0.000 C 
ATOM      4  C   UNL     1      34.540 -20.318 -20.493  0.00  0.00    +0.000 C 
ATOM      5  C   UNL     1      34.141 -23.465 -16.523  0.00  0.00    +0.049 C 
ATOM      6  C   UNL     1      36.060 -21.302 -18.870  0.00  0.00    +0.000 C 
ATOM      7  C   UNL     1      35.207 -22.803 -17.132  0.00  0.00    +0.015 C 
ATOM      8  C   UNL     1      33.476 -20.993 -19.870  0.00  0.00    +0.000 C 
ATOM      9  C   UNL     1      32.625 -22.493 -18.130  0.00  0.00    +0.001 C 
ATOM     10  C   UNL     1      32.850 -23.311 -17.022  0.00  0.00    +0.015 C 
ATOM     11  C   UNL     1      36.911 -19.801 -20.610  0.00  0.00    +0.000 C 
ATOM     12  C   UNL     1      34.329 -19.491 -21.608  0.00  0.00    +0.000 C 
ATOM     13  C   UNL     1      36.685 -18.984 -21.718  0.00  0.00    +0.000 C 
ATOM     14  C   UNL     1      35.396 -18.829 -22.216  0.00  0.00    +0.000 C 
ENDROOT
BRANCH   5  15
ATOM     15  N   UNL     1      34.370 -24.292 -15.403  0.00  0.00    -0.299 N 
ATOM     16  H   UNL     1      33.619 -24.871 -15.139  0.00  0.00    +0.153 HD
BRANCH  15  21
ATOM     17  N   UNL     1      36.322 -25.492 -14.867  0.00  0.00    -0.106 N 
ATOM     18  N   UNL     1      37.878 -24.811 -13.165  0.00  0.00    -0.340 NA
ATOM     19  N   UNL     1      36.183 -26.505 -15.761  0.00  0.00    -0.139 NA
ATOM     20  N   UNL     1      38.089 -26.792 -14.549  0.00  0.00    -0.145 NA
ATOM     21  C   UNL     1      35.482 -24.393 -14.644  0.00  0.00    +0.138 C 
ATOM     22  C   UNL     1      35.829 -23.510 -13.695  0.00  0.00    +0.061 C 
ATOM     23  C   UNL     1      37.498 -25.688 -14.136  0.00  0.00    +0.174 C 
ATOM     24  C   UNL     1      37.099 -23.791 -12.958  0.00  0.00    +0.125 C 
ATOM     25  C   UNL     1      37.500 -22.807 -11.889  0.00  0.00    +0.068 C 
ATOM     26  C   UNL     1      37.262 -27.244 -15.525  0.00  0.00    +0.230 C 
ENDBRANCH  15  21
ENDBRANCH   5  15
TORSDOF 2
ENDMDL
MODEL 3
REMARK VINA RESULT:     -12.1      1.403      3.234
REMARK  Name = 24882195
REMARK  2 active torsions:
REMARK  status: ('A' for Active; 'I' for Inactive)
REMARK    1  A    between atoms: C_5  and  N_15
REMARK    2  A    between atoms: N_15  and  C_21
REMARK                            x       y       z     vdW  Elec       q    Type
REMARK                         _______ _______ _______ _____ _____    ______ ____
ROOT
ATOM      1  C   UNL     1      35.649 -20.675 -19.694  0.00  0.00    +0.001 C 
ATOM      2  C   UNL     1      34.309 -21.117 -19.637  0.00  0.00    +0.000 C 
ATOM      3  C   UNL     1      36.173 -22.006 -17.705  0.00  0.00    +0.000 C 
ATOM      4  C   UNL     1      34.834 -22.449 -17.647  0.00  0.00    +0.000 C 
ATOM      5  C   UNL     1      35.118 -19.355 -21.669  0.00  0.00    +0.049 C 
ATOM      6  C   UNL     1      36.563 -21.124 -18.727  0.00  0.00    +0.000 C 
ATOM      7  C   UNL     1      36.037 -19.793 -20.716  0.00  0.00    +0.015 C 
ATOM      8  C   UNL     1      33.918 -21.999 -18.614  0.00  0.00    +0.000 C 
ATOM      9  C   UNL     1      33.395 -20.667 -20.604  0.00  0.00    +0.001 C 
ATOM     10  C   UNL     1      33.797 -19.792 -21.613  0.00  0.00    +0.015 C 
ATOM     11  C   UNL     1      37.087 -22.456 -16.738  0.00  0.00    +0.000 C 
ATOM     12  C   UNL     1      34.444 -23.330 -16.626  0.00  0.00    +0.000 C 
ATOM     13  C   UNL     1      36.685 -23.331 -15.729  0.00  0.00    +0.000 C 
ATOM     14  C   UNL     1      35.365 -23.768 -15.673  0.00  0.00    +0.000 C 
ENDROOT
BRANCH   5  15
ATOM     15  N   UNL     1      35.525 -18.470 -22.689  0.00  0.00    -0.299 N 
ATOM     16  H   UNL     1      36.356 -18.712 -23.158  0.00  0.00    +0.153 HD
BRANCH  15  21
ATOM     17  N   UNL     1      34.699 -16.333 -22.154  0.00  0.00    -0.106 N 
ATOM     18  N   UNL     1      33.683 -14.858 -23.758  0.00  0.00    -0.340 NA
ATOM     19  N   UNL     1      34.999 -16.331 -20.828  0.00  0.00    -0.139 NA
ATOM     20  N   UNL     1      33.999 -14.368 -21.404  0.00  0.00    -0.145 NA
ATOM     21  C   UNL     1      34.927 -17.333 -23.107  0.00  0.00    +0.138 C 
ATOM     22  C   UNL     1      34.541 -17.107 -24.372  0.00  0.00    +0.061 C 
ATOM     23  C   UNL     1      34.088 -15.119 -22.483  0.00  0.00    +0.174 C 
ATOM     24  C   UNL     1      33.895 -15.787 -24.643  0.00  0.00    +0.125 C 
ATOM     25  C   UNL     1      33.455 -15.520 -26.060  0.00  0.00    +0.068 C 
ATOM     26  C   UNL     1      34.560 -15.139 -20.438  0.00  0.00    +0.230 C 
ENDBRANCH  15  21
ENDBRANCH   5  15
TORSDOF 2
ENDMDL
MODEL 4
REMARK VINA RESULT:     -12.1      1.778      3.464
REMARK  Name = 24882195
REMARK  2 active torsions:
REMARK  status: ('A' for Active; 'I' for Inactive)
REMARK    1  A    between atoms: C_5  and  N_15
REMARK    2  A    between atoms: N_15  and  C_21
REMARK                            x       y       z     vdW  Elec       q    Type
REMARK                         _______ _______ _______ _____ _____    ______ ____
ROOT
ATOM      1  C   UNL     1      35.786 -21.571 -18.564  0.00  0.00    +0.001 C 
ATOM      2  C   UNL     1      34.472 -22.046 -18.358  0.00  0.00    +0.000 C 
ATOM      3  C   UNL     1      36.509 -22.678 -16.501  0.00  0.00    +0.000 C 
ATOM      4  C   UNL     1      35.195 -23.154 -16.295  0.00  0.00    +0.000 C 
ATOM      5  C   UNL     1      35.059 -20.475 -20.611  0.00  0.00    +0.049 C 
ATOM      6  C   UNL     1      36.787 -21.893 -17.632  0.00  0.00    +0.000 C 
ATOM      7  C   UNL     1      36.063 -20.786 -19.694  0.00  0.00    +0.015 C 
ATOM      8  C   UNL     1      34.193 -22.831 -17.227  0.00  0.00    +0.000 C 
ATOM      9  C   UNL     1      33.472 -21.724 -19.290  0.00  0.00    +0.001 C 
ATOM     10  C   UNL     1      33.764 -20.943 -20.409  0.00  0.00    +0.015 C 
ATOM     11  C   UNL     1      37.508 -23.000 -15.568  0.00  0.00    +0.000 C 
ATOM     12  C   UNL     1      34.917 -23.939 -15.164  0.00  0.00    +0.000 C 
ATOM     13  C   UNL     1      37.216 -23.781 -14.450  0.00  0.00    +0.000 C 
ATOM     14  C   UNL     1      35.922 -24.250 -14.248  0.00  0.00    +0.000 C 
ENDROOT
BRANCH   5  15
ATOM     15  N   UNL     1      35.355 -19.685 -21.742  0.00  0.00    -0.299 N 
ATOM     16  H   UNL     1      35.850 -20.138 -22.462  0.00  0.00    +0.153 HD
BRANCH  15  21
ATOM     17  N   UNL     1      34.777 -18.007 -23.288  0.00  0.00    -0.106 N 
ATOM     18  N   UNL     1      34.384 -15.715 -22.680  0.00  0.00    -0.340 NA
ATOM     19  N   UNL     1      34.773 -18.769 -24.414  0.00  0.00    -0.139 NA
ATOM     20  N   UNL     1      34.246 -16.614 -24.928  0.00  0.00    -0.145 NA
ATOM     21  C   UNL     1      35.050 -18.389 -21.968  0.00  0.00    +0.138 C 
ATOM     22  C   UNL     1      34.992 -17.451 -21.010  0.00  0.00    +0.061 C 
ATOM     23  C   UNL     1      34.450 -16.691 -23.628  0.00  0.00    +0.174 C 
ATOM     24  C   UNL     1      34.637 -16.069 -21.454  0.00  0.00    +0.125 C 
ATOM     25  C   UNL     1      34.570 -15.004 -20.389  0.00  0.00    +0.068 C 
ATOM     26  C   UNL     1      34.450 -17.886 -25.353  0.00  0.00    +0.230 C 
ENDBRANCH  15  21
ENDBRANCH   5  15
TORSDOF 2
ENDMDL
MODEL 5
REMARK VINA RESULT:     -12.1      6.787     10.891
REMARK  Name = 24882195
REMARK  2 active torsions:
REMARK  status: ('A' for Active; 'I' for Inactive)
REMARK    1  A    between atoms: C_5  and  N_15
REMARK    2  A    between atoms: N_15  and  C_21
REMARK                            x       y       z     vdW  Elec       q    Type
REMARK                         _______ _______ _______ _____ _____    ______ ____
ROOT
ATOM      1  C   UNL     1      35.014 -22.437 -17.714  0.00  0.00    +0.001 C 
ATOM      2  C   UNL     1      33.619 -22.457 -17.935  0.00  0.00    +0.000 C 
ATOM      3  C   UNL     1      35.296 -20.932 -19.626  0.00  0.00    +0.000 C 
ATOM      4  C   UNL     1      33.901 -20.952 -19.848  0.00  0.00    +0.000 C 
ATOM      5  C   UNL     1      34.724 -23.932 -15.815  0.00  0.00    +0.049 C 
ATOM      6  C   UNL     1      35.834 -21.675 -18.563  0.00  0.00    +0.000 C 
ATOM      7  C   UNL     1      35.551 -23.180 -16.650  0.00  0.00    +0.015 C 
ATOM      8  C   UNL     1      33.081 -21.714 -18.999  0.00  0.00    +0.000 C 
ATOM      9  C   UNL     1      32.800 -23.219 -17.086  0.00  0.00    +0.001 C 
ATOM     10  C   UNL     1      33.349 -23.951 -16.032  0.00  0.00    +0.015 C 
ATOM     11  C   UNL     1      36.114 -20.171 -20.476  0.00  0.00    +0.000 C 
ATOM     12  C   UNL     1      33.363 -20.209 -20.912  0.00  0.00    +0.000 C 
ATOM     13  C   UNL     1      35.566 -19.439 -21.529  0.00  0.00    +0.000 C 
ATOM     14  C   UNL     1      34.192 -19.458 -21.746  0.00  0.00    +0.000 C 
ENDROOT
BRANCH   5  15
ATOM     15  N   UNL     1      35.280 -24.672 -14.750  0.00  0.00    -0.299 N 
ATOM     16  H   UNL     1      34.658 -25.267 -14.273  0.00  0.00    +0.153 HD
BRANCH  15  21
ATOM     17  N   UNL     1      36.802 -24.052 -13.066  0.00  0.00    -0.106 N 
ATOM     18  N   UNL     1      39.153 -24.547 -13.149  0.00  0.00    -0.340 NA
ATOM     19  N   UNL     1      35.929 -23.432 -12.229  0.00  0.00    -0.139 NA
ATOM     20  N   UNL     1      38.030 -23.362 -11.355  0.00  0.00    -0.145 NA
ATOM     21  C   UNL     1      36.552 -24.671 -14.298  0.00  0.00    +0.138 C 
ATOM     22  C   UNL     1      37.585 -25.223 -14.953  0.00  0.00    +0.061 C 
ATOM     23  C   UNL     1      38.083 -23.997 -12.509  0.00  0.00    +0.174 C 
ATOM     24  C   UNL     1      38.921 -25.122 -14.292  0.00  0.00    +0.125 C 
ATOM     25  C   UNL     1      40.091 -25.737 -15.017  0.00  0.00    +0.068 C 
ATOM     26  C   UNL     1      36.717 -23.044 -11.232  0.00  0.00    +0.230 C 
ENDBRANCH  15  21
ENDBRANCH   5  15
TORSDOF 2
ENDMDL
MODEL 6
REMARK VINA RESULT:     -11.9      1.685      2.947
REMARK  Name = 24882195
REMARK  2 active torsions:
REMARK  status: ('A' for Active; 'I' for Inactive)
REMARK    1  A    between atoms: C_5  and  N_15
REMARK    2  A    between atoms: N_15  and  C_21
REMARK                            x       y       z     vdW  Elec       q    Type
REMARK                         _______ _______ _______ _____ _____    ______ ____
ROOT
ATOM      1  C   UNL     1      34.099 -21.756 -18.825  0.00  0.00    +0.001 C 
ATOM      2  C   UNL     1      35.352 -21.976 -18.211  0.00  0.00    +0.000 C 
ATOM      3  C   UNL     1      32.994 -22.958 -16.998  0.00  0.00    +0.000 C 
ATOM      4  C   UNL     1      34.246 -23.178 -16.384  0.00  0.00    +0.000 C 
ATOM      5  C   UNL     1      35.206 -20.564 -20.635  0.00  0.00    +0.049 C 
ATOM      6  C   UNL     1      32.936 -22.250 -18.210  0.00  0.00    +0.000 C 
ATOM      7  C   UNL     1      34.043 -21.049 -20.037  0.00  0.00    +0.015 C 
ATOM      8  C   UNL     1      35.410 -22.684 -16.999  0.00  0.00    +0.000 C 
ATOM      9  C   UNL     1      36.514 -21.481 -18.826  0.00  0.00    +0.001 C 
ATOM     10  C   UNL     1      36.441 -20.780 -20.030  0.00  0.00    +0.015 C 
ATOM     11  C   UNL     1      31.832 -23.453 -16.383  0.00  0.00    +0.000 C 
ATOM     12  C   UNL     1      34.303 -23.885 -15.172  0.00  0.00    +0.000 C 
ATOM     13  C   UNL     1      31.905 -24.153 -15.179  0.00  0.00    +0.000 C 
ATOM     14  C   UNL     1      33.139 -24.369 -14.575  0.00  0.00    +0.000 C 
ENDROOT
BRANCH   5  15
ATOM     15  N   UNL     1      35.132 -19.855 -21.852  0.00  0.00    -0.299 N 
ATOM     16  H   UNL     1      35.249 -20.394 -22.668  0.00  0.00    +0.153 HD
BRANCH  15  21
ATOM     17  N   UNL     1      34.726 -18.097 -23.363  0.00  0.00    -0.106 N 
ATOM     18  N   UNL     1      34.463 -15.802 -22.696  0.00  0.00    -0.340 NA
ATOM     19  N   UNL     1      34.713 -18.823 -24.512  0.00  0.00    -0.139 NA
ATOM     20  N   UNL     1      34.350 -16.624 -24.976  0.00  0.00    -0.145 NA
ATOM     21  C   UNL     1      34.922 -18.535 -22.047  0.00  0.00    +0.138 C 
ATOM     22  C   UNL     1      34.891 -17.624 -21.062  0.00  0.00    +0.061 C 
ATOM     23  C   UNL     1      34.500 -16.752 -23.672  0.00  0.00    +0.174 C 
ATOM     24  C   UNL     1      34.645 -16.209 -21.474  0.00  0.00    +0.125 C 
ATOM     25  C   UNL     1      34.609 -15.175 -20.378  0.00  0.00    +0.068 C 
ATOM     26  C   UNL     1      34.485 -17.893 -25.434  0.00  0.00    +0.230 C 
ENDBRANCH  15  21
ENDBRANCH   5  15
TORSDOF 2
ENDMDL
MODEL 7
REMARK VINA RESULT:     -11.8      3.940      7.024
REMARK  Name = 24882195
REMARK  2 active torsions:
REMARK  status: ('A' for Active; 'I' for Inactive)
REMARK    1  A    between atoms: C_5  and  N_15
REMARK    2  A    between atoms: N_15  and  C_21
REMARK                            x       y       z     vdW  Elec       q    Type
REMARK                         _______ _______ _______ _____ _____    ______ ____
ROOT
ATOM      1  C   UNL     1      33.229 -14.468 -22.756  0.00  0.00    +0.001 C 
ATOM      2  C   UNL     1      33.095 -14.879 -21.412  0.00  0.00    +0.000 C 
ATOM      3  C   UNL     1      34.288 -16.608 -23.305  0.00  0.00    +0.000 C 
ATOM      4  C   UNL     1      34.153 -17.020 -21.960  0.00  0.00    +0.000 C 
ATOM      5  C   UNL     1      32.177 -12.344 -22.201  0.00  0.00    +0.049 C 
ATOM      6  C   UNL     1      33.825 -15.338 -23.684  0.00  0.00    +0.000 C 
ATOM      7  C   UNL     1      32.767 -13.197 -23.135  0.00  0.00    +0.015 C 
ATOM      8  C   UNL     1      33.558 -16.150 -21.031  0.00  0.00    +0.000 C 
ATOM      9  C   UNL     1      32.499 -14.009 -20.483  0.00  0.00    +0.001 C 
ATOM     10  C   UNL     1      32.044 -12.749 -20.876  0.00  0.00    +0.015 C 
ATOM     11  C   UNL     1      34.883 -17.478 -24.232  0.00  0.00    +0.000 C 
ATOM     12  C   UNL     1      34.616 -18.290 -21.581  0.00  0.00    +0.000 C 
ATOM     13  C   UNL     1      35.338 -18.737 -23.839  0.00  0.00    +0.000 C 
ATOM     14  C   UNL     1      35.205 -19.142 -22.516  0.00  0.00    +0.000 C 
ENDROOT
BRANCH   5  15
ATOM     15  N   UNL     1      31.717 -11.071 -22.599  0.00  0.00    -0.299 N 
ATOM     16  H   UNL     1      30.806 -11.044 -22.970  0.00  0.00    +0.153 HD
BRANCH  15  21
ATOM     17  N   UNL     1      32.269  -9.157 -21.347  0.00  0.00    -0.106 N 
ATOM     18  N   UNL     1      33.636  -7.366 -22.186  0.00  0.00    -0.340 NA
ATOM     19  N   UNL     1      31.607  -9.472 -20.202  0.00  0.00    -0.139 NA
ATOM     20  N   UNL     1      32.647  -7.459 -19.973  0.00  0.00    -0.145 NA
ATOM     21  C   UNL     1      32.362  -9.886 -22.539  0.00  0.00    +0.138 C 
ATOM     22  C   UNL     1      33.081  -9.368 -23.547  0.00  0.00    +0.061 C 
ATOM     23  C   UNL     1      32.899  -7.920 -21.182  0.00  0.00    +0.174 C 
ATOM     24  C   UNL     1      33.723  -8.043 -23.292  0.00  0.00    +0.125 C 
ATOM     25  C   UNL     1      34.532  -7.449 -24.417  0.00  0.00    +0.068 C 
ATOM     26  C   UNL     1      31.870  -8.426 -19.425  0.00  0.00    +0.230 C 
ENDBRANCH  15  21
ENDBRANCH   5  15
TORSDOF 2
ENDMDL
MODEL 8
REMARK VINA RESULT:     -11.8      3.837      6.476
REMARK  Name = 24882195
REMARK  2 active torsions:
REMARK  status: ('A' for Active; 'I' for Inactive)
REMARK    1  A    between atoms: C_5  and  N_15
REMARK    2  A    between atoms: N_15  and  C_21
REMARK                            x       y       z     vdW  Elec       q    Type
REMARK                         _______ _______ _______ _____ _____    ______ ____
ROOT
ATOM      1  C   UNL     1      33.230 -14.514 -22.666  0.00  0.00    +0.001 C 
ATOM      2  C   UNL     1      33.142 -14.864 -21.301  0.00  0.00    +0.000 C 
ATOM      3  C   UNL     1      34.310 -16.660 -23.147  0.00  0.00    +0.000 C 
ATOM      4  C   UNL     1      34.222 -17.010 -21.781  0.00  0.00    +0.000 C 
ATOM      5  C   UNL     1      32.157 -12.384 -22.179  0.00  0.00    +0.049 C 
ATOM      6  C   UNL     1      33.814 -15.416 -23.571  0.00  0.00    +0.000 C 
ATOM      7  C   UNL     1      32.734 -13.270 -23.090  0.00  0.00    +0.015 C 
ATOM      8  C   UNL     1      33.639 -16.108 -20.876  0.00  0.00    +0.000 C 
ATOM      9  C   UNL     1      32.558 -13.961 -20.397  0.00  0.00    +0.001 C 
ATOM     10  C   UNL     1      32.069 -12.729 -20.834  0.00  0.00    +0.015 C 
ATOM     11  C   UNL     1      34.894 -17.563 -24.050  0.00  0.00    +0.000 C 
ATOM     12  C   UNL     1      34.719 -18.254 -21.357  0.00  0.00    +0.000 C 
ATOM     13  C   UNL     1      35.383 -18.794 -23.614  0.00  0.00    +0.000 C 
ATOM     14  C   UNL     1      35.295 -19.139 -22.269  0.00  0.00    +0.000 C 
ENDROOT
BRANCH   5  15
ATOM     15  N   UNL     1      31.663 -11.139 -22.621  0.00  0.00    -0.299 N 
ATOM     16  H   UNL     1      30.803 -11.166 -23.100  0.00  0.00    +0.153 HD
BRANCH  15  21
ATOM     17  N   UNL     1      33.329  -9.608 -23.269  0.00  0.00    -0.106 N 
ATOM     18  N   UNL     1      33.538  -7.399 -22.344  0.00  0.00    -0.340 NA
ATOM     19  N   UNL     1      33.960 -10.381 -24.191  0.00  0.00    -0.139 NA
ATOM     20  N   UNL     1      34.982  -8.352 -24.044  0.00  0.00    -0.145 NA
ATOM     21  C   UNL     1      32.214  -9.914 -22.478  0.00  0.00    +0.138 C 
ATOM     22  C   UNL     1      31.762  -8.980 -21.628  0.00  0.00    +0.061 C 
ATOM     23  C   UNL     1      33.972  -8.369 -23.197  0.00  0.00    +0.174 C 
ATOM     24  C   UNL     1      32.504  -7.683 -21.610  0.00  0.00    +0.125 C 
ATOM     25  C   UNL     1      32.007  -6.624 -20.659  0.00  0.00    +0.068 C 
ATOM     26  C   UNL     1      34.932  -9.581 -24.616  0.00  0.00    +0.230 C 
ENDBRANCH  15  21
ENDBRANCH   5  15
TORSDOF 2
ENDMDL
MODEL 9
REMARK VINA RESULT:     -11.7      6.304     10.665
REMARK  Name = 24882195
REMARK  2 active torsions:
REMARK  status: ('A' for Active; 'I' for Inactive)
REMARK    1  A    between atoms: C_5  and  N_15
REMARK    2  A    between atoms: N_15  and  C_21
REMARK                            x       y       z     vdW  Elec       q    Type
REMARK                         _______ _______ _______ _____ _____    ______ ____
ROOT
ATOM      1  C   UNL     1      34.924 -21.812 -18.391  0.00  0.00    +0.001 C 
ATOM      2  C   UNL     1      36.277 -21.413 -18.327  0.00  0.00    +0.000 C 
ATOM      3  C   UNL     1      34.623 -20.465 -20.415  0.00  0.00    +0.000 C 
ATOM      4  C   UNL     1      35.976 -20.066 -20.352  0.00  0.00    +0.000 C 
ATOM      5  C   UNL     1      35.232 -23.146 -16.379  0.00  0.00    +0.049 C 
ATOM      6  C   UNL     1      34.115 -21.332 -19.434  0.00  0.00    +0.000 C 
ATOM      7  C   UNL     1      34.416 -22.678 -17.409  0.00  0.00    +0.015 C 
ATOM      8  C   UNL     1      36.786 -20.546 -19.308  0.00  0.00    +0.000 C 
ATOM      9  C   UNL     1      37.086 -21.893 -17.283  0.00  0.00    +0.001 C 
ATOM     10  C   UNL     1      36.566 -22.754 -16.316  0.00  0.00    +0.015 C 
ATOM     11  C   UNL     1      33.815 -19.985 -21.459  0.00  0.00    +0.000 C 
ATOM     12  C   UNL     1      36.485 -19.200 -21.333  0.00  0.00    +0.000 C 
ATOM     13  C   UNL     1      34.334 -19.124 -22.426  0.00  0.00    +0.000 C 
ATOM     14  C   UNL     1      35.668 -18.733 -22.363  0.00  0.00    +0.000 C 
ENDROOT
BRANCH   5  15
ATOM     15  N   UNL     1      34.706 -24.016 -15.401  0.00  0.00    -0.299 N 
ATOM     16  H   UNL     1      33.778 -24.311 -15.546  0.00  0.00    +0.153 HD
BRANCH  15  21
ATOM     17  N   UNL     1      36.204 -25.562 -14.450  0.00  0.00    -0.106 N 
ATOM     18  N   UNL     1      36.686 -25.674 -12.097  0.00  0.00    -0.340 NA
ATOM     19  N   UNL     1      36.575 -26.204 -15.589  0.00  0.00    -0.139 NA
ATOM     20  N   UNL     1      37.653 -27.107 -13.798  0.00  0.00    -0.145 NA
ATOM     21  C   UNL     1      35.306 -24.499 -14.291  0.00  0.00    +0.138 C 
ATOM     22  C   UNL     1      35.096 -24.023 -13.054  0.00  0.00    +0.061 C 
ATOM     23  C   UNL     1      36.878 -26.133 -13.366  0.00  0.00    +0.174 C 
ATOM     24  C   UNL     1      35.853 -24.686 -11.950  0.00  0.00    +0.125 C 
ATOM     25  C   UNL     1      35.626 -24.163 -10.555  0.00  0.00    +0.068 C 
ATOM     26  C   UNL     1      37.437 -27.110 -15.137  0.00  0.00    +0.230 C 
ENDBRANCH  15  21
ENDBRANCH   5  15
TORSDOF 2
ENDMDL
