MODEL 1
REMARK VINA RESULT:      -9.0      0.000      0.000
REMARK  Name = 2218
REMARK  8 active torsions:
REMARK  status: ('A' for Active; 'I' for Inactive)
REMARK    1  A    between atoms: N_1  and  C_2
REMARK    2  A    between atoms: N_1  and  C_11
REMARK    3  A    between atoms: N_1  and  C_17
REMARK    4  A    between atoms: C_17  and  C_18
REMARK    5  A    between atoms: C_18  and  C_19
REMARK    6  A    between atoms: C_19  and  N_20
REMARK    7  A    between atoms: N_20  and  C_22
REMARK    8  A    between atoms: N_20  and  C_24
REMARK                            x       y       z     vdW  Elec       q    Type
REMARK                         _______ _______ _______ _____ _____    ______ ____
ROOT
ATOM      1  N   UNL     1      32.989  -8.969 -22.680  0.00  0.00    -0.309 N 
ENDROOT
BRANCH   1   2
ATOM      2  C   UNL     1      33.662  -7.724 -22.355  0.00  0.00    +0.081 C 
ATOM      3  C   UNL     1      34.732  -7.418 -23.422  0.00  0.00    +0.046 C 
ATOM      4  C   UNL     1      32.655  -6.557 -22.388  0.00  0.00    +0.046 C 
ATOM      5  C   UNL     1      33.969  -6.559 -24.383  0.00  0.00    -0.024 C 
ATOM      6  C   UNL     1      32.795  -6.072 -23.799  0.00  0.00    -0.024 C 
ATOM      7  C   UNL     1      34.323  -6.205 -25.675  0.00  0.00    -0.005 C 
ATOM      8  C   UNL     1      31.951  -5.220 -24.493  0.00  0.00    -0.005 C 
ATOM      9  C   UNL     1      33.472  -5.358 -26.386  0.00  0.00    -0.000 C 
ATOM     10  C   UNL     1      32.294  -4.868 -25.800  0.00  0.00    -0.000 C 
ENDBRANCH   1   2
BRANCH   1  11
ATOM     11  C   UNL     1      32.224  -9.647 -21.728  0.00  0.00    +0.048 C 
ATOM     12  C   UNL     1      32.299  -9.292 -20.373  0.00  0.00    +0.015 C 
ATOM     13  C   UNL     1      31.372 -10.691 -22.113  0.00  0.00    +0.015 C 
ATOM     14  C   UNL     1      31.535  -9.970 -19.422  0.00  0.00    +0.001 C 
ATOM     15  C   UNL     1      30.609 -11.368 -21.161  0.00  0.00    +0.001 C 
ATOM     16  C   UNL     1      30.690 -11.008 -19.816  0.00  0.00    +0.000 C 
ENDBRANCH   1  11
BRANCH   1  17
ATOM     17  C   UNL     1      33.144  -9.506 -24.029  0.00  0.00    +0.089 C 
BRANCH  17  18
ATOM     18  C   UNL     1      34.147 -10.659 -24.040  0.00  0.00    -0.001 C 
BRANCH  18  19
ATOM     19  C   UNL     1      33.917 -11.694 -25.145  0.00  0.00    -0.076 C 
BRANCH  19  20
ATOM     20  N   UNL     1      33.199 -12.864 -24.654  0.00  0.00    +0.387 N 
ATOM     21  H   UNL     1      32.243 -12.582 -24.435  0.00  0.00    -0.080 HD
BRANCH  20  22
ATOM     22  C   UNL     1      33.152 -13.908 -25.680  0.00  0.00    -0.077 C 
ATOM     23  C   UNL     1      33.281 -13.317 -27.072  0.00  0.00    -0.025 C 
ENDBRANCH  20  22
BRANCH  20  24
ATOM     24  C   UNL     1      33.823 -13.378 -23.435  0.00  0.00    -0.077 C 
ATOM     25  C   UNL     1      32.827 -14.157 -22.592  0.00  0.00    -0.025 C 
ENDBRANCH  20  24
ENDBRANCH  19  20
ENDBRANCH  18  19
ENDBRANCH  17  18
ENDBRANCH   1  17
TORSDOF 8
ENDMDL
MODEL 2
REMARK VINA RESULT:      -9.0      2.856      8.685
REMARK  Name = 2218
REMARK  8 active torsions:
REMARK  status: ('A' for Active; 'I' for Inactive)
REMARK    1  A    between atoms: N_1  and  C_2
REMARK    2  A    between atoms: N_1  and  C_11
REMARK    3  A    between atoms: N_1  and  C_17
REMARK    4  A    between atoms: C_17  and  C_18
REMARK    5  A    between atoms: C_18  and  C_19
REMARK    6  A    between atoms: C_19  and  N_20
REMARK    7  A    between atoms: N_20  and  C_22
REMARK    8  A    between atoms: N_20  and  C_24
REMARK                            x       y       z     vdW  Elec       q    Type
REMARK                         _______ _______ _______ _____ _____    ______ ____
ROOT
ATOM      1  N   UNL     1      33.485 -14.426 -22.959  0.00  0.00    -0.309 N 
ENDROOT
BRANCH   1   2
ATOM      2  C   UNL     1      34.744 -14.872 -22.389  0.00  0.00    +0.081 C 
ATOM      3  C   UNL     1      34.473 -15.702 -21.118  0.00  0.00    +0.046 C 
ATOM      4  C   UNL     1      35.472 -15.801 -23.380  0.00  0.00    +0.046 C 
ATOM      5  C   UNL     1      34.423 -17.095 -21.668  0.00  0.00    -0.024 C 
ATOM      6  C   UNL     1      34.988 -17.151 -22.947  0.00  0.00    -0.024 C 
ATOM      7  C   UNL     1      33.944 -18.237 -21.049  0.00  0.00    -0.005 C 
ATOM      8  C   UNL     1      35.086 -18.351 -23.633  0.00  0.00    -0.005 C 
ATOM      9  C   UNL     1      34.028 -19.449 -21.738  0.00  0.00    -0.000 C 
ATOM     10  C   UNL     1      34.595 -19.505 -23.021  0.00  0.00    -0.000 C 
ENDBRANCH   1   2
BRANCH   1  11
ATOM     11  C   UNL     1      33.399 -14.020 -24.292  0.00  0.00    +0.048 C 
ATOM     12  C   UNL     1      32.973 -14.915 -25.283  0.00  0.00    +0.015 C 
ATOM     13  C   UNL     1      33.739 -12.710 -24.659  0.00  0.00    +0.015 C 
ATOM     14  C   UNL     1      32.888 -14.509 -26.615  0.00  0.00    +0.001 C 
ATOM     15  C   UNL     1      33.655 -12.304 -25.991  0.00  0.00    +0.001 C 
ATOM     16  C   UNL     1      33.229 -13.204 -26.969  0.00  0.00    +0.000 C 
ENDBRANCH   1  11
BRANCH   1  17
ATOM     17  C   UNL     1      32.307 -14.401 -22.096  0.00  0.00    +0.089 C 
BRANCH  17  18
ATOM     18  C   UNL     1      32.223 -13.077 -21.336  0.00  0.00    -0.001 C 
BRANCH  18  19
ATOM     19  C   UNL     1      31.473 -11.964 -22.073  0.00  0.00    -0.076 C 
BRANCH  19  20
ATOM     20  N   UNL     1      31.085 -10.882 -21.177  0.00  0.00    +0.387 N 
ATOM     21  H   UNL     1      30.086 -10.714 -21.294  0.00  0.00    -0.080 HD
BRANCH  20  22
ATOM     22  C   UNL     1      31.333 -11.255 -19.782  0.00  0.00    -0.077 C 
ATOM     23  C   UNL     1      31.969 -10.110 -19.013  0.00  0.00    -0.025 C 
ENDBRANCH  20  22
BRANCH  20  24
ATOM     24  C   UNL     1      31.806  -9.653 -21.510  0.00  0.00    -0.077 C 
ATOM     25  C   UNL     1      32.218  -9.636 -22.973  0.00  0.00    -0.025 C 
ENDBRANCH  20  24
ENDBRANCH  19  20
ENDBRANCH  18  19
ENDBRANCH  17  18
ENDBRANCH   1  17
TORSDOF 8
ENDMDL
MODEL 3
REMARK VINA RESULT:      -8.4     11.964     16.501
REMARK  Name = 2218
REMARK  8 active torsions:
REMARK  status: ('A' for Active; 'I' for Inactive)
REMARK    1  A    between atoms: N_1  and  C_2
REMARK    2  A    between atoms: N_1  and  C_11
REMARK    3  A    between atoms: N_1  and  C_17
REMARK    4  A    between atoms: C_17  and  C_18
REMARK    5  A    between atoms: C_18  and  C_19
REMARK    6  A    between atoms: C_19  and  N_20
REMARK    7  A    between atoms: N_20  and  C_22
REMARK    8  A    between atoms: N_20  and  C_24
REMARK                            x       y       z     vdW  Elec       q    Type
REMARK                         _______ _______ _______ _____ _____    ______ ____
ROOT
ATOM      1  N   UNL     1      33.577 -23.584 -15.261  0.00  0.00    -0.309 N 
ENDROOT
BRANCH   1   2
ATOM      2  C   UNL     1      32.771 -23.544 -14.053  0.00  0.00    +0.081 C 
ATOM      3  C   UNL     1      31.731 -22.411 -14.160  0.00  0.00    +0.046 C 
ATOM      4  C   UNL     1      31.982 -24.859 -13.901  0.00  0.00    +0.046 C 
ATOM      5  C   UNL     1      30.547 -23.136 -14.723  0.00  0.00    -0.024 C 
ATOM      6  C   UNL     1      30.688 -24.520 -14.577  0.00  0.00    -0.024 C 
ATOM      7  C   UNL     1      29.406 -22.591 -15.288  0.00  0.00    -0.005 C 
ATOM      8  C   UNL     1      29.692 -25.388 -14.991  0.00  0.00    -0.005 C 
ATOM      9  C   UNL     1      28.401 -23.459 -15.720  0.00  0.00    -0.000 C 
ATOM     10  C   UNL     1      28.543 -24.848 -15.573  0.00  0.00    -0.000 C 
ENDBRANCH   1   2
BRANCH   1  11
ATOM     11  C   UNL     1      34.958 -23.779 -15.201  0.00  0.00    +0.048 C 
ATOM     12  C   UNL     1      35.489 -25.070 -15.068  0.00  0.00    +0.015 C 
ATOM     13  C   UNL     1      35.834 -22.687 -15.274  0.00  0.00    +0.015 C 
ATOM     14  C   UNL     1      36.869 -25.265 -15.008  0.00  0.00    +0.001 C 
ATOM     15  C   UNL     1      37.214 -22.882 -15.214  0.00  0.00    +0.001 C 
ATOM     16  C   UNL     1      37.732 -24.171 -15.081  0.00  0.00    +0.000 C 
ENDBRANCH   1  11
BRANCH   1  17
ATOM     17  C   UNL     1      32.906 -23.401 -16.544  0.00  0.00    +0.089 C 
BRANCH  17  18
ATOM     18  C   UNL     1      33.924 -23.140 -17.654  0.00  0.00    -0.001 C 
BRANCH  18  19
ATOM     19  C   UNL     1      33.450 -22.170 -18.740  0.00  0.00    -0.076 C 
BRANCH  19  20
ATOM     20  N   UNL     1      34.526 -21.807 -19.654  0.00  0.00    +0.387 N 
ATOM     21  H   UNL     1      34.588 -22.527 -20.374  0.00  0.00    -0.080 HD
BRANCH  20  22
ATOM     22  C   UNL     1      34.244 -20.524 -20.300  0.00  0.00    -0.077 C 
ATOM     23  C   UNL     1      32.754 -20.229 -20.308  0.00  0.00    -0.025 C 
ENDBRANCH  20  22
BRANCH  20  24
ATOM     24  C   UNL     1      35.806 -21.748 -18.946  0.00  0.00    -0.077 C 
ATOM     25  C   UNL     1      36.809 -20.886 -19.694  0.00  0.00    -0.025 C 
ENDBRANCH  20  24
ENDBRANCH  19  20
ENDBRANCH  18  19
ENDBRANCH  17  18
ENDBRANCH   1  17
TORSDOF 8
ENDMDL
MODEL 4
REMARK VINA RESULT:      -8.4     14.098     17.708
REMARK  Name = 2218
REMARK  8 active torsions:
REMARK  status: ('A' for Active; 'I' for Inactive)
REMARK    1  A    between atoms: N_1  and  C_2
REMARK    2  A    between atoms: N_1  and  C_11
REMARK    3  A    between atoms: N_1  and  C_17
REMARK    4  A    between atoms: C_17  and  C_18
REMARK    5  A    between atoms: C_18  and  C_19
REMARK    6  A    between atoms: C_19  and  N_20
REMARK    7  A    between atoms: N_20  and  C_22
REMARK    8  A    between atoms: N_20  and  C_24
REMARK                            x       y       z     vdW  Elec       q    Type
REMARK                         _______ _______ _______ _____ _____    ______ ____
ROOT
ATOM      1  N   UNL     1      34.363 -23.929 -15.542  0.00  0.00    -0.309 N 
ENDROOT
BRANCH   1   2
ATOM      2  C   UNL     1      33.581 -23.345 -14.466  0.00  0.00    +0.081 C 
ATOM      3  C   UNL     1      32.530 -22.382 -15.053  0.00  0.00    +0.046 C 
ATOM      4  C   UNL     1      32.804 -24.447 -13.719  0.00  0.00    +0.046 C 
ATOM      5  C   UNL     1      31.341 -23.280 -15.203  0.00  0.00    -0.024 C 
ATOM      6  C   UNL     1      31.496 -24.448 -14.449  0.00  0.00    -0.024 C 
ATOM      7  C   UNL     1      30.185 -23.048 -15.929  0.00  0.00    -0.005 C 
ATOM      8  C   UNL     1      30.498 -25.408 -14.404  0.00  0.00    -0.005 C 
ATOM      9  C   UNL     1      29.179 -24.016 -15.900  0.00  0.00    -0.000 C 
ATOM     10  C   UNL     1      29.334 -25.187 -15.143  0.00  0.00    -0.000 C 
ENDBRANCH   1   2
BRANCH   1  11
ATOM     11  C   UNL     1      34.562 -23.246 -16.743  0.00  0.00    +0.048 C 
ATOM     12  C   UNL     1      35.711 -22.466 -16.936  0.00  0.00    +0.015 C 
ATOM     13  C   UNL     1      33.615 -23.329 -17.774  0.00  0.00    +0.015 C 
ATOM     14  C   UNL     1      35.909 -21.783 -18.136  0.00  0.00    +0.001 C 
ATOM     15  C   UNL     1      33.813 -22.646 -18.974  0.00  0.00    +0.001 C 
ATOM     16  C   UNL     1      34.960 -21.873 -19.155  0.00  0.00    +0.000 C 
ENDBRANCH   1  11
BRANCH   1  17
ATOM     17  C   UNL     1      34.927 -25.260 -15.341  0.00  0.00    +0.089 C 
BRANCH  17  18
ATOM     18  C   UNL     1      36.432 -25.177 -15.085  0.00  0.00    -0.001 C 
BRANCH  18  19
ATOM     19  C   UNL     1      37.087 -26.504 -14.693  0.00  0.00    -0.076 C 
BRANCH  19  20
ATOM     20  N   UNL     1      38.112 -26.325 -13.672  0.00  0.00    +0.387 N 
ATOM     21  H   UNL     1      38.585 -27.218 -13.536  0.00  0.00    -0.080 HD
BRANCH  20  22
ATOM     22  C   UNL     1      39.102 -25.335 -14.103  0.00  0.00    -0.077 C 
ATOM     23  C   UNL     1      40.403 -26.002 -14.512  0.00  0.00    -0.025 C 
ENDBRANCH  20  22
BRANCH  20  24
ATOM     24  C   UNL     1      37.509 -25.919 -12.402  0.00  0.00    -0.077 C 
ATOM     25  C   UNL     1      37.995 -24.543 -11.977  0.00  0.00    -0.025 C 
ENDBRANCH  20  24
ENDBRANCH  19  20
ENDBRANCH  18  19
ENDBRANCH  17  18
ENDBRANCH   1  17
TORSDOF 8
ENDMDL
MODEL 5
REMARK VINA RESULT:      -8.3      2.624      5.360
REMARK  Name = 2218
REMARK  8 active torsions:
REMARK  status: ('A' for Active; 'I' for Inactive)
REMARK    1  A    between atoms: N_1  and  C_2
REMARK    2  A    between atoms: N_1  and  C_11
REMARK    3  A    between atoms: N_1  and  C_17
REMARK    4  A    between atoms: C_17  and  C_18
REMARK    5  A    between atoms: C_18  and  C_19
REMARK    6  A    between atoms: C_19  and  N_20
REMARK    7  A    between atoms: N_20  and  C_22
REMARK    8  A    between atoms: N_20  and  C_24
REMARK                            x       y       z     vdW  Elec       q    Type
REMARK                         _______ _______ _______ _____ _____    ______ ____
ROOT
ATOM      1  N   UNL     1      32.560 -12.815 -22.027  0.00  0.00    -0.309 N 
ENDROOT
BRANCH   1   2
ATOM      2  C   UNL     1      31.306 -12.232 -21.584  0.00  0.00    +0.081 C 
ATOM      3  C   UNL     1      31.496 -11.585 -20.197  0.00  0.00    +0.046 C 
ATOM      4  C   UNL     1      30.880 -11.105 -22.545  0.00  0.00    +0.046 C 
ATOM      5  C   UNL     1      31.830 -10.171 -20.562  0.00  0.00    -0.024 C 
ATOM      6  C   UNL     1      31.481  -9.899 -21.890  0.00  0.00    -0.024 C 
ATOM      7  C   UNL     1      32.368  -9.187 -19.750  0.00  0.00    -0.005 C 
ATOM      8  C   UNL     1      31.663  -8.638 -22.432  0.00  0.00    -0.005 C 
ATOM      9  C   UNL     1      32.566  -7.916 -20.292  0.00  0.00    -0.000 C 
ATOM     10  C   UNL     1      32.216  -7.643 -21.624  0.00  0.00    -0.000 C 
ENDBRANCH   1   2
BRANCH   1  11
ATOM     11  C   UNL     1      32.950 -12.756 -23.367  0.00  0.00    +0.048 C 
ATOM     12  C   UNL     1      32.633 -13.801 -24.246  0.00  0.00    +0.015 C 
ATOM     13  C   UNL     1      33.665 -11.652 -23.851  0.00  0.00    +0.015 C 
ATOM     14  C   UNL     1      33.023 -13.742 -25.584  0.00  0.00    +0.001 C 
ATOM     15  C   UNL     1      34.055 -11.593 -25.189  0.00  0.00    +0.001 C 
ATOM     16  C   UNL     1      33.734 -12.638 -26.056  0.00  0.00    +0.000 C 
ENDBRANCH   1  11
BRANCH   1  17
ATOM     17  C   UNL     1      33.401 -13.479 -21.036  0.00  0.00    +0.089 C 
BRANCH  17  18
ATOM     18  C   UNL     1      33.035 -14.959 -20.921  0.00  0.00    -0.001 C 
BRANCH  18  19
ATOM     19  C   UNL     1      34.233 -15.907 -20.818  0.00  0.00    -0.076 C 
BRANCH  19  20
ATOM     20  N   UNL     1      34.300 -16.824 -21.948  0.00  0.00    +0.387 N 
ATOM     21  H   UNL     1      33.348 -17.007 -22.267  0.00  0.00    -0.080 HD
BRANCH  20  22
ATOM     22  C   UNL     1      35.054 -16.228 -23.053  0.00  0.00    -0.077 C 
ATOM     23  C   UNL     1      34.841 -16.998 -24.344  0.00  0.00    -0.025 C 
ENDBRANCH  20  22
BRANCH  20  24
ATOM     24  C   UNL     1      34.907 -18.094 -21.547  0.00  0.00    -0.077 C 
ATOM     25  C   UNL     1      33.852 -19.093 -21.102  0.00  0.00    -0.025 C 
ENDBRANCH  20  24
ENDBRANCH  19  20
ENDBRANCH  18  19
ENDBRANCH  17  18
ENDBRANCH   1  17
TORSDOF 8
ENDMDL
MODEL 6
REMARK VINA RESULT:      -8.2     12.247     16.843
REMARK  Name = 2218
REMARK  8 active torsions:
REMARK  status: ('A' for Active; 'I' for Inactive)
REMARK    1  A    between atoms: N_1  and  C_2
REMARK    2  A    between atoms: N_1  and  C_11
REMARK    3  A    between atoms: N_1  and  C_17
REMARK    4  A    between atoms: C_17  and  C_18
REMARK    5  A    between atoms: C_18  and  C_19
REMARK    6  A    between atoms: C_19  and  N_20
REMARK    7  A    between atoms: N_20  and  C_22
REMARK    8  A    between atoms: N_20  and  C_24
REMARK                            x       y       z     vdW  Elec       q    Type
REMARK                         _______ _______ _______ _____ _____    ______ ____
ROOT
ATOM      1  N   UNL     1      33.977 -23.400 -15.636  0.00  0.00    -0.309 N 
ENDROOT
BRANCH   1   2
ATOM      2  C   UNL     1      35.123 -22.748 -15.026  0.00  0.00    +0.081 C 
ATOM      3  C   UNL     1      35.231 -23.167 -13.546  0.00  0.00    +0.046 C 
ATOM      4  C   UNL     1      36.421 -23.211 -15.715  0.00  0.00    +0.046 C 
ATOM      5  C   UNL     1      36.156 -24.342 -13.628  0.00  0.00    -0.024 C 
ATOM      6  C   UNL     1      36.829 -24.368 -14.854  0.00  0.00    -0.024 C 
ATOM      7  C   UNL     1      36.408 -25.296 -12.656  0.00  0.00    -0.005 C 
ATOM      8  C   UNL     1      37.768 -25.347 -15.134  0.00  0.00    -0.005 C 
ATOM      9  C   UNL     1      37.343 -26.294 -12.934  0.00  0.00    -0.000 C 
ATOM     10  C   UNL     1      38.019 -26.320 -14.164  0.00  0.00    -0.000 C 
ENDBRANCH   1   2
BRANCH   1  11
ATOM     11  C   UNL     1      32.823 -23.670 -14.897  0.00  0.00    +0.048 C 
ATOM     12  C   UNL     1      31.832 -22.690 -14.742  0.00  0.00    +0.015 C 
ATOM     13  C   UNL     1      32.638 -24.924 -14.299  0.00  0.00    +0.015 C 
ATOM     14  C   UNL     1      30.680 -22.959 -14.003  0.00  0.00    +0.001 C 
ATOM     15  C   UNL     1      31.486 -25.194 -13.561  0.00  0.00    +0.001 C 
ATOM     16  C   UNL     1      30.506 -24.211 -13.412  0.00  0.00    +0.000 C 
ENDBRANCH   1  11
BRANCH   1  17
ATOM     17  C   UNL     1      34.066 -23.780 -17.042  0.00  0.00    +0.089 C 
BRANCH  17  18
ATOM     18  C   UNL     1      33.247 -22.827 -17.913  0.00  0.00    -0.001 C 
BRANCH  18  19
ATOM     19  C   UNL     1      33.855 -22.538 -19.288  0.00  0.00    -0.076 C 
BRANCH  19  20
ATOM     20  N   UNL     1      34.142 -21.120 -19.469  0.00  0.00    +0.387 N 
ATOM     21  H   UNL     1      34.091 -20.666 -18.557  0.00  0.00    -0.080 HD
BRANCH  20  22
ATOM     22  C   UNL     1      35.492 -20.933 -20.007  0.00  0.00    -0.077 C 
ATOM     23  C   UNL     1      36.547 -21.392 -19.016  0.00  0.00    -0.025 C 
ENDBRANCH  20  22
BRANCH  20  24
ATOM     24  C   UNL     1      33.153 -20.502 -20.353  0.00  0.00    -0.077 C 
ATOM     25  C   UNL     1      33.780 -19.406 -21.199  0.00  0.00    -0.025 C 
ENDBRANCH  20  24
ENDBRANCH  19  20
ENDBRANCH  18  19
ENDBRANCH  17  18
ENDBRANCH   1  17
TORSDOF 8
ENDMDL
MODEL 7
REMARK VINA RESULT:      -7.9     12.511     16.643
REMARK  Name = 2218
REMARK  8 active torsions:
REMARK  status: ('A' for Active; 'I' for Inactive)
REMARK    1  A    between atoms: N_1  and  C_2
REMARK    2  A    between atoms: N_1  and  C_11
REMARK    3  A    between atoms: N_1  and  C_17
REMARK    4  A    between atoms: C_17  and  C_18
REMARK    5  A    between atoms: C_18  and  C_19
REMARK    6  A    between atoms: C_19  and  N_20
REMARK    7  A    between atoms: N_20  and  C_22
REMARK    8  A    between atoms: N_20  and  C_24
REMARK                            x       y       z     vdW  Elec       q    Type
REMARK                         _______ _______ _______ _____ _____    ______ ____
ROOT
ATOM      1  N   UNL     1      35.323 -22.695 -16.991  0.00  0.00    -0.309 N 
ENDROOT
BRANCH   1   2
ATOM      2  C   UNL     1      34.590 -23.945 -16.889  0.00  0.00    +0.081 C 
ATOM      3  C   UNL     1      34.350 -24.285 -15.404  0.00  0.00    +0.046 C 
ATOM      4  C   UNL     1      33.201 -23.797 -17.541  0.00  0.00    +0.046 C 
ATOM      5  C   UNL     1      33.004 -23.672 -15.164  0.00  0.00    -0.024 C 
ATOM      6  C   UNL     1      32.355 -23.396 -16.371  0.00  0.00    -0.024 C 
ATOM      7  C   UNL     1      32.390 -23.420 -13.949  0.00  0.00    -0.005 C 
ATOM      8  C   UNL     1      31.077 -22.862 -16.389  0.00  0.00    -0.005 C 
ATOM      9  C   UNL     1      31.106 -22.870 -13.957  0.00  0.00    -0.000 C 
ATOM     10  C   UNL     1      30.454 -22.594 -15.169  0.00  0.00    -0.000 C 
ENDBRANCH   1   2
BRANCH   1  11
ATOM     11  C   UNL     1      35.327 -21.955 -18.175  0.00  0.00    +0.048 C 
ATOM     12  C   UNL     1      36.532 -21.476 -18.710  0.00  0.00    +0.015 C 
ATOM     13  C   UNL     1      34.128 -21.681 -18.847  0.00  0.00    +0.015 C 
ATOM     14  C   UNL     1      36.536 -20.737 -19.893  0.00  0.00    +0.001 C 
ATOM     15  C   UNL     1      34.132 -20.942 -20.030  0.00  0.00    +0.001 C 
ATOM     16  C   UNL     1      35.336 -20.470 -20.553  0.00  0.00    +0.000 C 
ENDBRANCH   1  11
BRANCH   1  17
ATOM     17  C   UNL     1      36.069 -22.235 -15.824  0.00  0.00    +0.089 C 
BRANCH  17  18
ATOM     18  C   UNL     1      37.456 -22.876 -15.781  0.00  0.00    -0.001 C 
BRANCH  18  19
ATOM     19  C   UNL     1      37.643 -23.920 -14.677  0.00  0.00    -0.076 C 
BRANCH  19  20
ATOM     20  N   UNL     1      38.383 -25.084 -15.148  0.00  0.00    +0.387 N 
ATOM     21  H   UNL     1      38.198 -25.197 -16.145  0.00  0.00    -0.080 HD
BRANCH  20  22
ATOM     22  C   UNL     1      39.822 -24.891 -14.961  0.00  0.00    -0.077 C 
ATOM     23  C   UNL     1      40.499 -26.182 -14.533  0.00  0.00    -0.025 C 
ENDBRANCH  20  22
BRANCH  20  24
ATOM     24  C   UNL     1      37.938 -26.293 -14.453  0.00  0.00    -0.077 C 
ATOM     25  C   UNL     1      37.130 -25.949 -13.213  0.00  0.00    -0.025 C 
ENDBRANCH  20  24
ENDBRANCH  19  20
ENDBRANCH  18  19
ENDBRANCH  17  18
ENDBRANCH   1  17
TORSDOF 8
ENDMDL
MODEL 8
REMARK VINA RESULT:      -7.8      1.499      2.958
REMARK  Name = 2218
REMARK  8 active torsions:
REMARK  status: ('A' for Active; 'I' for Inactive)
REMARK    1  A    between atoms: N_1  and  C_2
REMARK    2  A    between atoms: N_1  and  C_11
REMARK    3  A    between atoms: N_1  and  C_17
REMARK    4  A    between atoms: C_17  and  C_18
REMARK    5  A    between atoms: C_18  and  C_19
REMARK    6  A    between atoms: C_19  and  N_20
REMARK    7  A    between atoms: N_20  and  C_22
REMARK    8  A    between atoms: N_20  and  C_24
REMARK                            x       y       z     vdW  Elec       q    Type
REMARK                         _______ _______ _______ _____ _____    ______ ____
ROOT
ATOM      1  N   UNL     1      31.933  -7.902 -22.463  0.00  0.00    -0.309 N 
ENDROOT
BRANCH   1   2
ATOM      2  C   UNL     1      30.739  -7.377 -23.102  0.00  0.00    +0.081 C 
ATOM      3  C   UNL     1      30.337  -6.046 -22.435  0.00  0.00    +0.046 C 
ATOM      4  C   UNL     1      31.030  -7.061 -24.583  0.00  0.00    +0.046 C 
ATOM      5  C   UNL     1      31.038  -5.045 -23.302  0.00  0.00    -0.024 C 
ATOM      6  C   UNL     1      31.430  -5.619 -24.516  0.00  0.00    -0.024 C 
ATOM      7  C   UNL     1      31.270  -3.705 -23.038  0.00  0.00    -0.005 C 
ATOM      8  C   UNL     1      32.061  -4.865 -25.492  0.00  0.00    -0.005 C 
ATOM      9  C   UNL     1      31.917  -2.941 -24.010  0.00  0.00    -0.000 C 
ATOM     10  C   UNL     1      32.309  -3.516 -25.229  0.00  0.00    -0.000 C 
ENDBRANCH   1   2
BRANCH   1  11
ATOM     11  C   UNL     1      31.846  -8.860 -21.449  0.00  0.00    +0.048 C 
ATOM     12  C   UNL     1      31.234 -10.098 -21.692  0.00  0.00    +0.015 C 
ATOM     13  C   UNL     1      32.370  -8.597 -20.176  0.00  0.00    +0.015 C 
ATOM     14  C   UNL     1      31.147 -11.054 -20.679  0.00  0.00    +0.001 C 
ATOM     15  C   UNL     1      32.283  -9.553 -19.164  0.00  0.00    +0.001 C 
ATOM     16  C   UNL     1      31.672 -10.782 -19.415  0.00  0.00    +0.000 C 
ENDBRANCH   1  11
BRANCH   1  17
ATOM     17  C   UNL     1      33.230  -7.393 -22.897  0.00  0.00    +0.089 C 
BRANCH  17  18
ATOM     18  C   UNL     1      34.169  -8.544 -23.259  0.00  0.00    -0.001 C 
BRANCH  18  19
ATOM     19  C   UNL     1      33.613  -9.516 -24.304  0.00  0.00    -0.076 C 
BRANCH  19  20
ATOM     20  N   UNL     1      34.286 -10.808 -24.258  0.00  0.00    +0.387 N 
ATOM     21  H   UNL     1      35.139 -10.703 -23.708  0.00  0.00    -0.080 HD
BRANCH  20  22
ATOM     22  C   UNL     1      33.436 -11.810 -23.611  0.00  0.00    -0.077 C 
ATOM     23  C   UNL     1      33.851 -13.217 -24.000  0.00  0.00    -0.025 C 
ENDBRANCH  20  22
BRANCH  20  24
ATOM     24  C   UNL     1      34.651 -11.247 -25.605  0.00  0.00    -0.077 C 
ATOM     25  C   UNL     1      35.678 -10.316 -26.228  0.00  0.00    -0.025 C 
ENDBRANCH  20  24
ENDBRANCH  19  20
ENDBRANCH  18  19
ENDBRANCH  17  18
ENDBRANCH   1  17
TORSDOF 8
ENDMDL
MODEL 9
REMARK VINA RESULT:      -7.8     13.304     17.151
REMARK  Name = 2218
REMARK  8 active torsions:
REMARK  status: ('A' for Active; 'I' for Inactive)
REMARK    1  A    between atoms: N_1  and  C_2
REMARK    2  A    between atoms: N_1  and  C_11
REMARK    3  A    between atoms: N_1  and  C_17
REMARK    4  A    between atoms: C_17  and  C_18
REMARK    5  A    between atoms: C_18  and  C_19
REMARK    6  A    between atoms: C_19  and  N_20
REMARK    7  A    between atoms: N_20  and  C_22
REMARK    8  A    between atoms: N_20  and  C_24
REMARK                            x       y       z     vdW  Elec       q    Type
REMARK                         _______ _______ _______ _____ _____    ______ ____
ROOT
ATOM      1  N   UNL     1      35.193 -22.862 -16.294  0.00  0.00    -0.309 N 
ENDROOT
BRANCH   1   2
ATOM      2  C   UNL     1      36.092 -22.425 -15.241  0.00  0.00    +0.081 C 
ATOM      3  C   UNL     1      35.726 -23.132 -13.920  0.00  0.00    +0.046 C 
ATOM      4  C   UNL     1      37.539 -22.836 -15.578  0.00  0.00    +0.046 C 
ATOM      5  C   UNL     1      36.623 -24.331 -13.957  0.00  0.00    -0.024 C 
ATOM      6  C   UNL     1      37.648 -24.164 -14.894  0.00  0.00    -0.024 C 
ATOM      7  C   UNL     1      36.550 -25.473 -13.176  0.00  0.00    -0.005 C 
ATOM      8  C   UNL     1      38.622 -25.134 -15.069  0.00  0.00    -0.005 C 
ATOM      9  C   UNL     1      37.520 -26.461 -13.354  0.00  0.00    -0.000 C 
ATOM     10  C   UNL     1      38.549 -26.293 -14.294  0.00  0.00    -0.000 C 
ENDBRANCH   1   2
BRANCH   1  11
ATOM     11  C   UNL     1      35.277 -22.328 -17.582  0.00  0.00    +0.048 C 
ATOM     12  C   UNL     1      34.179 -22.395 -18.452  0.00  0.00    +0.015 C 
ATOM     13  C   UNL     1      36.459 -21.717 -18.023  0.00  0.00    +0.015 C 
ATOM     14  C   UNL     1      34.263 -21.862 -19.739  0.00  0.00    +0.001 C 
ATOM     15  C   UNL     1      36.542 -21.183 -19.310  0.00  0.00    +0.001 C 
ATOM     16  C   UNL     1      35.444 -21.256 -20.168  0.00  0.00    +0.000 C 
ENDBRANCH   1  11
BRANCH   1  17
ATOM     17  C   UNL     1      34.187 -23.868 -15.970  0.00  0.00    +0.089 C 
BRANCH  17  18
ATOM     18  C   UNL     1      32.922 -23.209 -15.419  0.00  0.00    -0.001 C 
BRANCH  18  19
ATOM     19  C   UNL     1      31.644 -23.528 -16.200  0.00  0.00    -0.076 C 
BRANCH  19  20
ATOM     20  N   UNL     1      30.450 -23.070 -15.502  0.00  0.00    +0.387 N 
ATOM     21  H   UNL     1      30.653 -22.160 -15.087  0.00  0.00    -0.080 HD
BRANCH  20  22
ATOM     22  C   UNL     1      29.333 -22.916 -16.436  0.00  0.00    -0.077 C 
ATOM     23  C   UNL     1      28.088 -22.413 -15.727  0.00  0.00    -0.025 C 
ENDBRANCH  20  22
BRANCH  20  24
ATOM     24  C   UNL     1      30.090 -23.999 -14.430  0.00  0.00    -0.077 C 
ATOM     25  C   UNL     1      30.032 -25.430 -14.939  0.00  0.00    -0.025 C 
ENDBRANCH  20  24
ENDBRANCH  19  20
ENDBRANCH  18  19
ENDBRANCH  17  18
ENDBRANCH   1  17
TORSDOF 8
ENDMDL
