MODEL 1
REMARK VINA RESULT:     -10.5      0.000      0.000
REMARK  Name = 24963048
REMARK  6 active torsions:
REMARK  status: ('A' for Active; 'I' for Inactive)
REMARK    1  A    between atoms: N_2  and  C_20
REMARK    2  A    between atoms: C_3  and  C_7
REMARK    3  A    between atoms: C_6  and  C_12
REMARK    4  A    between atoms: C_20  and  C_21
REMARK    5  A    between atoms: C_20  and  C_27
REMARK    6  A    between atoms: C_27  and  N_28
REMARK                            x       y       z     vdW  Elec       q    Type
REMARK                         _______ _______ _______ _____ _____    ______ ____
ROOT
ATOM      1  O   UNL     1      32.856 -14.409 -25.653  0.00  0.00    -0.270 OA
ATOM      2  N   UNL     1      33.466 -13.605 -23.568  0.00  0.00    -0.300 N 
ATOM      3  C   UNL     1      33.393 -14.630 -24.538  0.00  0.00    +0.252 C 
ATOM      4  H   UNL     1      33.894 -13.816 -22.707  0.00  0.00    +0.150 HD
ENDROOT
BRANCH   3   7
ATOM      5  S   UNL     1      34.339 -16.255 -22.585  0.00  0.00    -0.082 S 
ATOM      6  C   UNL     1      34.923 -17.809 -23.002  0.00  0.00    +0.030 C 
ATOM      7  C   UNL     1      33.962 -15.898 -24.218  0.00  0.00    +0.083 C 
ATOM      8  C   UNL     1      34.831 -18.049 -24.356  0.00  0.00    +0.007 C 
ATOM      9  C   UNL     1      34.275 -16.943 -25.059  0.00  0.00    +0.012 C 
BRANCH   6  12
ATOM     10  N   UNL     1      34.031 -20.968 -19.659  0.00  0.00    -0.297 N 
ATOM     11  N   UNL     1      36.357 -20.385 -19.884  0.00  0.00    -0.229 NA
ATOM     12  C   UNL     1      35.423 -18.665 -21.963  0.00  0.00    +0.010 C 
ATOM     13  C   UNL     1      34.529 -19.466 -21.234  0.00  0.00    +0.033 C 
ATOM     14  C   UNL     1      35.063 -20.278 -20.238  0.00  0.00    +0.132 C 
ATOM     15  C   UNL     1      33.127 -19.689 -21.239  0.00  0.00    +0.019 C 
ATOM     16  C   UNL     1      36.776 -18.738 -21.638  0.00  0.00    +0.021 C 
ATOM     17  C   UNL     1      32.849 -20.618 -20.259  0.00  0.00    +0.063 C 
ATOM     18  C   UNL     1      37.172 -19.592 -20.618  0.00  0.00    +0.100 C 
ATOM     19  H   UNL     1      34.123 -21.616 -18.923  0.00  0.00    +0.154 HD
ENDBRANCH   6  12
ENDBRANCH   3   7
BRANCH   2  20
ATOM     20  C   UNL     1      32.955 -12.275 -23.756  0.00  0.00    +0.073 C 
BRANCH  20  21
ATOM     21  C   UNL     1      32.388 -11.734 -22.458  0.00  0.00    -0.007 C 
ATOM     22  C   UNL     1      32.099 -12.603 -21.407  0.00  0.00    -0.003 C 
ATOM     23  C   UNL     1      32.153 -10.366 -22.316  0.00  0.00    -0.003 C 
ATOM     24  C   UNL     1      31.578 -12.105 -20.213  0.00  0.00    -0.000 C 
ATOM     25  C   UNL     1      31.631  -9.868 -21.123  0.00  0.00    -0.000 C 
ATOM     26  C   UNL     1      31.344 -10.738 -20.071  0.00  0.00    -0.000 C 
ENDBRANCH  20  21
BRANCH  20  27
ATOM     27  C   UNL     1      34.022 -11.336 -24.341  0.00  0.00    -0.062 C 
BRANCH  27  28
ATOM     28  N   UNL     1      34.125 -11.495 -25.790  0.00  0.00    +0.382 N 
ATOM     29  H   UNL     1      34.740 -12.280 -26.003  0.00  0.00    -0.089 HD
ATOM     30  H   UNL     1      34.509 -10.643 -26.200  0.00  0.00    -0.089 HD
ATOM     31  H   UNL     1      33.199 -11.672 -26.180  0.00  0.00    -0.089 HD
ENDBRANCH  27  28
ENDBRANCH  20  27
ENDBRANCH   2  20
TORSDOF 6
ENDMDL
MODEL 2
REMARK VINA RESULT:     -10.5      4.618      9.954
REMARK  Name = 24963048
REMARK  6 active torsions:
REMARK  status: ('A' for Active; 'I' for Inactive)
REMARK    1  A    between atoms: N_2  and  C_20
REMARK    2  A    between atoms: C_3  and  C_7
REMARK    3  A    between atoms: C_6  and  C_12
REMARK    4  A    between atoms: C_20  and  C_21
REMARK    5  A    between atoms: C_20  and  C_27
REMARK    6  A    between atoms: C_27  and  N_28
REMARK                            x       y       z     vdW  Elec       q    Type
REMARK                         _______ _______ _______ _____ _____    ______ ____
ROOT
ATOM      1  O   UNL     1      34.070 -23.531 -19.572  0.00  0.00    -0.270 OA
ATOM      2  N   UNL     1      34.345 -22.460 -17.536  0.00  0.00    -0.300 N 
ATOM      3  C   UNL     1      34.464 -22.516 -18.943  0.00  0.00    +0.252 C 
ATOM      4  H   UNL     1      34.665 -21.649 -17.079  0.00  0.00    +0.150 HD
ENDROOT
BRANCH   3   7
ATOM      5  S   UNL     1      33.967 -20.253 -20.351  0.00  0.00    -0.082 S 
ATOM      6  C   UNL     1      35.283 -19.297 -20.886  0.00  0.00    +0.030 C 
ATOM      7  C   UNL     1      35.020 -21.386 -19.614  0.00  0.00    +0.083 C 
ATOM      8  C   UNL     1      36.496 -19.831 -20.510  0.00  0.00    +0.007 C 
ATOM      9  C   UNL     1      36.343 -21.040 -19.774  0.00  0.00    +0.012 C 
BRANCH   6  12
ATOM     10  N   UNL     1      34.414 -17.287 -25.028  0.00  0.00    -0.297 N 
ATOM     11  N   UNL     1      34.477 -15.754 -23.171  0.00  0.00    -0.229 NA
ATOM     12  C   UNL     1      35.013 -18.100 -21.632  0.00  0.00    +0.010 C 
ATOM     13  C   UNL     1      34.824 -18.176 -23.022  0.00  0.00    +0.033 C 
ATOM     14  C   UNL     1      34.566 -16.989 -23.700  0.00  0.00    +0.132 C 
ATOM     15  C   UNL     1      34.824 -19.212 -23.992  0.00  0.00    +0.019 C 
ATOM     16  C   UNL     1      34.931 -16.844 -21.032  0.00  0.00    +0.021 C 
ATOM     17  C   UNL     1      34.570 -18.636 -25.217  0.00  0.00    +0.063 C 
ATOM     18  C   UNL     1      34.668 -15.740 -21.831  0.00  0.00    +0.100 C 
ATOM     19  H   UNL     1      34.224 -16.632 -25.739  0.00  0.00    +0.154 HD
ENDBRANCH   6  12
ENDBRANCH   3   7
BRANCH   2  20
ATOM     20  C   UNL     1      33.789 -23.511 -16.728  0.00  0.00    +0.073 C 
BRANCH  20  21
ATOM     21  C   UNL     1      34.563 -23.654 -15.433  0.00  0.00    -0.007 C 
ATOM     22  C   UNL     1      35.915 -23.316 -15.387  0.00  0.00    -0.003 C 
ATOM     23  C   UNL     1      33.923 -24.125 -14.286  0.00  0.00    -0.003 C 
ATOM     24  C   UNL     1      36.628 -23.447 -14.195  0.00  0.00    -0.000 C 
ATOM     25  C   UNL     1      34.635 -24.257 -13.094  0.00  0.00    -0.000 C 
ATOM     26  C   UNL     1      35.987 -23.918 -13.049  0.00  0.00    -0.000 C 
ENDBRANCH  20  21
BRANCH  20  27
ATOM     27  C   UNL     1      32.290 -23.292 -16.469  0.00  0.00    -0.062 C 
BRANCH  27  28
ATOM     28  N   UNL     1      31.656 -22.606 -17.593  0.00  0.00    +0.382 N 
ATOM     29  H   UNL     1      31.285 -21.709 -17.278  0.00  0.00    -0.089 HD
ATOM     30  H   UNL     1      30.894 -23.179 -17.956  0.00  0.00    -0.089 HD
ATOM     31  H   UNL     1      32.345 -22.450 -18.328  0.00  0.00    -0.089 HD
ENDBRANCH  27  28
ENDBRANCH  20  27
ENDBRANCH   2  20
TORSDOF 6
ENDMDL
MODEL 3
REMARK VINA RESULT:     -10.2      3.914      9.913
REMARK  Name = 24963048
REMARK  6 active torsions:
REMARK  status: ('A' for Active; 'I' for Inactive)
REMARK    1  A    between atoms: N_2  and  C_20
REMARK    2  A    between atoms: C_3  and  C_7
REMARK    3  A    between atoms: C_6  and  C_12
REMARK    4  A    between atoms: C_20  and  C_21
REMARK    5  A    between atoms: C_20  and  C_27
REMARK    6  A    between atoms: C_27  and  N_28
REMARK                            x       y       z     vdW  Elec       q    Type
REMARK                         _______ _______ _______ _____ _____    ______ ____
ROOT
ATOM      1  O   UNL     1      34.095 -11.878 -26.108  0.00  0.00    -0.270 OA
ATOM      2  N   UNL     1      34.098 -12.715 -23.947  0.00  0.00    -0.300 N 
ATOM      3  C   UNL     1      34.090 -11.647 -24.872  0.00  0.00    +0.252 C 
ATOM      4  H   UNL     1      34.094 -12.495 -22.988  0.00  0.00    +0.150 HD
ENDROOT
BRANCH   3   7
ATOM      5  S   UNL     1      32.629  -9.755 -23.593  0.00  0.00    -0.082 S 
ATOM      6  C   UNL     1      33.330  -8.223 -23.290  0.00  0.00    +0.030 C 
ATOM      7  C   UNL     1      34.055 -10.316 -24.359  0.00  0.00    +0.083 C 
ATOM      8  C   UNL     1      34.622  -8.143 -23.762  0.00  0.00    +0.007 C 
ATOM      9  C   UNL     1      35.041  -9.355 -24.381  0.00  0.00    +0.012 C 
BRANCH   6  12
ATOM     10  N   UNL     1      30.687  -4.363 -23.557  0.00  0.00    -0.297 N 
ATOM     11  N   UNL     1      30.992  -5.209 -21.323  0.00  0.00    -0.229 NA
ATOM     12  C   UNL     1      32.551  -7.224 -22.612  0.00  0.00    +0.010 C 
ATOM     13  C   UNL     1      31.938  -6.202 -23.355  0.00  0.00    +0.033 C 
ATOM     14  C   UNL     1      31.194  -5.258 -22.653  0.00  0.00    +0.132 C 
ATOM     15  C   UNL     1      31.865  -5.845 -24.727  0.00  0.00    +0.019 C 
ATOM     16  C   UNL     1      32.374  -7.221 -21.230  0.00  0.00    +0.021 C 
ATOM     17  C   UNL     1      31.089  -4.710 -24.821  0.00  0.00    +0.063 C 
ATOM     18  C   UNL     1      31.606  -6.216 -20.658  0.00  0.00    +0.100 C 
ATOM     19  H   UNL     1      30.122  -3.588 -23.334  0.00  0.00    +0.154 HD
ENDBRANCH   6  12
ENDBRANCH   3   7
BRANCH   2  20
ATOM     20  C   UNL     1      34.113 -14.105 -24.316  0.00  0.00    +0.073 C 
BRANCH  20  21
ATOM     21  C   UNL     1      34.385 -14.975 -23.105  0.00  0.00    -0.007 C 
ATOM     22  C   UNL     1      34.152 -14.478 -21.823  0.00  0.00    -0.003 C 
ATOM     23  C   UNL     1      34.870 -16.272 -23.273  0.00  0.00    -0.003 C 
ATOM     24  C   UNL     1      34.402 -15.278 -20.708  0.00  0.00    -0.000 C 
ATOM     25  C   UNL     1      35.121 -17.072 -22.159  0.00  0.00    -0.000 C 
ATOM     26  C   UNL     1      34.887 -16.575 -20.877  0.00  0.00    -0.000 C 
ENDBRANCH  20  21
BRANCH  20  27
ATOM     27  C   UNL     1      32.813 -14.516 -25.027  0.00  0.00    -0.062 C 
BRANCH  27  28
ATOM     28  N   UNL     1      33.049 -14.777 -26.446  0.00  0.00    +0.382 N 
ATOM     29  H   UNL     1      34.043 -14.669 -26.650  0.00  0.00    -0.089 HD
ATOM     30  H   UNL     1      32.514 -14.114 -27.007  0.00  0.00    -0.089 HD
ATOM     31  H   UNL     1      32.756 -15.727 -26.670  0.00  0.00    -0.089 HD
ENDBRANCH  27  28
ENDBRANCH  20  27
ENDBRANCH   2  20
TORSDOF 6
ENDMDL
MODEL 4
REMARK VINA RESULT:     -10.2      4.607      9.941
REMARK  Name = 24963048
REMARK  6 active torsions:
REMARK  status: ('A' for Active; 'I' for Inactive)
REMARK    1  A    between atoms: N_2  and  C_20
REMARK    2  A    between atoms: C_3  and  C_7
REMARK    3  A    between atoms: C_6  and  C_12
REMARK    4  A    between atoms: C_20  and  C_21
REMARK    5  A    between atoms: C_20  and  C_27
REMARK    6  A    between atoms: C_27  and  N_28
REMARK                            x       y       z     vdW  Elec       q    Type
REMARK                         _______ _______ _______ _____ _____    ______ ____
ROOT
ATOM      1  O   UNL     1      34.044 -23.495 -19.514  0.00  0.00    -0.270 OA
ATOM      2  N   UNL     1      34.630 -22.408 -17.553  0.00  0.00    -0.300 N 
ATOM      3  C   UNL     1      34.566 -22.493 -18.962  0.00  0.00    +0.252 C 
ATOM      4  H   UNL     1      35.046 -21.608 -17.158  0.00  0.00    +0.150 HD
ENDROOT
BRANCH   3   7
ATOM      5  S   UNL     1      34.057 -20.582 -20.817  0.00  0.00    -0.082 S 
ATOM      6  C   UNL     1      35.314 -19.520 -21.288  0.00  0.00    +0.030 C 
ATOM      7  C   UNL     1      35.087 -21.404 -19.723  0.00  0.00    +0.083 C 
ATOM      8  C   UNL     1      36.492 -19.787 -20.625  0.00  0.00    +0.007 C 
ATOM      9  C   UNL     1      36.360 -20.878 -19.720  0.00  0.00    +0.012 C 
BRANCH   6  12
ATOM     10  N   UNL     1      34.414 -15.023 -22.247  0.00  0.00    -0.297 N 
ATOM     11  N   UNL     1      34.485 -16.459 -24.180  0.00  0.00    -0.229 NA
ATOM     12  C   UNL     1      35.039 -18.510 -22.272  0.00  0.00    +0.010 C 
ATOM     13  C   UNL     1      34.838 -17.181 -21.864  0.00  0.00    +0.033 C 
ATOM     14  C   UNL     1      34.574 -16.240 -22.855  0.00  0.00    +0.132 C 
ATOM     15  C   UNL     1      34.833 -16.487 -20.625  0.00  0.00    +0.019 C 
ATOM     16  C   UNL     1      34.958 -18.792 -23.634  0.00  0.00    +0.021 C 
ATOM     17  C   UNL     1      34.569 -15.161 -20.892  0.00  0.00    +0.063 C 
ATOM     18  C   UNL     1      34.685 -17.754 -24.515  0.00  0.00    +0.100 C 
ATOM     19  H   UNL     1      34.218 -14.177 -22.713  0.00  0.00    +0.154 HD
ENDBRANCH   6  12
ENDBRANCH   3   7
BRANCH   2  20
ATOM     20  C   UNL     1      34.130 -23.416 -16.658  0.00  0.00    +0.073 C 
BRANCH  20  21
ATOM     21  C   UNL     1      35.013 -23.525 -15.431  0.00  0.00    -0.007 C 
ATOM     22  C   UNL     1      34.464 -23.911 -14.209  0.00  0.00    -0.003 C 
ATOM     23  C   UNL     1      36.375 -23.238 -15.524  0.00  0.00    -0.003 C 
ATOM     24  C   UNL     1      35.276 -24.011 -13.079  0.00  0.00    -0.000 C 
ATOM     25  C   UNL     1      37.188 -23.338 -14.395  0.00  0.00    -0.000 C 
ATOM     26  C   UNL     1      36.638 -23.725 -13.173  0.00  0.00    -0.000 C 
ENDBRANCH  20  21
BRANCH  20  27
ATOM     27  C   UNL     1      32.663 -23.156 -16.277  0.00  0.00    -0.062 C 
BRANCH  27  28
ATOM     28  N   UNL     1      31.873 -22.785 -17.449  0.00  0.00    +0.382 N 
ATOM     29  H   UNL     1      31.191 -23.519 -17.645  0.00  0.00    -0.089 HD
ATOM     30  H   UNL     1      32.490 -22.673 -18.254  0.00  0.00    -0.089 HD
ATOM     31  H   UNL     1      31.387 -21.908 -17.268  0.00  0.00    -0.089 HD
ENDBRANCH  27  28
ENDBRANCH  20  27
ENDBRANCH   2  20
TORSDOF 6
ENDMDL
MODEL 5
REMARK VINA RESULT:     -10.1      4.027      6.509
REMARK  Name = 24963048
REMARK  6 active torsions:
REMARK  status: ('A' for Active; 'I' for Inactive)
REMARK    1  A    between atoms: N_2  and  C_20
REMARK    2  A    between atoms: C_3  and  C_7
REMARK    3  A    between atoms: C_6  and  C_12
REMARK    4  A    between atoms: C_20  and  C_21
REMARK    5  A    between atoms: C_20  and  C_27
REMARK    6  A    between atoms: C_27  and  N_28
REMARK                            x       y       z     vdW  Elec       q    Type
REMARK                         _______ _______ _______ _____ _____    ______ ____
ROOT
ATOM      1  O   UNL     1      32.323  -8.911 -20.811  0.00  0.00    -0.270 OA
ATOM      2  N   UNL     1      32.365  -8.454 -23.082  0.00  0.00    -0.300 N 
ATOM      3  C   UNL     1      32.347  -9.349 -21.989  0.00  0.00    +0.252 C 
ATOM      4  H   UNL     1      32.383  -8.835 -23.989  0.00  0.00    +0.150 HD
ENDROOT
BRANCH   3   7
ATOM      5  S   UNL     1      33.151 -11.329 -23.658  0.00  0.00    -0.082 S 
ATOM      6  C   UNL     1      32.704 -12.945 -23.313  0.00  0.00    +0.030 C 
ATOM      7  C   UNL     1      32.334 -10.748 -22.269  0.00  0.00    +0.083 C 
ATOM      8  C   UNL     1      31.949 -13.038 -22.164  0.00  0.00    +0.007 C 
ATOM      9  C   UNL     1      31.735 -11.766 -21.560  0.00  0.00    +0.012 C 
BRANCH   6  12
ATOM     10  N   UNL     1      35.114 -16.914 -23.937  0.00  0.00    -0.297 N 
ATOM     11  N   UNL     1      34.018 -16.091 -25.919  0.00  0.00    -0.229 NA
ATOM     12  C   UNL     1      33.132 -13.989 -24.201  0.00  0.00    +0.010 C 
ATOM     13  C   UNL     1      33.947 -15.024 -23.713  0.00  0.00    +0.033 C 
ATOM     14  C   UNL     1      34.335 -16.012 -24.613  0.00  0.00    +0.132 C 
ATOM     15  C   UNL     1      34.521 -15.360 -22.459  0.00  0.00    +0.019 C 
ATOM     16  C   UNL     1      32.774 -14.023 -25.547  0.00  0.00    +0.021 C 
ATOM     17  C   UNL     1      35.234 -16.528 -22.627  0.00  0.00    +0.063 C 
ATOM     18  C   UNL     1      33.234 -15.070 -26.334  0.00  0.00    +0.100 C 
ATOM     19  H   UNL     1      35.526 -17.717 -24.333  0.00  0.00    +0.154 HD
ENDBRANCH   6  12
ENDBRANCH   3   7
BRANCH   2  20
ATOM     20  C   UNL     1      32.361  -7.022 -22.956  0.00  0.00    +0.073 C 
BRANCH  20  21
ATOM     21  C   UNL     1      32.926  -6.375 -24.204  0.00  0.00    -0.007 C 
ATOM     22  C   UNL     1      34.209  -6.704 -24.641  0.00  0.00    -0.003 C 
ATOM     23  C   UNL     1      32.164  -5.449 -24.916  0.00  0.00    -0.003 C 
ATOM     24  C   UNL     1      34.730  -6.108 -25.789  0.00  0.00    -0.000 C 
ATOM     25  C   UNL     1      32.683  -4.853 -26.065  0.00  0.00    -0.000 C 
ATOM     26  C   UNL     1      33.967  -5.183 -26.501  0.00  0.00    -0.000 C 
ENDBRANCH  20  21
BRANCH  20  27
ATOM     27  C   UNL     1      30.957  -6.487 -22.628  0.00  0.00    -0.062 C 
BRANCH  27  28
ATOM     28  N   UNL     1      30.994  -5.583 -21.479  0.00  0.00    +0.382 N 
ATOM     29  H   UNL     1      31.963  -5.415 -21.210  0.00  0.00    -0.089 HD
ATOM     30  H   UNL     1      30.493  -6.007 -20.698  0.00  0.00    -0.089 HD
ATOM     31  H   UNL     1      30.551  -4.699 -21.728  0.00  0.00    -0.089 HD
ENDBRANCH  27  28
ENDBRANCH  20  27
ENDBRANCH   2  20
TORSDOF 6
ENDMDL
MODEL 6
REMARK VINA RESULT:     -10.0      1.784      2.440
REMARK  Name = 24963048
REMARK  6 active torsions:
REMARK  status: ('A' for Active; 'I' for Inactive)
REMARK    1  A    between atoms: N_2  and  C_20
REMARK    2  A    between atoms: C_3  and  C_7
REMARK    3  A    between atoms: C_6  and  C_12
REMARK    4  A    between atoms: C_20  and  C_21
REMARK    5  A    between atoms: C_20  and  C_27
REMARK    6  A    between atoms: C_27  and  N_28
REMARK                            x       y       z     vdW  Elec       q    Type
REMARK                         _______ _______ _______ _____ _____    ______ ____
ROOT
ATOM      1  O   UNL     1      33.174 -14.664 -24.842  0.00  0.00    -0.270 OA
ATOM      2  N   UNL     1      33.940 -12.821 -23.664  0.00  0.00    -0.300 N 
ATOM      3  C   UNL     1      33.717 -14.210 -23.804  0.00  0.00    +0.252 C 
ATOM      4  H   UNL     1      34.369 -12.504 -22.837  0.00  0.00    +0.150 HD
ENDROOT
BRANCH   3   7
ATOM      5  S   UNL     1      34.544 -16.695 -23.101  0.00  0.00    -0.082 S 
ATOM      6  C   UNL     1      34.924 -17.017 -21.463  0.00  0.00    +0.030 C 
ATOM      7  C   UNL     1      34.146 -15.067 -22.746  0.00  0.00    +0.083 C 
ATOM      8  C   UNL     1      34.751 -15.907 -20.665  0.00  0.00    +0.007 C 
ATOM      9  C   UNL     1      34.301 -14.778 -21.408  0.00  0.00    +0.012 C 
BRANCH   6  12
ATOM     10  N   UNL     1      33.801 -21.358 -20.106  0.00  0.00    -0.297 N 
ATOM     11  N   UNL     1      36.166 -20.973 -20.358  0.00  0.00    -0.229 NA
ATOM     12  C   UNL     1      35.360 -18.335 -21.097  0.00  0.00    +0.010 C 
ATOM     13  C   UNL     1      34.409 -19.309 -20.751  0.00  0.00    +0.033 C 
ATOM     14  C   UNL     1      34.882 -20.571 -20.403  0.00  0.00    +0.132 C 
ATOM     15  C   UNL     1      32.994 -19.358 -20.652  0.00  0.00    +0.019 C 
ATOM     16  C   UNL     1      36.705 -18.699 -21.068  0.00  0.00    +0.021 C 
ATOM     17  C   UNL     1      32.648 -20.631 -20.253  0.00  0.00    +0.063 C 
ATOM     18  C   UNL     1      37.037 -19.996 -20.701  0.00  0.00    +0.100 C 
ATOM     19  H   UNL     1      33.846 -22.302 -19.828  0.00  0.00    +0.154 HD
ENDBRANCH   6  12
ENDBRANCH   3   7
BRANCH   2  20
ATOM     20  C   UNL     1      33.581 -11.841 -24.652  0.00  0.00    +0.073 C 
BRANCH  20  21
ATOM     21  C   UNL     1      33.682 -10.443 -24.077  0.00  0.00    -0.007 C 
ATOM     22  C   UNL     1      34.777  -9.637 -24.389  0.00  0.00    -0.003 C 
ATOM     23  C   UNL     1      32.680  -9.961 -23.234  0.00  0.00    -0.003 C 
ATOM     24  C   UNL     1      34.871  -8.351 -23.859  0.00  0.00    -0.000 C 
ATOM     25  C   UNL     1      32.773  -8.674 -22.704  0.00  0.00    -0.000 C 
ATOM     26  C   UNL     1      33.868  -7.869 -23.017  0.00  0.00    -0.000 C 
ENDBRANCH  20  21
BRANCH  20  27
ATOM     27  C   UNL     1      34.424 -11.989 -25.929  0.00  0.00    -0.062 C 
BRANCH  27  28
ATOM     28  N   UNL     1      33.663 -12.650 -26.988  0.00  0.00    +0.382 N 
ATOM     29  H   UNL     1      33.046 -11.973 -27.437  0.00  0.00    -0.089 HD
ATOM     30  H   UNL     1      33.105 -13.403 -26.586  0.00  0.00    -0.089 HD
ATOM     31  H   UNL     1      34.307 -13.035 -27.680  0.00  0.00    -0.089 HD
ENDBRANCH  27  28
ENDBRANCH  20  27
ENDBRANCH   2  20
TORSDOF 6
ENDMDL
MODEL 7
REMARK VINA RESULT:      -9.8      3.311      5.015
REMARK  Name = 24963048
REMARK  6 active torsions:
REMARK  status: ('A' for Active; 'I' for Inactive)
REMARK    1  A    between atoms: N_2  and  C_20
REMARK    2  A    between atoms: C_3  and  C_7
REMARK    3  A    between atoms: C_6  and  C_12
REMARK    4  A    between atoms: C_20  and  C_21
REMARK    5  A    between atoms: C_20  and  C_27
REMARK    6  A    between atoms: C_27  and  N_28
REMARK                            x       y       z     vdW  Elec       q    Type
REMARK                         _______ _______ _______ _____ _____    ______ ____
ROOT
ATOM      1  O   UNL     1      34.502 -19.222 -23.511  0.00  0.00    -0.270 OA
ATOM      2  N   UNL     1      34.435 -17.428 -22.047  0.00  0.00    -0.300 N 
ATOM      3  C   UNL     1      34.674 -18.788 -22.344  0.00  0.00    +0.252 C 
ATOM      4  H   UNL     1      34.580 -17.125 -21.121  0.00  0.00    +0.150 HD
ENDROOT
BRANCH   3   7
ATOM      5  S   UNL     1      33.985 -20.474 -20.336  0.00  0.00    -0.082 S 
ATOM      6  C   UNL     1      35.218 -21.194 -19.390  0.00  0.00    +0.030 C 
ATOM      7  C   UNL     1      35.133 -19.634 -21.290  0.00  0.00    +0.083 C 
ATOM      8  C   UNL     1      36.475 -20.801 -19.794  0.00  0.00    +0.007 C 
ATOM      9  C   UNL     1      36.426 -19.898 -20.894  0.00  0.00    +0.012 C 
BRANCH   6  12
ATOM     10  N   UNL     1      36.377 -23.326 -15.382  0.00  0.00    -0.297 N 
ATOM     11  N   UNL     1      34.168 -23.851 -16.187  0.00  0.00    -0.229 NA
ATOM     12  C   UNL     1      34.847 -22.085 -18.327  0.00  0.00    +0.010 C 
ATOM     13  C   UNL     1      35.757 -22.345 -17.290  0.00  0.00    +0.033 C 
ATOM     14  C   UNL     1      35.351 -23.216 -16.283  0.00  0.00    +0.132 C 
ATOM     15  C   UNL     1      37.075 -21.928 -16.965  0.00  0.00    +0.019 C 
ATOM     16  C   UNL     1      33.606 -22.717 -18.277  0.00  0.00    +0.021 C 
ATOM     17  C   UNL     1      37.430 -22.548 -15.787  0.00  0.00    +0.063 C 
ATOM     18  C   UNL     1      33.331 -23.565 -17.212  0.00  0.00    +0.100 C 
ATOM     19  H   UNL     1      36.360 -23.881 -14.568  0.00  0.00    +0.154 HD
ENDBRANCH   6  12
ENDBRANCH   3   7
BRANCH   2  20
ATOM     20  C   UNL     1      33.989 -16.456 -23.008  0.00  0.00    +0.073 C 
BRANCH  20  21
ATOM     21  C   UNL     1      33.352 -15.271 -22.311  0.00  0.00    -0.007 C 
ATOM     22  C   UNL     1      32.930 -14.168 -23.054  0.00  0.00    -0.003 C 
ATOM     23  C   UNL     1      33.187 -15.281 -20.926  0.00  0.00    -0.003 C 
ATOM     24  C   UNL     1      32.344 -13.077 -22.413  0.00  0.00    -0.000 C 
ATOM     25  C   UNL     1      32.601 -14.191 -20.284  0.00  0.00    -0.000 C 
ATOM     26  C   UNL     1      32.179 -13.089 -21.028  0.00  0.00    -0.000 C 
ENDBRANCH  20  21
BRANCH  20  27
ATOM     27  C   UNL     1      35.131 -16.016 -23.939  0.00  0.00    -0.062 C 
BRANCH  27  28
ATOM     28  N   UNL     1      35.040 -16.686 -25.235  0.00  0.00    +0.382 N 
ATOM     29  H   UNL     1      35.313 -16.037 -25.973  0.00  0.00    -0.089 HD
ATOM     30  H   UNL     1      34.080 -16.994 -25.392  0.00  0.00    -0.089 HD
ATOM     31  H   UNL     1      35.663 -17.494 -25.244  0.00  0.00    -0.089 HD
ENDBRANCH  27  28
ENDBRANCH  20  27
ENDBRANCH   2  20
TORSDOF 6
ENDMDL
MODEL 8
REMARK VINA RESULT:      -9.6      3.086      9.351
REMARK  Name = 24963048
REMARK  6 active torsions:
REMARK  status: ('A' for Active; 'I' for Inactive)
REMARK    1  A    between atoms: N_2  and  C_20
REMARK    2  A    between atoms: C_3  and  C_7
REMARK    3  A    between atoms: C_6  and  C_12
REMARK    4  A    between atoms: C_20  and  C_21
REMARK    5  A    between atoms: C_20  and  C_27
REMARK    6  A    between atoms: C_27  and  N_28
REMARK                            x       y       z     vdW  Elec       q    Type
REMARK                         _______ _______ _______ _____ _____    ______ ____
ROOT
ATOM      1  O   UNL     1      34.201 -12.491 -25.325  0.00  0.00    -0.270 OA
ATOM      2  N   UNL     1      33.441 -14.309 -24.105  0.00  0.00    -0.300 N 
ATOM      3  C   UNL     1      33.564 -12.920 -24.329  0.00  0.00    +0.252 C 
ATOM      4  H   UNL     1      32.935 -14.606 -23.315  0.00  0.00    +0.150 HD
ENDROOT
BRANCH   3   7
ATOM      5  S   UNL     1      33.300 -10.362 -23.468  0.00  0.00    -0.082 S 
ATOM      6  C   UNL     1      32.234 -10.023 -22.172  0.00  0.00    +0.030 C 
ATOM      7  C   UNL     1      32.929 -12.034 -23.408  0.00  0.00    +0.083 C 
ATOM      8  C   UNL     1      31.610 -11.160 -21.705  0.00  0.00    +0.007 C 
ATOM      9  C   UNL     1      32.013 -12.324 -22.421  0.00  0.00    +0.012 C 
BRANCH   6  12
ATOM     10  N   UNL     1      31.057  -5.593 -23.140  0.00  0.00    -0.297 N 
ATOM     11  N   UNL     1      31.811  -5.953 -20.881  0.00  0.00    -0.229 NA
ATOM     12  C   UNL     1      32.098  -8.667 -21.720  0.00  0.00    +0.010 C 
ATOM     13  C   UNL     1      31.635  -7.683 -22.608  0.00  0.00    +0.033 C 
ATOM     14  C   UNL     1      31.522  -6.384 -22.123  0.00  0.00    +0.132 C 
ATOM     15  C   UNL     1      31.221  -7.653 -23.965  0.00  0.00    +0.019 C 
ATOM     16  C   UNL     1      32.412  -8.275 -20.420  0.00  0.00    +0.021 C 
ATOM     17  C   UNL     1      30.871  -6.354 -24.265  0.00  0.00    +0.063 C 
ATOM     18  C   UNL     1      32.252  -6.941 -20.069  0.00  0.00    +0.100 C 
ATOM     19  H   UNL     1      30.884  -4.626 -23.074  0.00  0.00    +0.154 HD
ENDBRANCH   6  12
ENDBRANCH   3   7
BRANCH   2  20
ATOM     20  C   UNL     1      34.009 -15.319 -24.957  0.00  0.00    +0.073 C 
BRANCH  20  21
ATOM     21  C   UNL     1      34.475 -16.506 -24.138  0.00  0.00    -0.007 C 
ATOM     22  C   UNL     1      34.541 -17.772 -24.719  0.00  0.00    -0.003 C 
ATOM     23  C   UNL     1      34.836 -16.333 -22.801  0.00  0.00    -0.003 C 
ATOM     24  C   UNL     1      34.969 -18.865 -23.965  0.00  0.00    -0.000 C 
ATOM     25  C   UNL     1      35.263 -17.425 -22.047  0.00  0.00    -0.000 C 
ATOM     26  C   UNL     1      35.330 -18.691 -22.629  0.00  0.00    -0.000 C 
ENDBRANCH  20  21
BRANCH  20  27
ATOM     27  C   UNL     1      33.028 -15.745 -26.061  0.00  0.00    -0.062 C 
BRANCH  27  28
ATOM     28  N   UNL     1      32.269 -14.600 -26.562  0.00  0.00    +0.382 N 
ATOM     29  H   UNL     1      32.851 -13.763 -26.520  0.00  0.00    -0.089 HD
ATOM     30  H   UNL     1      31.439 -14.465 -25.985  0.00  0.00    -0.089 HD
ATOM     31  H   UNL     1      31.989 -14.773 -27.527  0.00  0.00    -0.089 HD
ENDBRANCH  27  28
ENDBRANCH  20  27
ENDBRANCH   2  20
TORSDOF 6
ENDMDL
MODEL 9
REMARK VINA RESULT:      -9.2      3.988      6.556
REMARK  Name = 24963048
REMARK  6 active torsions:
REMARK  status: ('A' for Active; 'I' for Inactive)
REMARK    1  A    between atoms: N_2  and  C_20
REMARK    2  A    between atoms: C_3  and  C_7
REMARK    3  A    between atoms: C_6  and  C_12
REMARK    4  A    between atoms: C_20  and  C_21
REMARK    5  A    between atoms: C_20  and  C_27
REMARK    6  A    between atoms: C_27  and  N_28
REMARK                            x       y       z     vdW  Elec       q    Type
REMARK                         _______ _______ _______ _____ _____    ______ ____
ROOT
ATOM      1  O   UNL     1      30.901  -8.650 -23.802  0.00  0.00    -0.270 OA
ATOM      2  N   UNL     1      32.410  -8.043 -22.152  0.00  0.00    -0.300 N 
ATOM      3  C   UNL     1      31.678  -9.007 -22.880  0.00  0.00    +0.252 C 
ATOM      4  H   UNL     1      33.008  -8.361 -21.438  0.00  0.00    +0.150 HD
ENDROOT
BRANCH   3   7
ATOM      5  S   UNL     1      33.047 -11.289 -23.397  0.00  0.00    -0.082 S 
ATOM      6  C   UNL     1      32.687 -12.701 -22.498  0.00  0.00    +0.030 C 
ATOM      7  C   UNL     1      31.867 -10.383 -22.549  0.00  0.00    +0.083 C 
ATOM      8  C   UNL     1      31.689 -12.484 -21.573  0.00  0.00    +0.007 C 
ATOM      9  C   UNL     1      31.215 -11.142 -21.603  0.00  0.00    +0.012 C 
BRANCH   6  12
ATOM     10  N   UNL     1      33.904 -16.003 -25.591  0.00  0.00    -0.297 N 
ATOM     11  N   UNL     1      34.840 -16.305 -23.392  0.00  0.00    -0.229 NA
ATOM     12  C   UNL     1      33.416 -13.907 -22.777  0.00  0.00    +0.010 C 
ATOM     13  C   UNL     1      33.365 -14.465 -24.065  0.00  0.00    +0.033 C 
ATOM     14  C   UNL     1      34.088 -15.635 -24.285  0.00  0.00    +0.132 C 
ATOM     15  C   UNL     1      32.732 -14.136 -25.292  0.00  0.00    +0.019 C 
ATOM     16  C   UNL     1      34.181 -14.561 -21.813  0.00  0.00    +0.021 C 
ATOM     17  C   UNL     1      33.081 -15.100 -26.213  0.00  0.00    +0.063 C 
ATOM     18  C   UNL     1      34.852 -15.723 -22.170  0.00  0.00    +0.100 C 
ATOM     19  H   UNL     1      34.302 -16.797 -26.018  0.00  0.00    +0.154 HD
ENDBRANCH   6  12
ENDBRANCH   3   7
BRANCH   2  20
ATOM     20  C   UNL     1      32.337  -6.626 -22.385  0.00  0.00    +0.073 C 
BRANCH  20  21
ATOM     21  C   UNL     1      32.944  -6.275 -23.728  0.00  0.00    -0.007 C 
ATOM     22  C   UNL     1      32.272  -5.412 -24.593  0.00  0.00    -0.003 C 
ATOM     23  C   UNL     1      34.174  -6.817 -24.101  0.00  0.00    -0.003 C 
ATOM     24  C   UNL     1      32.830  -5.089 -25.830  0.00  0.00    -0.000 C 
ATOM     25  C   UNL     1      34.732  -6.495 -25.338  0.00  0.00    -0.000 C 
ATOM     26  C   UNL     1      34.060  -5.630 -26.202  0.00  0.00    -0.000 C 
ENDBRANCH  20  21
BRANCH  20  27
ATOM     27  C   UNL     1      30.896  -6.106 -22.263  0.00  0.00    -0.062 C 
BRANCH  27  28
ATOM     28  N   UNL     1      30.774  -5.144 -21.169  0.00  0.00    +0.382 N 
ATOM     29  H   UNL     1      31.374  -5.431 -20.395  0.00  0.00    -0.089 HD
ATOM     30  H   UNL     1      29.805  -5.110 -20.852  0.00  0.00    -0.089 HD
ATOM     31  H   UNL     1      31.058  -4.220 -21.496  0.00  0.00    -0.089 HD
ENDBRANCH  27  28
ENDBRANCH  20  27
ENDBRANCH   2  20
TORSDOF 6
ENDMDL
