MODEL 1
REMARK VINA RESULT:      -8.3      0.000      0.000
REMARK  Name = 9794203
REMARK  4 active torsions:
REMARK  status: ('A' for Active; 'I' for Inactive)
REMARK    1  A    between atoms: C_1  and  C_2
REMARK    2  A    between atoms: C_1  and  N_8
REMARK    3  A    between atoms: C_1  and  C_12
REMARK    4  A    between atoms: C_12  and  C_14
REMARK                            x       y       z     vdW  Elec       q    Type
REMARK                         _______ _______ _______ _____ _____    ______ ____
ROOT
ATOM      1  C   UNL     1      35.665 -18.276 -22.247  0.00  0.00    -0.036 C 
ENDROOT
BRANCH   1   2
ATOM      2  C   UNL     1      34.976 -19.268 -21.371  0.00  0.00    -0.042 C 
ATOM      3  C   UNL     1      35.723 -20.203 -20.655  0.00  0.00    -0.006 C 
ATOM      4  C   UNL     1      33.585 -19.259 -21.268  0.00  0.00    -0.006 C 
ATOM      5  C   UNL     1      35.078 -21.131 -19.836  0.00  0.00    -0.000 C 
ATOM      6  C   UNL     1      32.941 -20.186 -20.448  0.00  0.00    -0.000 C 
ATOM      7  C   UNL     1      33.687 -21.122 -19.733  0.00  0.00    -0.000 C 
ENDBRANCH   1   2
BRANCH   1   8
ATOM      8  N   UNL     1      37.134 -18.454 -22.227  0.00  0.00    +0.385 N 
ATOM      9  H   UNL     1      37.566 -17.658 -21.757  0.00  0.00    -0.089 HD
ATOM     10  H   UNL     1      37.482 -18.513 -23.185  0.00  0.00    -0.089 HD
ATOM     11  H   UNL     1      37.366 -19.311 -21.727  0.00  0.00    -0.089 HD
ENDBRANCH   1   8
BRANCH   1  12
ATOM     12  C   UNL     1      35.179 -18.289 -23.725  0.00  0.00    +0.028 C 
BRANCH  12  14
ATOM     13  N   UNL     1      34.144 -16.908 -25.423  0.00  0.00    -0.248 NA
ATOM     14  C   UNL     1      34.541 -16.982 -24.142  0.00  0.00    +0.057 C 
ATOM     15  C   UNL     1      34.413 -15.983 -23.206  0.00  0.00    +0.015 C 
ATOM     16  C   UNL     1      33.822 -14.795 -23.620  0.00  0.00    +0.003 C 
ATOM     17  C   UNL     1      33.574 -15.737 -25.791  0.00  0.00    +0.098 C 
ATOM     18  C   UNL     1      33.392 -14.661 -24.937  0.00  0.00    +0.021 C 
ENDBRANCH  12  14
ENDBRANCH   1  12
TORSDOF 4
ENDMDL
MODEL 2
REMARK VINA RESULT:      -8.2      1.594      2.243
REMARK  Name = 9794203
REMARK  4 active torsions:
REMARK  status: ('A' for Active; 'I' for Inactive)
REMARK    1  A    between atoms: C_1  and  C_2
REMARK    2  A    between atoms: C_1  and  N_8
REMARK    3  A    between atoms: C_1  and  C_12
REMARK    4  A    between atoms: C_12  and  C_14
REMARK                            x       y       z     vdW  Elec       q    Type
REMARK                         _______ _______ _______ _____ _____    ______ ____
ROOT
ATOM      1  C   UNL     1      35.384 -18.784 -22.038  0.00  0.00    -0.036 C 
ENDROOT
BRANCH   1   2
ATOM      2  C   UNL     1      34.763 -19.761 -21.097  0.00  0.00    -0.042 C 
ATOM      3  C   UNL     1      33.378 -19.784 -20.930  0.00  0.00    -0.006 C 
ATOM      4  C   UNL     1      35.567 -20.651 -20.385  0.00  0.00    -0.006 C 
ATOM      5  C   UNL     1      32.797 -20.698 -20.051  0.00  0.00    -0.000 C 
ATOM      6  C   UNL     1      34.985 -21.564 -19.506  0.00  0.00    -0.000 C 
ATOM      7  C   UNL     1      33.601 -21.588 -19.338  0.00  0.00    -0.000 C 
ENDBRANCH   1   2
BRANCH   1   8
ATOM      8  N   UNL     1      34.565 -18.596 -23.255  0.00  0.00    +0.385 N 
ATOM      9  H   UNL     1      35.169 -18.337 -24.035  0.00  0.00    -0.089 HD
ATOM     10  H   UNL     1      33.881 -17.856 -23.094  0.00  0.00    -0.089 HD
ATOM     11  H   UNL     1      34.079 -19.465 -23.476  0.00  0.00    -0.089 HD
ENDBRANCH   1   8
BRANCH   1  12
ATOM     12  C   UNL     1      35.671 -17.390 -21.408  0.00  0.00    +0.028 C 
BRANCH  12  14
ATOM     13  N   UNL     1      35.049 -15.705 -23.032  0.00  0.00    -0.248 NA
ATOM     14  C   UNL     1      34.712 -16.323 -21.888  0.00  0.00    +0.057 C 
ATOM     15  C   UNL     1      33.588 -16.062 -21.139  0.00  0.00    +0.015 C 
ATOM     16  C   UNL     1      32.727 -15.075 -21.608  0.00  0.00    +0.003 C 
ATOM     17  C   UNL     1      34.189 -14.751 -23.456  0.00  0.00    +0.098 C 
ATOM     18  C   UNL     1      33.026 -14.403 -22.788  0.00  0.00    +0.021 C 
ENDBRANCH  12  14
ENDBRANCH   1  12
TORSDOF 4
ENDMDL
MODEL 3
REMARK VINA RESULT:      -8.2      0.938      1.377
REMARK  Name = 9794203
REMARK  4 active torsions:
REMARK  status: ('A' for Active; 'I' for Inactive)
REMARK    1  A    between atoms: C_1  and  C_2
REMARK    2  A    between atoms: C_1  and  N_8
REMARK    3  A    between atoms: C_1  and  C_12
REMARK    4  A    between atoms: C_12  and  C_14
REMARK                            x       y       z     vdW  Elec       q    Type
REMARK                         _______ _______ _______ _____ _____    ______ ____
ROOT
ATOM      1  C   UNL     1      35.892 -18.623 -21.741  0.00  0.00    -0.036 C 
ENDROOT
BRANCH   1   2
ATOM      2  C   UNL     1      35.036 -19.580 -20.982  0.00  0.00    -0.042 C 
ATOM      3  C   UNL     1      35.624 -20.624 -20.266  0.00  0.00    -0.006 C 
ATOM      4  C   UNL     1      33.650 -19.431 -20.987  0.00  0.00    -0.006 C 
ATOM      5  C   UNL     1      34.823 -21.519 -19.555  0.00  0.00    -0.000 C 
ATOM      6  C   UNL     1      32.850 -20.326 -20.276  0.00  0.00    -0.000 C 
ATOM      7  C   UNL     1      33.436 -21.370 -19.561  0.00  0.00    -0.000 C 
ENDBRANCH   1   2
BRANCH   1   8
ATOM      8  N   UNL     1      37.332 -18.886 -21.529  0.00  0.00    +0.385 N 
ATOM      9  H   UNL     1      37.510 -19.888 -21.608  0.00  0.00    -0.089 HD
ATOM     10  H   UNL     1      37.603 -18.566 -20.598  0.00  0.00    -0.089 HD
ATOM     11  H   UNL     1      37.877 -18.388 -22.232  0.00  0.00    -0.089 HD
ENDBRANCH   1   8
BRANCH   1  12
ATOM     12  C   UNL     1      35.609 -18.594 -23.271  0.00  0.00    +0.028 C 
BRANCH  12  14
ATOM     13  N   UNL     1      34.893 -16.329 -22.804  0.00  0.00    -0.248 NA
ATOM     14  C   UNL     1      34.946 -17.310 -23.719  0.00  0.00    +0.057 C 
ATOM     15  C   UNL     1      34.454 -17.235 -25.002  0.00  0.00    +0.015 C 
ATOM     16  C   UNL     1      33.851 -16.042 -25.383  0.00  0.00    +0.003 C 
ATOM     17  C   UNL     1      34.298 -15.183 -23.210  0.00  0.00    +0.098 C 
ATOM     18  C   UNL     1      33.767 -14.991 -24.475  0.00  0.00    +0.021 C 
ENDBRANCH  12  14
ENDBRANCH   1  12
TORSDOF 4
ENDMDL
MODEL 4
REMARK VINA RESULT:      -8.1      1.637      5.829
REMARK  Name = 9794203
REMARK  4 active torsions:
REMARK  status: ('A' for Active; 'I' for Inactive)
REMARK    1  A    between atoms: C_1  and  C_2
REMARK    2  A    between atoms: C_1  and  N_8
REMARK    3  A    between atoms: C_1  and  C_12
REMARK    4  A    between atoms: C_12  and  C_14
REMARK                            x       y       z     vdW  Elec       q    Type
REMARK                         _______ _______ _______ _____ _____    ______ ____
ROOT
ATOM      1  C   UNL     1      35.167 -18.204 -22.420  0.00  0.00    -0.036 C 
ENDROOT
BRANCH   1   2
ATOM      2  C   UNL     1      34.834 -16.765 -22.213  0.00  0.00    -0.042 C 
ATOM      3  C   UNL     1      34.663 -15.924 -23.314  0.00  0.00    -0.006 C 
ATOM      4  C   UNL     1      34.692 -16.260 -20.921  0.00  0.00    -0.006 C 
ATOM      5  C   UNL     1      34.351 -14.578 -23.120  0.00  0.00    -0.000 C 
ATOM      6  C   UNL     1      34.380 -14.915 -20.728  0.00  0.00    -0.000 C 
ATOM      7  C   UNL     1      34.210 -14.073 -21.828  0.00  0.00    -0.000 C 
ENDBRANCH   1   2
BRANCH   1   8
ATOM      8  N   UNL     1      35.874 -18.425 -23.700  0.00  0.00    +0.385 N 
ATOM      9  H   UNL     1      36.068 -19.421 -23.814  0.00  0.00    -0.089 HD
ATOM     10  H   UNL     1      36.753 -17.907 -23.698  0.00  0.00    -0.089 HD
ATOM     11  H   UNL     1      35.290 -18.103 -24.472  0.00  0.00    -0.089 HD
ENDBRANCH   1   8
BRANCH   1  12
ATOM     12  C   UNL     1      36.006 -18.833 -21.270  0.00  0.00    +0.028 C 
BRANCH  12  14
ATOM     13  N   UNL     1      36.020 -20.751 -19.792  0.00  0.00    -0.248 NA
ATOM     14  C   UNL     1      35.263 -19.925 -20.533  0.00  0.00    +0.057 C 
ATOM     15  C   UNL     1      33.896 -19.998 -20.668  0.00  0.00    +0.015 C 
ATOM     16  C   UNL     1      33.242 -21.013 -19.978  0.00  0.00    +0.003 C 
ATOM     17  C   UNL     1      35.349 -21.726 -19.136  0.00  0.00    +0.098 C 
ATOM     18  C   UNL     1      33.976 -21.898 -19.195  0.00  0.00    +0.021 C 
ENDBRANCH  12  14
ENDBRANCH   1  12
TORSDOF 4
ENDMDL
MODEL 5
REMARK VINA RESULT:      -8.1      1.197      2.035
REMARK  Name = 9794203
REMARK  4 active torsions:
REMARK  status: ('A' for Active; 'I' for Inactive)
REMARK    1  A    between atoms: C_1  and  C_2
REMARK    2  A    between atoms: C_1  and  N_8
REMARK    3  A    between atoms: C_1  and  C_12
REMARK    4  A    between atoms: C_12  and  C_14
REMARK                            x       y       z     vdW  Elec       q    Type
REMARK                         _______ _______ _______ _____ _____    ______ ____
ROOT
ATOM      1  C   UNL     1      34.545 -18.261 -21.397  0.00  0.00    -0.036 C 
ENDROOT
BRANCH   1   2
ATOM      2  C   UNL     1      34.598 -19.592 -20.726  0.00  0.00    -0.042 C 
ATOM      3  C   UNL     1      33.417 -20.223 -20.333  0.00  0.00    -0.006 C 
ATOM      4  C   UNL     1      35.829 -20.206 -20.491  0.00  0.00    -0.006 C 
ATOM      5  C   UNL     1      33.468 -21.469 -19.706  0.00  0.00    -0.000 C 
ATOM      6  C   UNL     1      35.878 -21.451 -19.865  0.00  0.00    -0.000 C 
ATOM      7  C   UNL     1      34.698 -22.082 -19.471  0.00  0.00    -0.000 C 
ENDBRANCH   1   2
BRANCH   1   8
ATOM      8  N   UNL     1      35.247 -17.222 -20.612  0.00  0.00    +0.385 N 
ATOM      9  H   UNL     1      34.791 -17.115 -19.705  0.00  0.00    -0.089 HD
ATOM     10  H   UNL     1      35.214 -16.336 -21.116  0.00  0.00    -0.089 HD
ATOM     11  H   UNL     1      36.218 -17.499 -20.473  0.00  0.00    -0.089 HD
ENDBRANCH   1   8
BRANCH   1  12
ATOM     12  C   UNL     1      35.107 -18.258 -22.848  0.00  0.00    +0.028 C 
BRANCH  12  14
ATOM     13  N   UNL     1      34.227 -16.010 -23.040  0.00  0.00    -0.248 NA
ATOM     14  C   UNL     1      34.535 -17.142 -23.694  0.00  0.00    +0.057 C 
ATOM     15  C   UNL     1      34.372 -17.356 -25.043  0.00  0.00    +0.015 C 
ATOM     16  C   UNL     1      33.845 -16.310 -25.793  0.00  0.00    +0.003 C 
ATOM     17  C   UNL     1      33.716 -15.016 -23.801  0.00  0.00    +0.098 C 
ATOM     18  C   UNL     1      33.507 -15.114 -25.167  0.00  0.00    +0.021 C 
ENDBRANCH  12  14
ENDBRANCH   1  12
TORSDOF 4
ENDMDL
MODEL 6
REMARK VINA RESULT:      -8.0      1.718      6.105
REMARK  Name = 9794203
REMARK  4 active torsions:
REMARK  status: ('A' for Active; 'I' for Inactive)
REMARK    1  A    between atoms: C_1  and  C_2
REMARK    2  A    between atoms: C_1  and  N_8
REMARK    3  A    between atoms: C_1  and  C_12
REMARK    4  A    between atoms: C_12  and  C_14
REMARK                            x       y       z     vdW  Elec       q    Type
REMARK                         _______ _______ _______ _____ _____    ______ ____
ROOT
ATOM      1  C   UNL     1      34.946 -18.175 -21.692  0.00  0.00    -0.036 C 
ENDROOT
BRANCH   1   2
ATOM      2  C   UNL     1      34.669 -17.481 -22.983  0.00  0.00    -0.042 C 
ATOM      3  C   UNL     1      34.288 -16.139 -22.985  0.00  0.00    -0.006 C 
ATOM      4  C   UNL     1      34.792 -18.174 -24.188  0.00  0.00    -0.006 C 
ATOM      5  C   UNL     1      34.029 -15.490 -24.193  0.00  0.00    -0.000 C 
ATOM      6  C   UNL     1      34.534 -17.524 -25.395  0.00  0.00    -0.000 C 
ATOM      7  C   UNL     1      34.152 -16.182 -25.398  0.00  0.00    -0.000 C 
ENDBRANCH   1   2
BRANCH   1   8
ATOM      8  N   UNL     1      35.292 -17.219 -20.618  0.00  0.00    +0.385 N 
ATOM      9  H   UNL     1      34.471 -16.659 -20.384  0.00  0.00    -0.089 HD
ATOM     10  H   UNL     1      36.042 -16.606 -20.937  0.00  0.00    -0.089 HD
ATOM     11  H   UNL     1      35.599 -17.732 -19.792  0.00  0.00    -0.089 HD
ENDBRANCH   1   8
BRANCH   1  12
ATOM     12  C   UNL     1      33.783 -19.084 -21.198  0.00  0.00    +0.028 C 
BRANCH  12  14
ATOM     13  N   UNL     1      35.586 -20.284 -20.116  0.00  0.00    -0.248 NA
ATOM     14  C   UNL     1      34.260 -20.218 -20.318  0.00  0.00    +0.057 C 
ATOM     15  C   UNL     1      33.328 -21.085 -19.798  0.00  0.00    +0.015 C 
ATOM     16  C   UNL     1      33.799 -22.117 -18.993  0.00  0.00    +0.003 C 
ATOM     17  C   UNL     1      36.008 -21.300 -19.329  0.00  0.00    +0.098 C 
ATOM     18  C   UNL     1      35.164 -22.234 -18.750  0.00  0.00    +0.021 C 
ENDBRANCH  12  14
ENDBRANCH   1  12
TORSDOF 4
ENDMDL
MODEL 7
REMARK VINA RESULT:      -8.0      1.835      5.723
REMARK  Name = 9794203
REMARK  4 active torsions:
REMARK  status: ('A' for Active; 'I' for Inactive)
REMARK    1  A    between atoms: C_1  and  C_2
REMARK    2  A    between atoms: C_1  and  N_8
REMARK    3  A    between atoms: C_1  and  C_12
REMARK    4  A    between atoms: C_12  and  C_14
REMARK                            x       y       z     vdW  Elec       q    Type
REMARK                         _______ _______ _______ _____ _____    ______ ____
ROOT
ATOM      1  C   UNL     1      35.126 -17.167 -21.980  0.00  0.00    -0.036 C 
ENDROOT
BRANCH   1   2
ATOM      2  C   UNL     1      34.228 -16.002 -22.229  0.00  0.00    -0.042 C 
ATOM      3  C   UNL     1      33.405 -15.526 -21.207  0.00  0.00    -0.006 C 
ATOM      4  C   UNL     1      34.209 -15.390 -23.482  0.00  0.00    -0.006 C 
ATOM      5  C   UNL     1      32.565 -14.437 -21.439  0.00  0.00    -0.000 C 
ATOM      6  C   UNL     1      33.370 -14.301 -23.713  0.00  0.00    -0.000 C 
ATOM      7  C   UNL     1      32.547 -13.824 -22.692  0.00  0.00    -0.000 C 
ENDBRANCH   1   2
BRANCH   1   8
ATOM      8  N   UNL     1      35.450 -17.314 -20.545  0.00  0.00    +0.385 N 
ATOM      9  H   UNL     1      36.090 -16.570 -20.262  0.00  0.00    -0.089 HD
ATOM     10  H   UNL     1      35.893 -18.220 -20.387  0.00  0.00    -0.089 HD
ATOM     11  H   UNL     1      34.594 -17.253 -19.994  0.00  0.00    -0.089 HD
ENDBRANCH   1   8
BRANCH   1  12
ATOM     12  C   UNL     1      34.572 -18.521 -22.510  0.00  0.00    +0.028 C 
BRANCH  12  14
ATOM     13  N   UNL     1      35.548 -20.167 -21.026  0.00  0.00    -0.248 NA
ATOM     14  C   UNL     1      34.417 -19.557 -21.418  0.00  0.00    +0.057 C 
ATOM     15  C   UNL     1      33.161 -19.799 -20.913  0.00  0.00    +0.015 C 
ATOM     16  C   UNL     1      33.053 -20.756 -19.910  0.00  0.00    +0.003 C 
ATOM     17  C   UNL     1      35.404 -21.092 -20.050  0.00  0.00    +0.098 C 
ATOM     18  C   UNL     1      34.191 -21.420 -19.465  0.00  0.00    +0.021 C 
ENDBRANCH  12  14
ENDBRANCH   1  12
TORSDOF 4
ENDMDL
MODEL 8
REMARK VINA RESULT:      -7.9      1.554      1.978
REMARK  Name = 9794203
REMARK  4 active torsions:
REMARK  status: ('A' for Active; 'I' for Inactive)
REMARK    1  A    between atoms: C_1  and  C_2
REMARK    2  A    between atoms: C_1  and  N_8
REMARK    3  A    between atoms: C_1  and  C_12
REMARK    4  A    between atoms: C_12  and  C_14
REMARK                            x       y       z     vdW  Elec       q    Type
REMARK                         _______ _______ _______ _____ _____    ______ ____
ROOT
ATOM      1  C   UNL     1      34.461 -17.070 -21.749  0.00  0.00    -0.036 C 
ENDROOT
BRANCH   1   2
ATOM      2  C   UNL     1      34.769 -18.415 -21.182  0.00  0.00    -0.042 C 
ATOM      3  C   UNL     1      36.095 -18.797 -20.974  0.00  0.00    -0.006 C 
ATOM      4  C   UNL     1      33.732 -19.291 -20.861  0.00  0.00    -0.006 C 
ATOM      5  C   UNL     1      36.383 -20.055 -20.444  0.00  0.00    -0.000 C 
ATOM      6  C   UNL     1      34.021 -20.549 -20.331  0.00  0.00    -0.000 C 
ATOM      7  C   UNL     1      35.347 -20.931 -20.123  0.00  0.00    -0.000 C 
ENDBRANCH   1   2
BRANCH   1   8
ATOM      8  N   UNL     1      34.743 -15.989 -20.781  0.00  0.00    +0.385 N 
ATOM      9  H   UNL     1      34.819 -15.100 -21.276  0.00  0.00    -0.089 HD
ATOM     10  H   UNL     1      35.621 -16.184 -20.299  0.00  0.00    -0.089 HD
ATOM     11  H   UNL     1      33.986 -15.934 -20.100  0.00  0.00    -0.089 HD
ENDBRANCH   1   8
BRANCH   1  12
ATOM     12  C   UNL     1      35.203 -16.757 -23.080  0.00  0.00    +0.028 C 
BRANCH  12  14
ATOM     13  N   UNL     1      34.202 -14.587 -23.474  0.00  0.00    -0.248 NA
ATOM     14  C   UNL     1      34.428 -15.813 -23.974  0.00  0.00    +0.057 C 
ATOM     15  C   UNL     1      34.017 -16.262 -25.207  0.00  0.00    +0.015 C 
ATOM     16  C   UNL     1      33.307 -15.371 -26.004  0.00  0.00    +0.003 C 
ATOM     17  C   UNL     1      33.509 -13.748 -24.277  0.00  0.00    +0.098 C 
ATOM     18  C   UNL     1      33.044 -14.087 -25.537  0.00  0.00    +0.021 C 
ENDBRANCH  12  14
ENDBRANCH   1  12
TORSDOF 4
ENDMDL
MODEL 9
REMARK VINA RESULT:      -7.8      2.051      3.100
REMARK  Name = 9794203
REMARK  4 active torsions:
REMARK  status: ('A' for Active; 'I' for Inactive)
REMARK    1  A    between atoms: C_1  and  C_2
REMARK    2  A    between atoms: C_1  and  N_8
REMARK    3  A    between atoms: C_1  and  C_12
REMARK    4  A    between atoms: C_12  and  C_14
REMARK                            x       y       z     vdW  Elec       q    Type
REMARK                         _______ _______ _______ _____ _____    ______ ____
ROOT
ATOM      1  C   UNL     1      34.335 -19.543 -21.310  0.00  0.00    -0.036 C 
ENDROOT
BRANCH   1   2
ATOM      2  C   UNL     1      34.545 -20.564 -20.243  0.00  0.00    -0.042 C 
ATOM      3  C   UNL     1      33.452 -21.244 -19.704  0.00  0.00    -0.006 C 
ATOM      4  C   UNL     1      35.833 -20.838 -19.784  0.00  0.00    -0.006 C 
ATOM      5  C   UNL     1      33.649 -22.199 -18.705  0.00  0.00    -0.000 C 
ATOM      6  C   UNL     1      36.029 -21.793 -18.787  0.00  0.00    -0.000 C 
ATOM      7  C   UNL     1      34.937 -22.473 -18.247  0.00  0.00    -0.000 C 
ENDBRANCH   1   2
BRANCH   1   8
ATOM      8  N   UNL     1      33.123 -18.732 -21.063  0.00  0.00    +0.385 N 
ATOM      9  H   UNL     1      33.331 -18.010 -20.372  0.00  0.00    -0.089 HD
ATOM     10  H   UNL     1      32.377 -19.333 -20.711  0.00  0.00    -0.089 HD
ATOM     11  H   UNL     1      32.824 -18.293 -21.933  0.00  0.00    -0.089 HD
ENDBRANCH   1   8
BRANCH   1  12
ATOM     12  C   UNL     1      35.543 -18.585 -21.520  0.00  0.00    +0.028 C 
BRANCH  12  14
ATOM     13  N   UNL     1      34.895 -16.490 -20.494  0.00  0.00    -0.248 NA
ATOM     14  C   UNL     1      35.127 -17.137 -21.648  0.00  0.00    +0.057 C 
ATOM     15  C   UNL     1      35.015 -16.592 -22.907  0.00  0.00    +0.015 C 
ATOM     16  C   UNL     1      34.631 -15.259 -22.990  0.00  0.00    +0.003 C 
ATOM     17  C   UNL     1      34.522 -15.196 -20.615  0.00  0.00    +0.098 C 
ATOM     18  C   UNL     1      34.377 -14.540 -21.826  0.00  0.00    +0.021 C 
ENDBRANCH  12  14
ENDBRANCH   1  12
TORSDOF 4
ENDMDL
