MODEL 1
REMARK VINA RESULT:      -8.9      0.000      0.000
REMARK  Name = 1916699
REMARK  6 active torsions:
REMARK  status: ('A' for Active; 'I' for Inactive)
REMARK    1  A    between atoms: C_5  and  C_13
REMARK    2  A    between atoms: C_6  and  N_27
REMARK    3  A    between atoms: C_8  and  C_31
REMARK    4  A    between atoms: C_9  and  C_24
REMARK    5  A    between atoms: C_18  and  O_19
REMARK    6  A    between atoms: O_19  and  C_20
REMARK                            x       y       z     vdW  Elec       q    Type
REMARK                         _______ _______ _______ _____ _____    ______ ____
ROOT
ATOM      1  S   UNL     1      30.359 -23.463 -16.164  0.00  0.00    -0.054 S 
ATOM      2  N   UNL     1      31.977 -22.447 -18.017  0.00  0.00    -0.384 NA
ATOM      3  N   UNL     1      33.409 -21.546 -19.655  0.00  0.00    -0.332 N 
ATOM      4  C   UNL     1      32.936 -23.437 -15.994  0.00  0.00    +0.118 C 
ATOM      5  C   UNL     1      34.236 -23.147 -16.454  0.00  0.00    +0.003 C 
ATOM      6  C   UNL     1      32.450 -24.067 -14.804  0.00  0.00    +0.040 C 
ATOM      7  C   UNL     1      31.881 -23.063 -16.820  0.00  0.00    +0.149 C 
ATOM      8  C   UNL     1      34.387 -22.512 -17.683  0.00  0.00    +0.109 C 
ATOM      9  C   UNL     1      31.075 -24.145 -14.769  0.00  0.00    +0.094 C 
ATOM     10  C   UNL     1      33.248 -22.196 -18.401  0.00  0.00    +0.187 C 
ATOM     11  H   UNL     1      32.618 -21.307 -20.191  0.00  0.00    +0.145 HD
ATOM     12  H   UNL     1      34.311 -21.336 -19.988  0.00  0.00    +0.145 HD
ENDROOT
BRANCH   5  13
ATOM     13  C   UNL     1      35.376 -23.515 -15.636  0.00  0.00    -0.002 C 
ATOM     14  C   UNL     1      36.013 -22.552 -14.857  0.00  0.00    +0.003 C 
ATOM     15  C   UNL     1      35.829 -24.833 -15.632  0.00  0.00    +0.003 C 
ATOM     16  C   UNL     1      37.110 -22.907 -14.072  0.00  0.00    +0.037 C 
ATOM     17  C   UNL     1      36.925 -25.188 -14.846  0.00  0.00    +0.037 C 
ATOM     18  C   UNL     1      37.566 -24.225 -14.066  0.00  0.00    +0.139 C 
BRANCH  18  19
ATOM     19  O   UNL     1      38.637 -24.571 -13.300  0.00  0.00    -0.475 OA
BRANCH  19  20
ATOM     20  C   UNL     1      39.319 -25.776 -13.645  0.00  0.00    +0.206 C 
ATOM     21  C   UNL     1      40.527 -25.433 -14.490  0.00  0.00    +0.051 C 
ENDBRANCH  19  20
ENDBRANCH  18  19
ENDBRANCH   5  13
BRANCH   9  24
ATOM     22  O   UNL     1      30.424 -24.601 -12.530  0.00  0.00    -0.270 OA
ATOM     23  N   UNL     1      29.089 -25.409 -14.178  0.00  0.00    -0.325 N 
ATOM     24  C   UNL     1      30.221 -24.694 -13.763  0.00  0.00    +0.250 C 
ATOM     25  H   UNL     1      28.481 -25.799 -13.508  0.00  0.00    +0.145 HD
ATOM     26  H   UNL     1      28.900 -25.519 -15.138  0.00  0.00    +0.145 HD
ENDBRANCH   9  24
BRANCH   6  27
ATOM     27  N   UNL     1      33.231 -24.545 -13.802  0.00  0.00    -0.359 N 
ATOM     28  H   UNL     1      34.186 -24.308 -13.766  0.00  0.00    +0.142 HD
ATOM     29  H   UNL     1      32.843 -25.130 -13.112  0.00  0.00    +0.142 HD
ENDBRANCH   6  27
BRANCH   8  31
ATOM     30  N   UNL     1      36.745 -21.942 -18.596  0.00  0.00    -0.191 NA
ATOM     31  C   UNL     1      35.693 -22.197 -18.188  0.00  0.00    +0.104 C 
ENDBRANCH   8  31
TORSDOF 6
ENDMDL
MODEL 2
REMARK VINA RESULT:      -8.0      2.757      5.116
REMARK  Name = 1916699
REMARK  6 active torsions:
REMARK  status: ('A' for Active; 'I' for Inactive)
REMARK    1  A    between atoms: C_5  and  C_13
REMARK    2  A    between atoms: C_6  and  N_27
REMARK    3  A    between atoms: C_8  and  C_31
REMARK    4  A    between atoms: C_9  and  C_24
REMARK    5  A    between atoms: C_18  and  O_19
REMARK    6  A    between atoms: O_19  and  C_20
REMARK                            x       y       z     vdW  Elec       q    Type
REMARK                         _______ _______ _______ _____ _____    ______ ____
ROOT
ATOM      1  S   UNL     1      30.596 -23.924 -13.844  0.00  0.00    -0.054 S 
ATOM      2  N   UNL     1      33.105 -24.504 -13.170  0.00  0.00    -0.384 NA
ATOM      3  N   UNL     1      35.324 -25.019 -12.575  0.00  0.00    -0.332 N 
ATOM      4  C   UNL     1      32.649 -23.482 -15.347  0.00  0.00    +0.118 C 
ATOM      5  C   UNL     1      34.024 -23.497 -15.656  0.00  0.00    +0.003 C 
ATOM      6  C   UNL     1      31.501 -23.030 -16.073  0.00  0.00    +0.040 C 
ATOM      7  C   UNL     1      32.280 -23.993 -14.107  0.00  0.00    +0.149 C 
ATOM      8  C   UNL     1      34.915 -24.014 -14.720  0.00  0.00    +0.109 C 
ATOM      9  C   UNL     1      30.327 -23.210 -15.374  0.00  0.00    +0.094 C 
ATOM     10  C   UNL     1      34.408 -24.490 -13.525  0.00  0.00    +0.187 C 
ATOM     11  H   UNL     1      34.996 -25.367 -11.715  0.00  0.00    +0.145 HD
ATOM     12  H   UNL     1      36.288 -25.036 -12.778  0.00  0.00    +0.145 HD
ENDROOT
BRANCH   5  13
ATOM     13  C   UNL     1      34.470 -22.976 -16.933  0.00  0.00    -0.002 C 
ATOM     14  C   UNL     1      33.823 -23.362 -18.105  0.00  0.00    +0.003 C 
ATOM     15  C   UNL     1      35.544 -22.089 -16.984  0.00  0.00    +0.003 C 
ATOM     16  C   UNL     1      34.253 -22.861 -19.334  0.00  0.00    +0.037 C 
ATOM     17  C   UNL     1      35.974 -21.588 -18.213  0.00  0.00    +0.037 C 
ATOM     18  C   UNL     1      35.328 -21.974 -19.388  0.00  0.00    +0.139 C 
BRANCH  18  19
ATOM     19  O   UNL     1      35.748 -21.485 -20.587  0.00  0.00    -0.475 OA
BRANCH  19  20
ATOM     20  C   UNL     1      35.729 -20.069 -20.755  0.00  0.00    +0.206 C 
ATOM     21  C   UNL     1      34.301 -19.619 -20.982  0.00  0.00    +0.051 C 
ENDBRANCH  19  20
ENDBRANCH  18  19
ENDBRANCH   5  13
BRANCH   9  24
ATOM     22  O   UNL     1      28.362 -21.875 -15.373  0.00  0.00    -0.270 OA
ATOM     23  N   UNL     1      28.308 -23.792 -16.588  0.00  0.00    -0.325 N 
ATOM     24  C   UNL     1      28.987 -22.894 -15.753  0.00  0.00    +0.250 C 
ATOM     25  H   UNL     1      27.382 -23.602 -16.866  0.00  0.00    +0.145 HD
ATOM     26  H   UNL     1      28.756 -24.612 -16.897  0.00  0.00    +0.145 HD
ENDBRANCH   9  24
BRANCH   6  27
ATOM     27  N   UNL     1      31.532 -22.479 -17.313  0.00  0.00    -0.359 N 
ATOM     28  H   UNL     1      32.010 -22.934 -18.042  0.00  0.00    +0.142 HD
ATOM     29  H   UNL     1      31.075 -21.623 -17.483  0.00  0.00    +0.142 HD
ENDBRANCH   6  27
BRANCH   8  31
ATOM     30  N   UNL     1      37.460 -24.077 -15.214  0.00  0.00    -0.191 NA
ATOM     31  C   UNL     1      36.324 -24.049 -14.994  0.00  0.00    +0.104 C 
ENDBRANCH   8  31
TORSDOF 6
ENDMDL
MODEL 3
REMARK VINA RESULT:      -7.7     14.107     16.825
REMARK  Name = 1916699
REMARK  6 active torsions:
REMARK  status: ('A' for Active; 'I' for Inactive)
REMARK    1  A    between atoms: C_5  and  C_13
REMARK    2  A    between atoms: C_6  and  N_27
REMARK    3  A    between atoms: C_8  and  C_31
REMARK    4  A    between atoms: C_9  and  C_24
REMARK    5  A    between atoms: C_18  and  O_19
REMARK    6  A    between atoms: O_19  and  C_20
REMARK                            x       y       z     vdW  Elec       q    Type
REMARK                         _______ _______ _______ _____ _____    ______ ____
ROOT
ATOM      1  S   UNL     1      32.425 -13.912 -22.314  0.00  0.00    -0.054 S 
ATOM      2  N   UNL     1      31.833 -12.272 -20.302  0.00  0.00    -0.384 NA
ATOM      3  N   UNL     1      31.311 -10.822 -18.522  0.00  0.00    -0.332 N 
ATOM      4  C   UNL     1      32.552 -11.336 -22.446  0.00  0.00    +0.118 C 
ATOM      5  C   UNL     1      32.429 -10.030 -21.931  0.00  0.00    +0.003 C 
ATOM      6  C   UNL     1      32.947 -11.835 -23.728  0.00  0.00    +0.040 C 
ATOM      7  C   UNL     1      32.240 -12.382 -21.584  0.00  0.00    +0.149 C 
ATOM      8  C   UNL     1      32.012  -9.866 -20.614  0.00  0.00    +0.109 C 
ATOM      9  C   UNL     1      32.922 -13.211 -23.792  0.00  0.00    +0.094 C 
ATOM     10  C   UNL     1      31.735 -10.997 -19.868  0.00  0.00    +0.187 C 
ATOM     11  H   UNL     1      31.106 -11.607 -17.964  0.00  0.00    +0.145 HD
ATOM     12  H   UNL     1      31.221  -9.915 -18.149  0.00  0.00    +0.145 HD
ENDROOT
BRANCH   5  13
ATOM     13  C   UNL     1      32.739  -8.899 -22.784  0.00  0.00    -0.002 C 
ATOM     14  C   UNL     1      34.056  -8.461 -22.906  0.00  0.00    +0.003 C 
ATOM     15  C   UNL     1      31.718  -8.254 -23.479  0.00  0.00    +0.003 C 
ATOM     16  C   UNL     1      34.354  -7.373 -23.725  0.00  0.00    +0.037 C 
ATOM     17  C   UNL     1      32.016  -7.166 -24.300  0.00  0.00    +0.037 C 
ATOM     18  C   UNL     1      33.334  -6.726 -24.423  0.00  0.00    +0.139 C 
BRANCH  18  19
ATOM     19  O   UNL     1      33.624  -5.662 -25.223  0.00  0.00    -0.475 OA
BRANCH  19  20
ATOM     20  C   UNL     1      32.530  -4.849 -25.644  0.00  0.00    +0.206 C 
ATOM     21  C   UNL     1      32.836  -4.283 -27.014  0.00  0.00    +0.051 C 
ENDBRANCH  19  20
ENDBRANCH  18  19
ENDBRANCH   5  13
BRANCH   9  24
ATOM     22  O   UNL     1      33.077 -13.791 -26.091  0.00  0.00    -0.270 OA
ATOM     23  N   UNL     1      33.764 -15.345 -24.586  0.00  0.00    -0.325 N 
ATOM     24  C   UNL     1      33.245 -14.077 -24.882  0.00  0.00    +0.250 C 
ATOM     25  H   UNL     1      33.996 -15.964 -25.316  0.00  0.00    +0.145 HD
ATOM     26  H   UNL     1      33.898 -15.616 -23.649  0.00  0.00    +0.145 HD
ENDBRANCH   9  24
BRANCH   6  27
ATOM     27  N   UNL     1      33.310 -11.065 -24.785  0.00  0.00    -0.359 N 
ATOM     28  H   UNL     1      32.943 -10.157 -24.882  0.00  0.00    +0.142 HD
ATOM     29  H   UNL     1      33.942 -11.414 -25.454  0.00  0.00    +0.142 HD
ENDBRANCH   6  27
BRANCH   8  31
ATOM     30  N   UNL     1      31.763  -7.495 -19.593  0.00  0.00    -0.191 NA
ATOM     31  C   UNL     1      31.874  -8.553 -20.048  0.00  0.00    +0.104 C 
ENDBRANCH   8  31
TORSDOF 6
ENDMDL
MODEL 4
REMARK VINA RESULT:      -6.5      8.642     10.968
REMARK  Name = 1916699
REMARK  6 active torsions:
REMARK  status: ('A' for Active; 'I' for Inactive)
REMARK    1  A    between atoms: C_5  and  C_13
REMARK    2  A    between atoms: C_6  and  N_27
REMARK    3  A    between atoms: C_8  and  C_31
REMARK    4  A    between atoms: C_9  and  C_24
REMARK    5  A    between atoms: C_18  and  O_19
REMARK    6  A    between atoms: O_19  and  C_20
REMARK                            x       y       z     vdW  Elec       q    Type
REMARK                         _______ _______ _______ _____ _____    ______ ____
ROOT
ATOM      1  S   UNL     1      32.014 -12.072 -22.769  0.00  0.00    -0.054 S 
ATOM      2  N   UNL     1      32.762 -13.410 -24.946  0.00  0.00    -0.384 NA
ATOM      3  N   UNL     1      33.425 -14.592 -26.871  0.00  0.00    -0.332 N 
ATOM      4  C   UNL     1      33.109 -14.411 -22.740  0.00  0.00    +0.118 C 
ATOM      5  C   UNL     1      33.678 -15.555 -23.335  0.00  0.00    +0.003 C 
ATOM      6  C   UNL     1      32.865 -14.053 -21.375  0.00  0.00    +0.040 C 
ATOM      7  C   UNL     1      32.684 -13.404 -23.599  0.00  0.00    +0.149 C 
ATOM      8  C   UNL     1      33.780 -15.608 -24.722  0.00  0.00    +0.109 C 
ATOM      9  C   UNL     1      32.276 -12.813 -21.250  0.00  0.00    +0.094 C 
ATOM     10  C   UNL     1      33.316 -14.531 -25.455  0.00  0.00    +0.187 C 
ATOM     11  H   UNL     1      33.105 -13.842 -27.422  0.00  0.00    +0.145 HD
ATOM     12  H   UNL     1      33.821 -15.384 -27.301  0.00  0.00    +0.145 HD
ENDROOT
BRANCH   5  13
ATOM     13  C   UNL     1      34.139 -16.639 -22.490  0.00  0.00    -0.002 C 
ATOM     14  C   UNL     1      35.502 -16.811 -22.261  0.00  0.00    +0.003 C 
ATOM     15  C   UNL     1      33.215 -17.506 -21.909  0.00  0.00    +0.003 C 
ATOM     16  C   UNL     1      35.945 -17.855 -21.448  0.00  0.00    +0.037 C 
ATOM     17  C   UNL     1      33.657 -18.550 -21.095  0.00  0.00    +0.037 C 
ATOM     18  C   UNL     1      35.023 -18.724 -20.865  0.00  0.00    +0.139 C 
BRANCH  18  19
ATOM     19  O   UNL     1      35.454 -19.744 -20.073  0.00  0.00    -0.475 OA
BRANCH  19  20
ATOM     20  C   UNL     1      34.586 -20.866 -19.929  0.00  0.00    +0.206 C 
ATOM     21  C   UNL     1      35.285 -21.928 -19.108  0.00  0.00    +0.051 C 
ENDBRANCH  19  20
ENDBRANCH  18  19
ENDBRANCH   5  13
BRANCH   9  24
ATOM     22  O   UNL     1      31.872 -12.602 -18.919  0.00  0.00    -0.270 OA
ATOM     23  N   UNL     1      31.453 -10.781 -20.209  0.00  0.00    -0.325 N 
ATOM     24  C   UNL     1      31.882 -12.109 -20.071  0.00  0.00    +0.250 C 
ATOM     25  H   UNL     1      31.175 -10.270 -19.414  0.00  0.00    +0.145 HD
ATOM     26  H   UNL     1      31.431 -10.360 -21.098  0.00  0.00    +0.145 HD
ENDBRANCH   9  24
BRANCH   6  27
ATOM     27  N   UNL     1      33.167 -14.826 -20.301  0.00  0.00    -0.359 N 
ATOM     28  H   UNL     1      33.008 -15.797 -20.334  0.00  0.00    +0.142 HD
ATOM     29  H   UNL     1      33.545 -14.416 -19.490  0.00  0.00    +0.142 HD
ENDBRANCH   6  27
BRANCH   8  31
ATOM     30  N   UNL     1      34.817 -17.677 -25.891  0.00  0.00    -0.191 NA
ATOM     31  C   UNL     1      34.354 -16.754 -25.370  0.00  0.00    +0.104 C 
ENDBRANCH   8  31
TORSDOF 6
ENDMDL
MODEL 5
REMARK VINA RESULT:      -6.4     18.505     21.049
REMARK  Name = 1916699
REMARK  6 active torsions:
REMARK  status: ('A' for Active; 'I' for Inactive)
REMARK    1  A    between atoms: C_5  and  C_13
REMARK    2  A    between atoms: C_6  and  N_27
REMARK    3  A    between atoms: C_8  and  C_31
REMARK    4  A    between atoms: C_9  and  C_24
REMARK    5  A    between atoms: C_18  and  O_19
REMARK    6  A    between atoms: O_19  and  C_20
REMARK                            x       y       z     vdW  Elec       q    Type
REMARK                         _______ _______ _______ _____ _____    ______ ____
ROOT
ATOM      1  S   UNL     1      32.379  -2.267 -26.855  0.00  0.00    -0.054 S 
ATOM      2  N   UNL     1      31.151  -2.367 -24.495  0.00  0.00    -0.384 NA
ATOM      3  N   UNL     1      30.062  -2.455 -22.409  0.00  0.00    -0.332 N 
ATOM      4  C   UNL     1      32.374  -4.328 -25.299  0.00  0.00    +0.118 C 
ATOM      5  C   UNL     1      32.032  -5.036 -24.129  0.00  0.00    +0.003 C 
ATOM      6  C   UNL     1      33.140  -4.686 -26.454  0.00  0.00    +0.040 C 
ATOM      7  C   UNL     1      31.904  -3.023 -25.402  0.00  0.00    +0.149 C 
ATOM      8  C   UNL     1      31.256  -4.401 -23.164  0.00  0.00    +0.109 C 
ATOM      9  C   UNL     1      33.222  -3.662 -27.373  0.00  0.00    +0.094 C 
ATOM     10  C   UNL     1      30.856  -3.098 -23.398  0.00  0.00    +0.187 C 
ATOM     11  H   UNL     1      29.761  -1.528 -22.545  0.00  0.00    +0.145 HD
ATOM     12  H   UNL     1      29.815  -2.938 -21.587  0.00  0.00    +0.145 HD
ENDROOT
BRANCH   5  13
ATOM     13  C   UNL     1      32.495  -6.400 -23.965  0.00  0.00    -0.002 C 
ATOM     14  C   UNL     1      33.818  -6.647 -23.607  0.00  0.00    +0.003 C 
ATOM     15  C   UNL     1      31.613  -7.461 -24.165  0.00  0.00    +0.003 C 
ATOM     16  C   UNL     1      34.263  -7.959 -23.450  0.00  0.00    +0.037 C 
ATOM     17  C   UNL     1      32.057  -8.774 -24.007  0.00  0.00    +0.037 C 
ATOM     18  C   UNL     1      33.383  -9.023 -23.650  0.00  0.00    +0.139 C 
BRANCH  18  19
ATOM     19  O   UNL     1      33.817 -10.304 -23.498  0.00  0.00    -0.475 OA
BRANCH  19  20
ATOM     20  C   UNL     1      33.829 -11.128 -24.662  0.00  0.00    +0.206 C 
ATOM     21  C   UNL     1      35.003 -10.735 -25.533  0.00  0.00    +0.051 C 
ENDBRANCH  19  20
ENDBRANCH  18  19
ENDBRANCH   5  13
BRANCH   9  24
ATOM     22  O   UNL     1      34.870  -4.339 -28.944  0.00  0.00    -0.270 OA
ATOM     23  N   UNL     1      33.424  -2.717 -29.600  0.00  0.00    -0.325 N 
ATOM     24  C   UNL     1      33.885  -3.627 -28.638  0.00  0.00    +0.250 C 
ATOM     25  H   UNL     1      33.861  -2.669 -30.481  0.00  0.00    +0.145 HD
ATOM     26  H   UNL     1      32.662  -2.127 -29.395  0.00  0.00    +0.145 HD
ENDBRANCH   9  24
BRANCH   6  27
ATOM     27  N   UNL     1      33.734  -5.889 -26.653  0.00  0.00    -0.359 N 
ATOM     28  H   UNL     1      34.076  -6.129 -27.544  0.00  0.00    +0.142 HD
ATOM     29  H   UNL     1      33.824  -6.523 -25.904  0.00  0.00    +0.142 HD
ENDBRANCH   6  27
BRANCH   8  31
ATOM     30  N   UNL     1      30.582  -5.636 -20.986  0.00  0.00    -0.191 NA
ATOM     31  C   UNL     1      30.883  -5.085 -21.958  0.00  0.00    +0.104 C 
ENDBRANCH   8  31
TORSDOF 6
ENDMDL
MODEL 6
REMARK VINA RESULT:      -6.2     12.364     14.730
REMARK  Name = 1916699
REMARK  6 active torsions:
REMARK  status: ('A' for Active; 'I' for Inactive)
REMARK    1  A    between atoms: C_5  and  C_13
REMARK    2  A    between atoms: C_6  and  N_27
REMARK    3  A    between atoms: C_8  and  C_31
REMARK    4  A    between atoms: C_9  and  C_24
REMARK    5  A    between atoms: C_18  and  O_19
REMARK    6  A    between atoms: O_19  and  C_20
REMARK                            x       y       z     vdW  Elec       q    Type
REMARK                         _______ _______ _______ _____ _____    ______ ____
ROOT
ATOM      1  S   UNL     1      32.097  -8.929 -21.207  0.00  0.00    -0.054 S 
ATOM      2  N   UNL     1      33.700  -8.354 -23.252  0.00  0.00    -0.384 NA
ATOM      3  N   UNL     1      35.120  -7.844 -25.060  0.00  0.00    -0.332 N 
ATOM      4  C   UNL     1      32.956 -10.661 -22.919  0.00  0.00    +0.118 C 
ATOM      5  C   UNL     1      33.684 -11.073 -24.054  0.00  0.00    +0.003 C 
ATOM      6  C   UNL     1      32.130 -11.373 -21.992  0.00  0.00    +0.040 C 
ATOM      7  C   UNL     1      33.014  -9.311 -22.593  0.00  0.00    +0.149 C 
ATOM      8  C   UNL     1      34.407 -10.121 -24.767  0.00  0.00    +0.109 C 
ATOM      9  C   UNL     1      31.603 -10.555 -21.016  0.00  0.00    +0.094 C 
ATOM     10  C   UNL     1      34.377  -8.810 -24.328  0.00  0.00    +0.187 C 
ATOM     11  H   UNL     1      35.120  -6.902 -24.773  0.00  0.00    +0.145 HD
ATOM     12  H   UNL     1      35.635  -8.117 -25.854  0.00  0.00    +0.145 HD
ENDROOT
BRANCH   5  13
ATOM     13  C   UNL     1      33.660 -12.469 -24.444  0.00  0.00    -0.002 C 
ATOM     14  C   UNL     1      33.060 -12.845 -25.644  0.00  0.00    +0.003 C 
ATOM     15  C   UNL     1      34.237 -13.430 -23.617  0.00  0.00    +0.003 C 
ATOM     16  C   UNL     1      33.036 -14.188 -26.018  0.00  0.00    +0.037 C 
ATOM     17  C   UNL     1      34.214 -14.774 -23.991  0.00  0.00    +0.037 C 
ATOM     18  C   UNL     1      33.613 -15.153 -25.192  0.00  0.00    +0.139 C 
BRANCH  18  19
ATOM     19  O   UNL     1      33.588 -16.464 -25.557  0.00  0.00    -0.475 OA
BRANCH  19  20
ATOM     20  C   UNL     1      34.739 -17.247 -25.243  0.00  0.00    +0.206 C 
ATOM     21  C   UNL     1      34.299 -18.652 -24.894  0.00  0.00    +0.051 C 
ENDBRANCH  19  20
ENDBRANCH  18  19
ENDBRANCH   5  13
BRANCH   9  24
ATOM     22  O   UNL     1      29.546 -11.235 -20.039  0.00  0.00    -0.270 OA
ATOM     23  N   UNL     1      31.262 -10.782 -18.623  0.00  0.00    -0.325 N 
ATOM     24  C   UNL     1      30.743 -10.883 -19.922  0.00  0.00    +0.250 C 
ATOM     25  H   UNL     1      30.693 -11.001 -17.849  0.00  0.00    +0.145 HD
ATOM     26  H   UNL     1      32.193 -10.495 -18.485  0.00  0.00    +0.145 HD
ENDBRANCH   9  24
BRANCH   6  27
ATOM     27  N   UNL     1      31.872 -12.705 -22.042  0.00  0.00    -0.359 N 
ATOM     28  H   UNL     1      32.169 -13.291 -21.309  0.00  0.00    +0.142 HD
ATOM     29  H   UNL     1      31.387 -13.084 -22.810  0.00  0.00    +0.142 HD
ENDBRANCH   6  27
BRANCH   8  31
ATOM     30  N   UNL     1      35.774 -10.799 -26.863  0.00  0.00    -0.191 NA
ATOM     31  C   UNL     1      35.164 -10.497 -25.928  0.00  0.00    +0.104 C 
ENDBRANCH   8  31
TORSDOF 6
ENDMDL
