MODEL 1
REMARK VINA RESULT:     -11.4      0.000      0.000
REMARK  Name = 44422489
REMARK  2 active torsions:
REMARK  status: ('A' for Active; 'I' for Inactive)
REMARK    1  A    between atoms: N_2  and  C_12
REMARK    2  A    between atoms: C_7  and  C_20
REMARK                            x       y       z     vdW  Elec       q    Type
REMARK                         _______ _______ _______ _____ _____    ______ ____
ROOT
ATOM      1  N   UNL     1      33.733 -15.123 -24.648  0.00  0.00    -0.243 N 
ATOM      2  N   UNL     1      33.207 -11.448 -24.596  0.00  0.00    -0.297 N 
ATOM      3  N   UNL     1      34.065 -12.914 -22.997  0.00  0.00    -0.226 NA
ATOM      4  N   UNL     1      32.950 -15.355 -26.719  0.00  0.00    -0.224 NA
ATOM      5  C   UNL     1      33.376 -13.864 -25.073  0.00  0.00    +0.108 C 
ATOM      6  C   UNL     1      33.556 -12.719 -24.197  0.00  0.00    +0.148 C 
ATOM      7  C   UNL     1      34.269 -15.305 -23.377  0.00  0.00    +0.076 C 
ATOM      8  C   UNL     1      34.410 -14.199 -22.612  0.00  0.00    +0.115 C 
ATOM      9  C   UNL     1      32.893 -14.034 -26.350  0.00  0.00    +0.118 C 
ATOM     10  C   UNL     1      33.461 -15.982 -25.681  0.00  0.00    +0.172 C 
ATOM     11  H   UNL     1      32.832 -11.357 -25.501  0.00  0.00    +0.154 HD
ENDROOT
BRANCH   2  12
ATOM     12  C   UNL     1      33.331 -10.280 -23.851  0.00  0.00    +0.041 C 
ATOM     13  C   UNL     1      34.388  -9.404 -24.097  0.00  0.00    -0.009 C 
ATOM     14  C   UNL     1      32.396  -9.984 -22.858  0.00  0.00    -0.009 C 
ATOM     15  C   UNL     1      34.512  -8.233 -23.350  0.00  0.00    -0.003 C 
ATOM     16  C   UNL     1      32.520  -8.812 -22.111  0.00  0.00    -0.003 C 
ATOM     17  C   UNL     1      35.403  -9.694 -25.154  0.00  0.00    +0.032 C 
ATOM     18  C   UNL     1      31.253 -10.902 -22.571  0.00  0.00    +0.032 C 
ATOM     19  C   UNL     1      33.578  -7.936 -22.358  0.00  0.00    -0.001 C 
ENDBRANCH   2  12
BRANCH   7  20
ATOM     20  C   UNL     1      34.661 -16.622 -22.852  0.00  0.00    +0.016 C 
ATOM     21  C   UNL     1      34.900 -17.679 -23.731  0.00  0.00    +0.001 C 
ATOM     22  C   UNL     1      34.794 -16.814 -21.477  0.00  0.00    +0.001 C 
ATOM     23  C   UNL     1      35.271 -18.928 -23.233  0.00  0.00    +0.000 C 
ATOM     24  C   UNL     1      35.165 -18.063 -20.980  0.00  0.00    +0.000 C 
ATOM     25  C   UNL     1      35.405 -19.120 -21.857  0.00  0.00    +0.000 C 
ENDBRANCH   7  20
TORSDOF 2
ENDMDL
MODEL 2
REMARK VINA RESULT:     -11.4      0.032      1.757
REMARK  Name = 44422489
REMARK  2 active torsions:
REMARK  status: ('A' for Active; 'I' for Inactive)
REMARK    1  A    between atoms: N_2  and  C_12
REMARK    2  A    between atoms: C_7  and  C_20
REMARK                            x       y       z     vdW  Elec       q    Type
REMARK                         _______ _______ _______ _____ _____    ______ ____
ROOT
ATOM      1  N   UNL     1      33.723 -15.108 -24.629  0.00  0.00    -0.243 N 
ATOM      2  N   UNL     1      33.190 -11.434 -24.591  0.00  0.00    -0.297 N 
ATOM      3  N   UNL     1      34.058 -12.891 -22.989  0.00  0.00    -0.226 NA
ATOM      4  N   UNL     1      32.932 -15.351 -26.695  0.00  0.00    -0.224 NA
ATOM      5  C   UNL     1      33.361 -13.852 -25.058  0.00  0.00    +0.108 C 
ATOM      6  C   UNL     1      33.543 -12.702 -24.187  0.00  0.00    +0.148 C 
ATOM      7  C   UNL     1      34.265 -15.283 -23.359  0.00  0.00    +0.076 C 
ATOM      8  C   UNL     1      34.407 -14.173 -22.600  0.00  0.00    +0.115 C 
ATOM      9  C   UNL     1      32.874 -14.029 -26.332  0.00  0.00    +0.118 C 
ATOM     10  C   UNL     1      33.448 -15.973 -25.656  0.00  0.00    +0.172 C 
ATOM     11  H   UNL     1      32.810 -11.348 -25.495  0.00  0.00    +0.154 HD
ENDROOT
BRANCH   2  12
ATOM     12  C   UNL     1      33.314 -10.262 -23.852  0.00  0.00    +0.041 C 
ATOM     13  C   UNL     1      32.375  -9.956 -22.867  0.00  0.00    -0.009 C 
ATOM     14  C   UNL     1      34.379  -9.394 -24.095  0.00  0.00    -0.009 C 
ATOM     15  C   UNL     1      32.500  -8.780 -22.127  0.00  0.00    -0.003 C 
ATOM     16  C   UNL     1      34.503  -8.219 -23.355  0.00  0.00    -0.003 C 
ATOM     17  C   UNL     1      31.225 -10.866 -22.583  0.00  0.00    +0.032 C 
ATOM     18  C   UNL     1      35.400  -9.695 -25.144  0.00  0.00    +0.032 C 
ATOM     19  C   UNL     1      33.564  -7.912 -22.370  0.00  0.00    -0.001 C 
ENDBRANCH   2  12
BRANCH   7  20
ATOM     20  C   UNL     1      34.662 -16.596 -22.830  0.00  0.00    +0.016 C 
ATOM     21  C   UNL     1      34.891 -17.660 -23.704  0.00  0.00    +0.001 C 
ATOM     22  C   UNL     1      34.811 -16.779 -21.455  0.00  0.00    +0.001 C 
ATOM     23  C   UNL     1      35.267 -18.906 -23.202  0.00  0.00    +0.000 C 
ATOM     24  C   UNL     1      35.187 -18.025 -20.954  0.00  0.00    +0.000 C 
ATOM     25  C   UNL     1      35.416 -19.089 -21.827  0.00  0.00    +0.000 C 
ENDBRANCH   7  20
TORSDOF 2
ENDMDL
MODEL 3
REMARK VINA RESULT:     -11.1      2.201      8.002
REMARK  Name = 44422489
REMARK  2 active torsions:
REMARK  status: ('A' for Active; 'I' for Inactive)
REMARK    1  A    between atoms: N_2  and  C_12
REMARK    2  A    between atoms: C_7  and  C_20
REMARK                            x       y       z     vdW  Elec       q    Type
REMARK                         _______ _______ _______ _____ _____    ______ ____
ROOT
ATOM      1  N   UNL     1      33.776 -15.643 -23.769  0.00  0.00    -0.243 N 
ATOM      2  N   UNL     1      34.891 -18.931 -22.457  0.00  0.00    -0.297 N 
ATOM      3  N   UNL     1      34.162 -16.998 -21.375  0.00  0.00    -0.226 NA
ATOM      4  N   UNL     1      34.057 -16.229 -25.898  0.00  0.00    -0.224 NA
ATOM      5  C   UNL     1      34.235 -16.939 -23.758  0.00  0.00    +0.108 C 
ATOM      6  C   UNL     1      34.432 -17.634 -22.497  0.00  0.00    +0.148 C 
ATOM      7  C   UNL     1      33.496 -14.990 -22.571  0.00  0.00    +0.076 C 
ATOM      8  C   UNL     1      33.702 -15.693 -21.434  0.00  0.00    +0.115 C 
ATOM      9  C   UNL     1      34.404 -17.276 -25.081  0.00  0.00    +0.118 C 
ATOM     10  C   UNL     1      33.681 -15.265 -25.083  0.00  0.00    +0.172 C 
ATOM     11  H   UNL     1      35.077 -19.361 -23.323  0.00  0.00    +0.154 HD
ENDROOT
BRANCH   2  12
ATOM     12  C   UNL     1      35.119 -19.698 -21.319  0.00  0.00    +0.041 C 
ATOM     13  C   UNL     1      34.054 -20.335 -20.682  0.00  0.00    -0.009 C 
ATOM     14  C   UNL     1      36.413 -19.830 -20.814  0.00  0.00    -0.009 C 
ATOM     15  C   UNL     1      34.282 -21.103 -19.541  0.00  0.00    -0.003 C 
ATOM     16  C   UNL     1      36.641 -20.598 -19.672  0.00  0.00    -0.003 C 
ATOM     17  C   UNL     1      32.657 -20.213 -21.200  0.00  0.00    +0.032 C 
ATOM     18  C   UNL     1      37.574 -19.159 -21.473  0.00  0.00    +0.032 C 
ATOM     19  C   UNL     1      35.575 -21.235 -19.036  0.00  0.00    -0.001 C 
ENDBRANCH   2  12
BRANCH   7  20
ATOM     20  C   UNL     1      33.015 -13.603 -22.506  0.00  0.00    +0.016 C 
ATOM     21  C   UNL     1      32.111 -13.224 -21.513  0.00  0.00    +0.001 C 
ATOM     22  C   UNL     1      33.463 -12.665 -23.436  0.00  0.00    +0.001 C 
ATOM     23  C   UNL     1      31.654 -11.907 -21.451  0.00  0.00    +0.000 C 
ATOM     24  C   UNL     1      33.006 -11.348 -23.374  0.00  0.00    +0.000 C 
ATOM     25  C   UNL     1      32.102 -10.969 -22.382  0.00  0.00    +0.000 C 
ENDBRANCH   7  20
TORSDOF 2
ENDMDL
MODEL 4
REMARK VINA RESULT:     -11.1      2.176      7.804
REMARK  Name = 44422489
REMARK  2 active torsions:
REMARK  status: ('A' for Active; 'I' for Inactive)
REMARK    1  A    between atoms: N_2  and  C_12
REMARK    2  A    between atoms: C_7  and  C_20
REMARK                            x       y       z     vdW  Elec       q    Type
REMARK                         _______ _______ _______ _____ _____    ______ ____
ROOT
ATOM      1  N   UNL     1      33.723 -15.569 -23.747  0.00  0.00    -0.243 N 
ATOM      2  N   UNL     1      34.894 -18.859 -22.489  0.00  0.00    -0.297 N 
ATOM      3  N   UNL     1      34.160 -16.946 -21.375  0.00  0.00    -0.226 NA
ATOM      4  N   UNL     1      33.979 -16.128 -25.886  0.00  0.00    -0.224 NA
ATOM      5  C   UNL     1      34.197 -16.860 -23.758  0.00  0.00    +0.108 C 
ATOM      6  C   UNL     1      34.420 -17.566 -22.508  0.00  0.00    +0.148 C 
ATOM      7  C   UNL     1      33.455 -14.932 -22.538  0.00  0.00    +0.076 C 
ATOM      8  C   UNL     1      33.685 -15.646 -21.412  0.00  0.00    +0.115 C 
ATOM      9  C   UNL     1      34.349 -17.180 -25.087  0.00  0.00    +0.118 C 
ATOM     10  C   UNL     1      33.604 -15.178 -25.056  0.00  0.00    +0.172 C 
ATOM     11  H   UNL     1      35.072 -19.277 -23.363  0.00  0.00    +0.154 HD
ENDROOT
BRANCH   2  12
ATOM     12  C   UNL     1      35.147 -19.635 -21.363  0.00  0.00    +0.041 C 
ATOM     13  C   UNL     1      36.449 -19.761 -20.881  0.00  0.00    -0.009 C 
ATOM     14  C   UNL     1      34.097 -20.287 -20.715  0.00  0.00    -0.009 C 
ATOM     15  C   UNL     1      36.703 -20.540 -19.752  0.00  0.00    -0.003 C 
ATOM     16  C   UNL     1      34.351 -21.065 -19.586  0.00  0.00    -0.003 C 
ATOM     17  C   UNL     1      37.594 -19.075 -21.553  0.00  0.00    +0.032 C 
ATOM     18  C   UNL     1      32.691 -20.171 -21.208  0.00  0.00    +0.032 C 
ATOM     19  C   UNL     1      35.654 -21.191 -19.104  0.00  0.00    -0.001 C 
ENDBRANCH   2  12
BRANCH   7  20
ATOM     20  C   UNL     1      32.959 -13.551 -22.450  0.00  0.00    +0.016 C 
ATOM     21  C   UNL     1      32.054 -13.197 -21.450  0.00  0.00    +0.001 C 
ATOM     22  C   UNL     1      33.395 -12.594 -23.366  0.00  0.00    +0.001 C 
ATOM     23  C   UNL     1      31.584 -11.887 -21.366  0.00  0.00    +0.000 C 
ATOM     24  C   UNL     1      32.925 -11.283 -23.283  0.00  0.00    +0.000 C 
ATOM     25  C   UNL     1      32.020 -10.929 -22.283  0.00  0.00    +0.000 C 
ENDBRANCH   7  20
TORSDOF 2
ENDMDL
MODEL 5
REMARK VINA RESULT:     -10.8      1.039      2.151
REMARK  Name = 44422489
REMARK  2 active torsions:
REMARK  status: ('A' for Active; 'I' for Inactive)
REMARK    1  A    between atoms: N_2  and  C_12
REMARK    2  A    between atoms: C_7  and  C_20
REMARK                            x       y       z     vdW  Elec       q    Type
REMARK                         _______ _______ _______ _____ _____    ______ ____
ROOT
ATOM      1  N   UNL     1      34.024 -16.009 -24.205  0.00  0.00    -0.243 N 
ATOM      2  N   UNL     1      33.472 -12.366 -24.654  0.00  0.00    -0.297 N 
ATOM      3  N   UNL     1      34.189 -13.609 -22.815  0.00  0.00    -0.226 NA
ATOM      4  N   UNL     1      33.437 -16.507 -26.293  0.00  0.00    -0.224 NA
ATOM      5  C   UNL     1      33.699 -14.818 -24.812  0.00  0.00    +0.108 C 
ATOM      6  C   UNL     1      33.791 -13.572 -24.071  0.00  0.00    +0.148 C 
ATOM      7  C   UNL     1      34.443 -16.025 -22.877  0.00  0.00    +0.076 C 
ATOM      8  C   UNL     1      34.505 -14.831 -22.245  0.00  0.00    +0.115 C 
ATOM      9  C   UNL     1      33.338 -15.153 -26.096  0.00  0.00    +0.118 C 
ATOM     10  C   UNL     1      33.854 -16.994 -25.143  0.00  0.00    +0.172 C 
ATOM     11  H   UNL     1      33.181 -12.393 -25.594  0.00  0.00    +0.154 HD
ENDROOT
BRANCH   2  12
ATOM     12  C   UNL     1      33.519 -11.113 -24.051  0.00  0.00    +0.041 C 
ATOM     13  C   UNL     1      32.625 -10.797 -23.028  0.00  0.00    -0.009 C 
ATOM     14  C   UNL     1      34.462 -10.173 -24.469  0.00  0.00    -0.009 C 
ATOM     15  C   UNL     1      32.672  -9.541 -22.424  0.00  0.00    -0.003 C 
ATOM     16  C   UNL     1      34.509  -8.917 -23.865  0.00  0.00    -0.003 C 
ATOM     17  C   UNL     1      31.605 -11.783 -22.559  0.00  0.00    +0.032 C 
ATOM     18  C   UNL     1      35.432 -10.483 -25.562  0.00  0.00    +0.032 C 
ATOM     19  C   UNL     1      33.614  -8.601 -22.841  0.00  0.00    -0.001 C 
ENDBRANCH   2  12
BRANCH   7  20
ATOM     20  C   UNL     1      34.793 -17.260 -22.160  0.00  0.00    +0.016 C 
ATOM     21  C   UNL     1      33.798 -18.004 -21.525  0.00  0.00    +0.001 C 
ATOM     22  C   UNL     1      36.119 -17.690 -22.116  0.00  0.00    +0.001 C 
ATOM     23  C   UNL     1      34.130 -19.176 -20.845  0.00  0.00    +0.000 C 
ATOM     24  C   UNL     1      36.451 -18.861 -21.437  0.00  0.00    +0.000 C 
ATOM     25  C   UNL     1      35.457 -19.605 -20.802  0.00  0.00    +0.000 C 
ENDBRANCH   7  20
TORSDOF 2
ENDMDL
MODEL 6
REMARK VINA RESULT:     -10.1      1.723      7.601
REMARK  Name = 44422489
REMARK  2 active torsions:
REMARK  status: ('A' for Active; 'I' for Inactive)
REMARK    1  A    between atoms: N_2  and  C_12
REMARK    2  A    between atoms: C_7  and  C_20
REMARK                            x       y       z     vdW  Elec       q    Type
REMARK                         _______ _______ _______ _____ _____    ______ ____
ROOT
ATOM      1  N   UNL     1      32.253 -10.700 -22.432  0.00  0.00    -0.243 N 
ATOM      2  N   UNL     1      32.962 -14.338 -22.626  0.00  0.00    -0.297 N 
ATOM      3  N   UNL     1      33.813 -12.528 -23.825  0.00  0.00    -0.226 NA
ATOM      4  N   UNL     1      30.771 -10.924 -20.786  0.00  0.00    -0.224 NA
ATOM      5  C   UNL     1      32.186 -12.045 -22.150  0.00  0.00    +0.108 C 
ATOM      6  C   UNL     1      33.009 -12.988 -22.888  0.00  0.00    +0.148 C 
ATOM      7  C   UNL     1      33.110 -10.236 -23.427  0.00  0.00    +0.076 C 
ATOM      8  C   UNL     1      33.847 -11.166 -24.076  0.00  0.00    +0.115 C 
ATOM      9  C   UNL     1      31.264 -12.157 -21.135  0.00  0.00    +0.118 C 
ATOM     10  C   UNL     1      31.385 -10.070 -21.578  0.00  0.00    +0.172 C 
ATOM     11  H   UNL     1      32.346 -14.629 -21.916  0.00  0.00    +0.154 HD
ENDROOT
BRANCH   2  12
ATOM     12  C   UNL     1      33.697 -15.334 -23.262  0.00  0.00    +0.041 C 
ATOM     13  C   UNL     1      33.587 -15.509 -24.641  0.00  0.00    -0.009 C 
ATOM     14  C   UNL     1      34.544 -16.158 -22.519  0.00  0.00    -0.009 C 
ATOM     15  C   UNL     1      34.324 -16.508 -25.278  0.00  0.00    -0.003 C 
ATOM     16  C   UNL     1      35.280 -17.156 -23.156  0.00  0.00    -0.003 C 
ATOM     17  C   UNL     1      32.689 -14.642 -25.462  0.00  0.00    +0.032 C 
ATOM     18  C   UNL     1      34.681 -15.995 -21.040  0.00  0.00    +0.032 C 
ATOM     19  C   UNL     1      35.170 -17.331 -24.536  0.00  0.00    -0.001 C 
ENDBRANCH   2  12
BRANCH   7  20
ATOM     20  C   UNL     1      33.224  -8.817 -23.791  0.00  0.00    +0.016 C 
ATOM     21  C   UNL     1      34.481  -8.246 -23.991  0.00  0.00    +0.001 C 
ATOM     22  C   UNL     1      32.075  -8.040 -23.938  0.00  0.00    +0.001 C 
ATOM     23  C   UNL     1      34.590  -6.899 -24.336  0.00  0.00    +0.000 C 
ATOM     24  C   UNL     1      32.183  -6.693 -24.283  0.00  0.00    +0.000 C 
ATOM     25  C   UNL     1      33.440  -6.122 -24.483  0.00  0.00    +0.000 C 
ENDBRANCH   7  20
TORSDOF 2
ENDMDL
MODEL 7
REMARK VINA RESULT:     -10.1      1.726      7.643
REMARK  Name = 44422489
REMARK  2 active torsions:
REMARK  status: ('A' for Active; 'I' for Inactive)
REMARK    1  A    between atoms: N_2  and  C_12
REMARK    2  A    between atoms: C_7  and  C_20
REMARK                            x       y       z     vdW  Elec       q    Type
REMARK                         _______ _______ _______ _____ _____    ______ ____
ROOT
ATOM      1  N   UNL     1      32.249 -10.686 -22.432  0.00  0.00    -0.243 N 
ATOM      2  N   UNL     1      32.959 -14.324 -22.631  0.00  0.00    -0.297 N 
ATOM      3  N   UNL     1      33.806 -12.513 -23.831  0.00  0.00    -0.226 NA
ATOM      4  N   UNL     1      30.772 -10.913 -20.782  0.00  0.00    -0.224 NA
ATOM      5  C   UNL     1      32.184 -12.031 -22.150  0.00  0.00    +0.108 C 
ATOM      6  C   UNL     1      33.005 -12.973 -22.891  0.00  0.00    +0.148 C 
ATOM      7  C   UNL     1      33.103 -10.222 -23.428  0.00  0.00    +0.076 C 
ATOM      8  C   UNL     1      33.838 -11.150 -24.080  0.00  0.00    +0.115 C 
ATOM      9  C   UNL     1      31.265 -12.145 -21.133  0.00  0.00    +0.118 C 
ATOM     10  C   UNL     1      31.383 -10.058 -21.574  0.00  0.00    +0.172 C 
ATOM     11  H   UNL     1      32.345 -14.616 -21.919  0.00  0.00    +0.154 HD
ENDROOT
BRANCH   2  12
ATOM     12  C   UNL     1      33.693 -15.319 -23.269  0.00  0.00    +0.041 C 
ATOM     13  C   UNL     1      34.540 -16.145 -22.531  0.00  0.00    -0.009 C 
ATOM     14  C   UNL     1      33.580 -15.492 -24.649  0.00  0.00    -0.009 C 
ATOM     15  C   UNL     1      35.275 -17.142 -23.171  0.00  0.00    -0.003 C 
ATOM     16  C   UNL     1      34.315 -16.489 -25.290  0.00  0.00    -0.003 C 
ATOM     17  C   UNL     1      34.681 -15.984 -21.052  0.00  0.00    +0.032 C 
ATOM     18  C   UNL     1      32.681 -14.623 -25.468  0.00  0.00    +0.032 C 
ATOM     19  C   UNL     1      35.162 -17.315 -24.550  0.00  0.00    -0.001 C 
ENDBRANCH   2  12
BRANCH   7  20
ATOM     20  C   UNL     1      33.215  -8.801 -23.791  0.00  0.00    +0.016 C 
ATOM     21  C   UNL     1      34.472  -8.227 -23.983  0.00  0.00    +0.001 C 
ATOM     22  C   UNL     1      32.065  -8.028 -23.946  0.00  0.00    +0.001 C 
ATOM     23  C   UNL     1      34.579  -6.880 -24.327  0.00  0.00    +0.000 C 
ATOM     24  C   UNL     1      32.171  -6.680 -24.290  0.00  0.00    +0.000 C 
ATOM     25  C   UNL     1      33.428  -6.106 -24.482  0.00  0.00    +0.000 C 
ENDBRANCH   7  20
TORSDOF 2
ENDMDL
MODEL 8
REMARK VINA RESULT:     -10.1      8.722     13.908
REMARK  Name = 44422489
REMARK  2 active torsions:
REMARK  status: ('A' for Active; 'I' for Inactive)
REMARK    1  A    between atoms: N_2  and  C_12
REMARK    2  A    between atoms: C_7  and  C_20
REMARK                            x       y       z     vdW  Elec       q    Type
REMARK                         _______ _______ _______ _____ _____    ______ ____
ROOT
ATOM      1  N   UNL     1      33.446 -22.792 -17.187  0.00  0.00    -0.243 N 
ATOM      2  N   UNL     1      35.265 -24.647 -14.535  0.00  0.00    -0.297 N 
ATOM      3  N   UNL     1      36.025 -23.355 -16.322  0.00  0.00    -0.226 NA
ATOM      4  N   UNL     1      31.437 -23.368 -16.420  0.00  0.00    -0.224 NA
ATOM      5  C   UNL     1      33.663 -23.578 -16.079  0.00  0.00    +0.108 C 
ATOM      6  C   UNL     1      35.019 -23.863 -15.640  0.00  0.00    +0.148 C 
ATOM      7  C   UNL     1      34.525 -22.266 -17.893  0.00  0.00    +0.076 C 
ATOM      8  C   UNL     1      35.759 -22.570 -17.432  0.00  0.00    +0.115 C 
ATOM      9  C   UNL     1      32.410 -23.923 -15.627  0.00  0.00    +0.118 C 
ATOM     10  C   UNL     1      32.088 -22.693 -17.344  0.00  0.00    +0.172 C 
ATOM     11  H   UNL     1      34.478 -25.001 -14.061  0.00  0.00    +0.154 HD
ENDROOT
BRANCH   2  12
ATOM     12  C   UNL     1      36.511 -24.989 -14.020  0.00  0.00    +0.041 C 
ATOM     13  C   UNL     1      37.216 -26.066 -14.557  0.00  0.00    -0.009 C 
ATOM     14  C   UNL     1      37.056 -24.255 -12.966  0.00  0.00    -0.009 C 
ATOM     15  C   UNL     1      38.465 -26.409 -14.041  0.00  0.00    -0.003 C 
ATOM     16  C   UNL     1      38.305 -24.598 -12.449  0.00  0.00    -0.003 C 
ATOM     17  C   UNL     1      36.659 -26.870 -15.686  0.00  0.00    +0.032 C 
ATOM     18  C   UNL     1      36.324 -23.097 -12.370  0.00  0.00    +0.032 C 
ATOM     19  C   UNL     1      39.010 -25.675 -12.987  0.00  0.00    -0.001 C 
ENDBRANCH   2  12
BRANCH   7  20
ATOM     20  C   UNL     1      34.368 -21.429 -19.091  0.00  0.00    +0.016 C 
ATOM     21  C   UNL     1      35.495 -20.985 -19.783  0.00  0.00    +0.001 C 
ATOM     22  C   UNL     1      33.094 -21.081 -19.538  0.00  0.00    +0.001 C 
ATOM     23  C   UNL     1      35.347 -20.191 -20.921  0.00  0.00    +0.000 C 
ATOM     24  C   UNL     1      32.945 -20.288 -20.675  0.00  0.00    +0.000 C 
ATOM     25  C   UNL     1      34.071 -19.843 -21.367  0.00  0.00    +0.000 C 
ENDBRANCH   7  20
TORSDOF 2
ENDMDL
MODEL 9
REMARK VINA RESULT:     -10.1      8.721     13.932
REMARK  Name = 44422489
REMARK  2 active torsions:
REMARK  status: ('A' for Active; 'I' for Inactive)
REMARK    1  A    between atoms: N_2  and  C_12
REMARK    2  A    between atoms: C_7  and  C_20
REMARK                            x       y       z     vdW  Elec       q    Type
REMARK                         _______ _______ _______ _____ _____    ______ ____
ROOT
ATOM      1  N   UNL     1      33.445 -22.793 -17.187  0.00  0.00    -0.243 N 
ATOM      2  N   UNL     1      35.266 -24.647 -14.536  0.00  0.00    -0.297 N 
ATOM      3  N   UNL     1      36.024 -23.355 -16.324  0.00  0.00    -0.226 NA
ATOM      4  N   UNL     1      31.437 -23.370 -16.419  0.00  0.00    -0.224 NA
ATOM      5  C   UNL     1      33.663 -23.579 -16.079  0.00  0.00    +0.108 C 
ATOM      6  C   UNL     1      35.019 -23.863 -15.641  0.00  0.00    +0.148 C 
ATOM      7  C   UNL     1      34.523 -22.266 -17.893  0.00  0.00    +0.076 C 
ATOM      8  C   UNL     1      35.757 -22.570 -17.433  0.00  0.00    +0.115 C 
ATOM      9  C   UNL     1      32.410 -23.924 -15.627  0.00  0.00    +0.118 C 
ATOM     10  C   UNL     1      32.086 -22.694 -17.343  0.00  0.00    +0.172 C 
ATOM     11  H   UNL     1      34.480 -25.002 -14.062  0.00  0.00    +0.154 HD
ENDROOT
BRANCH   2  12
ATOM     12  C   UNL     1      36.512 -24.989 -14.022  0.00  0.00    +0.041 C 
ATOM     13  C   UNL     1      37.057 -24.256 -12.968  0.00  0.00    -0.009 C 
ATOM     14  C   UNL     1      37.217 -26.067 -14.560  0.00  0.00    -0.009 C 
ATOM     15  C   UNL     1      38.307 -24.599 -12.452  0.00  0.00    -0.003 C 
ATOM     16  C   UNL     1      38.467 -26.410 -14.044  0.00  0.00    -0.003 C 
ATOM     17  C   UNL     1      36.326 -23.098 -12.371  0.00  0.00    +0.032 C 
ATOM     18  C   UNL     1      36.659 -26.871 -15.689  0.00  0.00    +0.032 C 
ATOM     19  C   UNL     1      39.011 -25.676 -12.990  0.00  0.00    -0.001 C 
ENDBRANCH   2  12
BRANCH   7  20
ATOM     20  C   UNL     1      34.365 -21.429 -19.092  0.00  0.00    +0.016 C 
ATOM     21  C   UNL     1      35.492 -20.985 -19.785  0.00  0.00    +0.001 C 
ATOM     22  C   UNL     1      33.090 -21.080 -19.537  0.00  0.00    +0.001 C 
ATOM     23  C   UNL     1      35.343 -20.191 -20.922  0.00  0.00    +0.000 C 
ATOM     24  C   UNL     1      32.941 -20.287 -20.674  0.00  0.00    +0.000 C 
ATOM     25  C   UNL     1      34.067 -19.843 -21.367  0.00  0.00    +0.000 C 
ENDBRANCH   7  20
TORSDOF 2
ENDMDL
