MODEL 1
REMARK VINA RESULT:      -7.7      0.000      0.000
REMARK  Name = 11840904
REMARK  6 active torsions:
REMARK  status: ('A' for Active; 'I' for Inactive)
REMARK    1  A    between atoms: C_3  and  C_21
REMARK    2  A    between atoms: C_4  and  C_8
REMARK    3  A    between atoms: C_7  and  C_11
REMARK    4  A    between atoms: C_11  and  C_12
REMARK    5  A    between atoms: C_11  and  N_17
REMARK    6  A    between atoms: C_21  and  N_22
REMARK                            x       y       z     vdW  Elec       q    Type
REMARK                         _______ _______ _______ _____ _____    ______ ____
ROOT
ATOM      1  O   UNL     1      31.216  -6.551 -21.666  0.00  0.00    -0.277 OA
ATOM      2  N   UNL     1      33.052  -7.117 -22.965  0.00  0.00    -0.276 N 
ATOM      3  C   UNL     1      32.797  -6.145 -24.038  0.00  0.00    +0.054 C 
ATOM      4  C   UNL     1      34.316  -7.829 -23.185  0.00  0.00    +0.139 C 
ATOM      5  C   UNL     1      33.951  -6.346 -25.029  0.00  0.00    +0.020 C 
ATOM      6  C   UNL     1      35.065  -6.929 -24.167  0.00  0.00    +0.035 C 
ATOM      7  C   UNL     1      32.275  -7.165 -21.814  0.00  0.00    +0.206 C 
ENDROOT
BRANCH   4   8
ATOM      8  C   UNL     1      34.073  -9.166 -23.751  0.00  0.00    -0.072 C 
ATOM      9  C   UNL     1      33.876 -10.256 -24.213  0.00  0.00    -0.088 C 
ATOM     10  C   UNL     1      33.634 -11.584 -24.776  0.00  0.00    +0.090 C 
ENDBRANCH   4   8
BRANCH   7  11
ATOM     11  C   UNL     1      32.802  -8.025 -20.693  0.00  0.00    +0.013 C 
BRANCH  11  12
ATOM     12  C   UNL     1      31.799  -9.116 -20.360  0.00  0.00    -0.011 C 
ATOM     13  C   UNL     1      31.597 -10.114 -21.495  0.00  0.00    -0.002 C 
ATOM     14  C   UNL     1      32.247 -10.015 -19.212  0.00  0.00    -0.002 C 
ATOM     15  C   UNL     1      30.954 -11.321 -20.820  0.00  0.00    -0.000 C 
ATOM     16  C   UNL     1      31.362 -11.251 -19.347  0.00  0.00    -0.000 C 
ENDBRANCH  11  12
BRANCH  11  17
ATOM     17  N   UNL     1      33.018  -7.148 -19.555  0.00  0.00    +0.387 N 
ATOM     18  H   UNL     1      32.676  -7.601 -18.707  0.00  0.00    -0.089 HD
ATOM     19  H   UNL     1      32.513  -6.273 -19.699  0.00  0.00    -0.089 HD
ATOM     20  H   UNL     1      34.015  -6.955 -19.458  0.00  0.00    -0.089 HD
ENDBRANCH  11  17
ENDBRANCH   7  11
BRANCH   3  21
ATOM     21  C   UNL     1      31.448  -6.333 -24.724  0.00  0.00    -0.066 C 
BRANCH  21  22
ATOM     22  N   UNL     1      30.606  -5.195 -24.464  0.00  0.00    +0.382 N 
ATOM     23  H   UNL     1      30.775  -4.857 -23.516  0.00  0.00    -0.089 HD
ATOM     24  H   UNL     1      29.627  -5.467 -24.557  0.00  0.00    -0.089 HD
ATOM     25  H   UNL     1      30.818  -4.454 -25.132  0.00  0.00    -0.089 HD
ENDBRANCH  21  22
ENDBRANCH   3  21
TORSDOF 6
ENDMDL
MODEL 2
REMARK VINA RESULT:      -7.3      3.653      5.960
REMARK  Name = 11840904
REMARK  6 active torsions:
REMARK  status: ('A' for Active; 'I' for Inactive)
REMARK    1  A    between atoms: C_3  and  C_21
REMARK    2  A    between atoms: C_4  and  C_8
REMARK    3  A    between atoms: C_7  and  C_11
REMARK    4  A    between atoms: C_11  and  C_12
REMARK    5  A    between atoms: C_11  and  N_17
REMARK    6  A    between atoms: C_21  and  N_22
REMARK                            x       y       z     vdW  Elec       q    Type
REMARK                         _______ _______ _______ _____ _____    ______ ____
ROOT
ATOM      1  O   UNL     1      32.361 -12.999 -20.608  0.00  0.00    -0.277 OA
ATOM      2  N   UNL     1      32.791 -13.326 -22.863  0.00  0.00    -0.276 N 
ATOM      3  C   UNL     1      33.474 -14.619 -22.712  0.00  0.00    +0.054 C 
ATOM      4  C   UNL     1      32.634 -12.972 -24.279  0.00  0.00    +0.139 C 
ATOM      5  C   UNL     1      33.837 -15.038 -24.143  0.00  0.00    +0.020 C 
ATOM      6  C   UNL     1      32.810 -14.307 -25.000  0.00  0.00    +0.035 C 
ATOM      7  C   UNL     1      32.206 -12.671 -21.786  0.00  0.00    +0.206 C 
ENDROOT
BRANCH   4   8
ATOM      8  C   UNL     1      33.653 -11.994 -24.691  0.00  0.00    -0.072 C 
ATOM      9  C   UNL     1      34.484 -11.196 -25.027  0.00  0.00    -0.088 C 
ATOM     10  C   UNL     1      35.498 -10.224 -25.437  0.00  0.00    +0.090 C 
ENDBRANCH   4   8
BRANCH   7  11
ATOM     11  C   UNL     1      31.321 -11.496 -22.124  0.00  0.00    +0.013 C 
BRANCH  11  12
ATOM     12  C   UNL     1      32.116 -10.205 -22.029  0.00  0.00    -0.011 C 
ATOM     13  C   UNL     1      31.690  -9.159 -23.055  0.00  0.00    -0.002 C 
ATOM     14  C   UNL     1      31.909  -9.468 -20.709  0.00  0.00    -0.002 C 
ATOM     15  C   UNL     1      32.250  -7.851 -22.506  0.00  0.00    -0.000 C 
ATOM     16  C   UNL     1      32.402  -8.054 -20.997  0.00  0.00    -0.000 C 
ENDBRANCH  11  12
BRANCH  11  17
ATOM     17  N   UNL     1      30.225 -11.507 -21.172  0.00  0.00    +0.387 N 
ATOM     18  H   UNL     1      30.522 -11.975 -20.316  0.00  0.00    -0.089 HD
ATOM     19  H   UNL     1      29.430 -12.004 -21.574  0.00  0.00    -0.089 HD
ATOM     20  H   UNL     1      29.952 -10.548 -20.956  0.00  0.00    -0.089 HD
ENDBRANCH  11  17
ENDBRANCH   7  11
BRANCH   3  21
ATOM     21  C   UNL     1      34.716 -14.552 -21.830  0.00  0.00    -0.066 C 
BRANCH  21  22
ATOM     22  N   UNL     1      34.475 -15.253 -20.595  0.00  0.00    +0.382 N 
ATOM     23  H   UNL     1      34.121 -16.188 -20.800  0.00  0.00    -0.089 HD
ATOM     24  H   UNL     1      33.787 -14.742 -20.042  0.00  0.00    -0.089 HD
ATOM     25  H   UNL     1      35.346 -15.327 -20.071  0.00  0.00    -0.089 HD
ENDBRANCH  21  22
ENDBRANCH   3  21
TORSDOF 6
ENDMDL
MODEL 3
REMARK VINA RESULT:      -6.8     15.149     18.241
REMARK  Name = 11840904
REMARK  6 active torsions:
REMARK  status: ('A' for Active; 'I' for Inactive)
REMARK    1  A    between atoms: C_3  and  C_21
REMARK    2  A    between atoms: C_4  and  C_8
REMARK    3  A    between atoms: C_7  and  C_11
REMARK    4  A    between atoms: C_11  and  C_12
REMARK    5  A    between atoms: C_11  and  N_17
REMARK    6  A    between atoms: C_21  and  N_22
REMARK                            x       y       z     vdW  Elec       q    Type
REMARK                         _______ _______ _______ _____ _____    ______ ____
ROOT
ATOM      1  O   UNL     1      38.125 -24.037 -15.880  0.00  0.00    -0.277 OA
ATOM      2  N   UNL     1      36.847 -23.863 -13.954  0.00  0.00    -0.276 N 
ATOM      3  C   UNL     1      37.645 -24.796 -13.145  0.00  0.00    +0.054 C 
ATOM      4  C   UNL     1      35.782 -23.246 -13.154  0.00  0.00    +0.139 C 
ATOM      5  C   UNL     1      36.956 -24.811 -11.774  0.00  0.00    +0.020 C 
ATOM      6  C   UNL     1      36.248 -23.463 -11.715  0.00  0.00    +0.035 C 
ATOM      7  C   UNL     1      37.223 -23.493 -15.239  0.00  0.00    +0.206 C 
ENDROOT
BRANCH   4   8
ATOM      8  C   UNL     1      34.489 -23.899 -13.410  0.00  0.00    -0.072 C 
ATOM      9  C   UNL     1      33.433 -24.432 -13.619  0.00  0.00    -0.088 C 
ATOM     10  C   UNL     1      32.148 -25.080 -13.874  0.00  0.00    +0.090 C 
ENDBRANCH   4   8
BRANCH   7  11
ATOM     11  C   UNL     1      36.464 -22.341 -15.848  0.00  0.00    +0.013 C 
BRANCH  11  12
ATOM     12  C   UNL     1      35.685 -22.818 -17.062  0.00  0.00    -0.011 C 
ATOM     13  C   UNL     1      34.184 -22.916 -16.813  0.00  0.00    -0.002 C 
ATOM     14  C   UNL     1      35.756 -21.850 -18.240  0.00  0.00    -0.002 C 
ATOM     15  C   UNL     1      33.575 -22.948 -18.212  0.00  0.00    -0.000 C 
ATOM     16  C   UNL     1      34.593 -22.272 -19.133  0.00  0.00    -0.000 C 
ENDBRANCH  11  12
BRANCH  11  17
ATOM     17  N   UNL     1      37.447 -21.338 -16.219  0.00  0.00    +0.387 N 
ATOM     18  H   UNL     1      38.059 -21.151 -15.424  0.00  0.00    -0.089 HD
ATOM     19  H   UNL     1      36.969 -20.477 -16.490  0.00  0.00    -0.089 HD
ATOM     20  H   UNL     1      38.003 -21.679 -17.003  0.00  0.00    -0.089 HD
ENDBRANCH  11  17
ENDBRANCH   7  11
BRANCH   3  21
ATOM     21  C   UNL     1      37.722 -26.201 -13.734  0.00  0.00    -0.066 C 
BRANCH  21  22
ATOM     22  N   UNL     1      39.057 -26.457 -14.209  0.00  0.00    +0.382 N 
ATOM     23  H   UNL     1      39.055 -27.299 -14.787  0.00  0.00    -0.089 HD
ATOM     24  H   UNL     1      39.682 -26.592 -13.414  0.00  0.00    -0.089 HD
ATOM     25  H   UNL     1      39.379 -25.665 -14.764  0.00  0.00    -0.089 HD
ENDBRANCH  21  22
ENDBRANCH   3  21
TORSDOF 6
ENDMDL
MODEL 4
REMARK VINA RESULT:      -6.7      3.114      4.891
REMARK  Name = 11840904
REMARK  6 active torsions:
REMARK  status: ('A' for Active; 'I' for Inactive)
REMARK    1  A    between atoms: C_3  and  C_21
REMARK    2  A    between atoms: C_4  and  C_8
REMARK    3  A    between atoms: C_7  and  C_11
REMARK    4  A    between atoms: C_11  and  C_12
REMARK    5  A    between atoms: C_11  and  N_17
REMARK    6  A    between atoms: C_21  and  N_22
REMARK                            x       y       z     vdW  Elec       q    Type
REMARK                         _______ _______ _______ _____ _____    ______ ____
ROOT
ATOM      1  O   UNL     1      34.617 -11.102 -24.345  0.00  0.00    -0.277 OA
ATOM      2  N   UNL     1      32.735 -10.120 -23.415  0.00  0.00    -0.276 N 
ATOM      3  C   UNL     1      33.096  -8.734 -23.743  0.00  0.00    +0.054 C 
ATOM      4  C   UNL     1      31.401 -10.190 -22.806  0.00  0.00    +0.139 C 
ATOM      5  C   UNL     1      31.929  -7.891 -23.212  0.00  0.00    +0.020 C 
ATOM      6  C   UNL     1      30.757  -8.864 -23.209  0.00  0.00    +0.035 C 
ATOM      7  C   UNL     1      33.499 -11.201 -23.837  0.00  0.00    +0.206 C 
ENDROOT
BRANCH   4   8
ATOM      8  C   UNL     1      31.499 -10.324 -21.343  0.00  0.00    -0.072 C 
ATOM      9  C   UNL     1      31.578 -10.433 -20.150  0.00  0.00    -0.088 C 
ATOM     10  C   UNL     1      31.675 -10.565 -18.697  0.00  0.00    +0.090 C 
ENDBRANCH   4   8
BRANCH   7  11
ATOM     11  C   UNL     1      32.878 -12.565 -23.656  0.00  0.00    +0.013 C 
BRANCH  11  12
ATOM     12  C   UNL     1      33.415 -13.214 -22.392  0.00  0.00    -0.011 C 
ATOM     13  C   UNL     1      32.330 -13.870 -21.544  0.00  0.00    -0.002 C 
ATOM     14  C   UNL     1      34.359 -14.381 -22.671  0.00  0.00    -0.002 C 
ATOM     15  C   UNL     1      33.097 -14.818 -20.627  0.00  0.00    -0.000 C 
ATOM     16  C   UNL     1      34.409 -15.138 -21.347  0.00  0.00    -0.000 C 
ENDBRANCH  11  12
BRANCH  11  17
ATOM     17  N   UNL     1      33.223 -13.344 -24.832  0.00  0.00    +0.387 N 
ATOM     18  H   UNL     1      33.543 -12.720 -25.572  0.00  0.00    -0.089 HD
ATOM     19  H   UNL     1      32.402 -13.858 -25.152  0.00  0.00    -0.089 HD
ATOM     20  H   UNL     1      33.966 -14.002 -24.598  0.00  0.00    -0.089 HD
ENDBRANCH  11  17
ENDBRANCH   7  11
BRANCH   3  21
ATOM     21  C   UNL     1      34.418  -8.286 -23.129  0.00  0.00    -0.066 C 
BRANCH  21  22
ATOM     22  N   UNL     1      34.902  -7.115 -23.812  0.00  0.00    +0.382 N 
ATOM     23  H   UNL     1      35.413  -6.525 -23.154  0.00  0.00    -0.089 HD
ATOM     24  H   UNL     1      34.113  -6.594 -24.195  0.00  0.00    -0.089 HD
ATOM     25  H   UNL     1      35.523  -7.396 -24.570  0.00  0.00    -0.089 HD
ENDBRANCH  21  22
ENDBRANCH   3  21
TORSDOF 6
ENDMDL
MODEL 5
REMARK VINA RESULT:      -6.3      1.371      5.319
REMARK  Name = 11840904
REMARK  6 active torsions:
REMARK  status: ('A' for Active; 'I' for Inactive)
REMARK    1  A    between atoms: C_3  and  C_21
REMARK    2  A    between atoms: C_4  and  C_8
REMARK    3  A    between atoms: C_7  and  C_11
REMARK    4  A    between atoms: C_11  and  C_12
REMARK    5  A    between atoms: C_11  and  N_17
REMARK    6  A    between atoms: C_21  and  N_22
REMARK                            x       y       z     vdW  Elec       q    Type
REMARK                         _______ _______ _______ _____ _____    ______ ____
ROOT
ATOM      1  O   UNL     1      32.052  -5.563 -22.190  0.00  0.00    -0.277 OA
ATOM      2  N   UNL     1      31.927  -7.847 -22.564  0.00  0.00    -0.276 N 
ATOM      3  C   UNL     1      31.887  -8.242 -21.148  0.00  0.00    +0.054 C 
ATOM      4  C   UNL     1      31.764  -9.011 -23.443  0.00  0.00    +0.139 C 
ATOM      5  C   UNL     1      31.780  -9.772 -21.172  0.00  0.00    +0.020 C 
ATOM      6  C   UNL     1      31.143 -10.064 -22.526  0.00  0.00    +0.035 C 
ATOM      7  C   UNL     1      31.912  -6.515 -22.959  0.00  0.00    +0.206 C 
ENDROOT
BRANCH   4   8
ATOM      8  C   UNL     1      33.064  -9.454 -23.974  0.00  0.00    -0.072 C 
ATOM      9  C   UNL     1      34.124  -9.814 -24.407  0.00  0.00    -0.088 C 
ATOM     10  C   UNL     1      35.415 -10.253 -24.935  0.00  0.00    +0.090 C 
ENDBRANCH   4   8
BRANCH   7  11
ATOM     11  C   UNL     1      31.694  -6.262 -24.430  0.00  0.00    +0.013 C 
BRANCH  11  12
ATOM     12  C   UNL     1      32.877  -5.503 -25.006  0.00  0.00    -0.011 C 
ATOM     13  C   UNL     1      34.072  -6.398 -25.319  0.00  0.00    -0.002 C 
ATOM     14  C   UNL     1      32.582  -4.869 -26.362  0.00  0.00    -0.002 C 
ATOM     15  C   UNL     1      34.921  -5.564 -26.274  0.00  0.00    -0.000 C 
ATOM     16  C   UNL     1      33.964  -4.571 -26.937  0.00  0.00    -0.000 C 
ENDBRANCH  11  12
BRANCH  11  17
ATOM     17  N   UNL     1      30.470  -5.489 -24.548  0.00  0.00    +0.387 N 
ATOM     18  H   UNL     1      29.681  -6.049 -24.224  0.00  0.00    -0.089 HD
ATOM     19  H   UNL     1      30.324  -5.229 -25.524  0.00  0.00    -0.089 HD
ATOM     20  H   UNL     1      30.543  -4.646 -23.978  0.00  0.00    -0.089 HD
ENDBRANCH  11  17
ENDBRANCH   7  11
BRANCH   3  21
ATOM     21  C   UNL     1      33.109  -7.791 -20.355  0.00  0.00    -0.066 C 
BRANCH  21  22
ATOM     22  N   UNL     1      32.732  -6.764 -19.420  0.00  0.00    +0.382 N 
ATOM     23  H   UNL     1      31.715  -6.724 -19.351  0.00  0.00    -0.089 HD
ATOM     24  H   UNL     1      33.086  -5.863 -19.743  0.00  0.00    -0.089 HD
ATOM     25  H   UNL     1      33.127  -6.976 -18.504  0.00  0.00    -0.089 HD
ENDBRANCH  21  22
ENDBRANCH   3  21
TORSDOF 6
ENDMDL
MODEL 6
REMARK VINA RESULT:      -5.9      7.075      9.287
REMARK  Name = 11840904
REMARK  6 active torsions:
REMARK  status: ('A' for Active; 'I' for Inactive)
REMARK    1  A    between atoms: C_3  and  C_21
REMARK    2  A    between atoms: C_4  and  C_8
REMARK    3  A    between atoms: C_7  and  C_11
REMARK    4  A    between atoms: C_11  and  C_12
REMARK    5  A    between atoms: C_11  and  N_17
REMARK    6  A    between atoms: C_21  and  N_22
REMARK                            x       y       z     vdW  Elec       q    Type
REMARK                         _______ _______ _______ _____ _____    ______ ____
ROOT
ATOM      1  O   UNL     1      33.423 -15.325 -23.827  0.00  0.00    -0.277 OA
ATOM      2  N   UNL     1      34.658 -16.964 -22.748  0.00  0.00    -0.276 N 
ATOM      3  C   UNL     1      35.303 -17.502 -23.955  0.00  0.00    +0.054 C 
ATOM      4  C   UNL     1      35.172 -17.615 -21.538  0.00  0.00    +0.139 C 
ATOM      5  C   UNL     1      36.212 -18.626 -23.443  0.00  0.00    +0.020 C 
ATOM      6  C   UNL     1      36.493 -18.228 -21.999  0.00  0.00    +0.035 C 
ATOM      7  C   UNL     1      33.835 -15.845 -22.788  0.00  0.00    +0.206 C 
ENDROOT
BRANCH   4   8
ATOM      8  C   UNL     1      34.235 -18.644 -21.058  0.00  0.00    -0.072 C 
ATOM      9  C   UNL     1      33.471 -19.483 -20.667  0.00  0.00    -0.088 C 
ATOM     10  C   UNL     1      32.540 -20.505 -20.190  0.00  0.00    +0.090 C 
ENDBRANCH   4   8
BRANCH   7  11
ATOM     11  C   UNL     1      33.455 -15.252 -21.454  0.00  0.00    +0.013 C 
BRANCH  11  12
ATOM     12  C   UNL     1      32.435 -14.144 -21.652  0.00  0.00    -0.011 C 
ATOM     13  C   UNL     1      32.199 -13.312 -20.395  0.00  0.00    -0.002 C 
ATOM     14  C   UNL     1      32.881 -13.090 -22.661  0.00  0.00    -0.002 C 
ATOM     15  C   UNL     1      31.541 -12.036 -20.912  0.00  0.00    -0.000 C 
ATOM     16  C   UNL     1      31.971 -11.899 -22.374  0.00  0.00    -0.000 C 
ENDBRANCH  11  12
BRANCH  11  17
ATOM     17  N   UNL     1      34.676 -14.739 -20.858  0.00  0.00    +0.387 N 
ATOM     18  H   UNL     1      35.114 -14.076 -21.498  0.00  0.00    -0.089 HD
ATOM     19  H   UNL     1      35.317 -15.511 -20.677  0.00  0.00    -0.089 HD
ATOM     20  H   UNL     1      34.454 -14.267 -19.981  0.00  0.00    -0.089 HD
ENDBRANCH  11  17
ENDBRANCH   7  11
BRANCH   3  21
ATOM     21  C   UNL     1      34.315 -18.026 -24.992  0.00  0.00    -0.066 C 
BRANCH  21  22
ATOM     22  N   UNL     1      34.291 -19.465 -24.959  0.00  0.00    +0.382 N 
ATOM     23  H   UNL     1      33.409 -19.781 -24.556  0.00  0.00    -0.089 HD
ATOM     24  H   UNL     1      35.067 -19.806 -24.389  0.00  0.00    -0.089 HD
ATOM     25  H   UNL     1      34.381 -19.829 -25.908  0.00  0.00    -0.089 HD
ENDBRANCH  21  22
ENDBRANCH   3  21
TORSDOF 6
ENDMDL
MODEL 7
REMARK VINA RESULT:      -5.7     15.110     16.826
REMARK  Name = 11840904
REMARK  6 active torsions:
REMARK  status: ('A' for Active; 'I' for Inactive)
REMARK    1  A    between atoms: C_3  and  C_21
REMARK    2  A    between atoms: C_4  and  C_8
REMARK    3  A    between atoms: C_7  and  C_11
REMARK    4  A    between atoms: C_11  and  C_12
REMARK    5  A    between atoms: C_11  and  N_17
REMARK    6  A    between atoms: C_21  and  N_22
REMARK                            x       y       z     vdW  Elec       q    Type
REMARK                         _______ _______ _______ _____ _____    ______ ____
ROOT
ATOM      1  O   UNL     1      32.317 -22.830 -17.440  0.00  0.00    -0.277 OA
ATOM      2  N   UNL     1      34.394 -22.885 -16.410  0.00  0.00    -0.276 N 
ATOM      3  C   UNL     1      35.113 -22.140 -17.454  0.00  0.00    +0.054 C 
ATOM      4  C   UNL     1      35.267 -23.170 -15.266  0.00  0.00    +0.139 C 
ATOM      5  C   UNL     1      36.555 -22.044 -16.941  0.00  0.00    +0.020 C 
ATOM      6  C   UNL     1      36.406 -22.164 -15.429  0.00  0.00    +0.035 C 
ATOM      7  C   UNL     1      33.019 -23.083 -16.459  0.00  0.00    +0.206 C 
ENDROOT
BRANCH   4   8
ATOM      8  C   UNL     1      35.758 -24.557 -15.314  0.00  0.00    -0.072 C 
ATOM      9  C   UNL     1      36.159 -25.688 -15.353  0.00  0.00    -0.088 C 
ATOM     10  C   UNL     1      36.647 -27.066 -15.401  0.00  0.00    +0.090 C 
ENDBRANCH   4   8
BRANCH   7  11
ATOM     11  C   UNL     1      32.382 -23.630 -15.206  0.00  0.00    +0.013 C 
BRANCH  11  12
ATOM     12  C   UNL     1      30.995 -24.163 -15.521  0.00  0.00    -0.011 C 
ATOM     13  C   UNL     1      30.512 -25.211 -14.523  0.00  0.00    -0.002 C 
ATOM     14  C   UNL     1      29.906 -23.099 -15.426  0.00  0.00    -0.002 C 
ATOM     15  C   UNL     1      29.002 -25.259 -14.735  0.00  0.00    -0.000 C 
ATOM     16  C   UNL     1      28.613 -23.903 -15.328  0.00  0.00    -0.000 C 
ENDBRANCH  11  12
BRANCH  11  17
ATOM     17  N   UNL     1      32.317 -22.536 -14.253  0.00  0.00    +0.387 N 
ATOM     18  H   UNL     1      31.400 -22.528 -13.806  0.00  0.00    -0.089 HD
ATOM     19  H   UNL     1      32.465 -21.651 -14.740  0.00  0.00    -0.089 HD
ATOM     20  H   UNL     1      33.040 -22.659 -13.543  0.00  0.00    -0.089 HD
ENDBRANCH  11  17
ENDBRANCH   7  11
BRANCH   3  21
ATOM     21  C   UNL     1      35.062 -22.808 -18.824  0.00  0.00    -0.066 C 
BRANCH  21  22
ATOM     22  N   UNL     1      34.172 -22.080 -19.689  0.00  0.00    +0.382 N 
ATOM     23  H   UNL     1      33.784 -22.714 -20.388  0.00  0.00    -0.089 HD
ATOM     24  H   UNL     1      34.687 -21.333 -20.157  0.00  0.00    -0.089 HD
ATOM     25  H   UNL     1      33.415 -21.677 -19.138  0.00  0.00    -0.089 HD
ENDBRANCH  21  22
ENDBRANCH   3  21
TORSDOF 6
ENDMDL
MODEL 8
REMARK VINA RESULT:      -5.6      3.618      6.291
REMARK  Name = 11840904
REMARK  6 active torsions:
REMARK  status: ('A' for Active; 'I' for Inactive)
REMARK    1  A    between atoms: C_3  and  C_21
REMARK    2  A    between atoms: C_4  and  C_8
REMARK    3  A    between atoms: C_7  and  C_11
REMARK    4  A    between atoms: C_11  and  C_12
REMARK    5  A    between atoms: C_11  and  N_17
REMARK    6  A    between atoms: C_21  and  N_22
REMARK                            x       y       z     vdW  Elec       q    Type
REMARK                         _______ _______ _______ _____ _____    ______ ____
ROOT
ATOM      1  O   UNL     1      34.042 -11.536 -26.216  0.00  0.00    -0.277 OA
ATOM      2  N   UNL     1      33.822 -12.700 -24.223  0.00  0.00    -0.276 N 
ATOM      3  C   UNL     1      33.568 -14.015 -24.830  0.00  0.00    +0.054 C 
ATOM      4  C   UNL     1      33.917 -12.800 -22.762  0.00  0.00    +0.139 C 
ATOM      5  C   UNL     1      33.408 -14.969 -23.640  0.00  0.00    +0.020 C 
ATOM      6  C   UNL     1      34.191 -14.285 -22.525  0.00  0.00    +0.035 C 
ATOM      7  C   UNL     1      34.134 -11.582 -24.988  0.00  0.00    +0.206 C 
ENDROOT
BRANCH   4   8
ATOM      8  C   UNL     1      32.661 -12.372 -22.125  0.00  0.00    -0.072 C 
ATOM      9  C   UNL     1      31.637 -12.022 -21.605  0.00  0.00    -0.088 C 
ATOM     10  C   UNL     1      30.389 -11.596 -20.972  0.00  0.00    +0.090 C 
ENDBRANCH   4   8
BRANCH   7  11
ATOM     11  C   UNL     1      34.623 -10.374 -24.230  0.00  0.00    +0.013 C 
BRANCH  11  12
ATOM     12  C   UNL     1      33.676  -9.206 -24.449  0.00  0.00    -0.011 C 
ATOM     13  C   UNL     1      32.415  -9.286 -23.596  0.00  0.00    -0.002 C 
ATOM     14  C   UNL     1      34.269  -7.865 -24.027  0.00  0.00    -0.002 C 
ATOM     15  C   UNL     1      31.863  -7.864 -23.614  0.00  0.00    -0.000 C 
ATOM     16  C   UNL     1      33.055  -6.949 -23.903  0.00  0.00    -0.000 C 
ENDBRANCH  11  12
BRANCH  11  17
ATOM     17  N   UNL     1      35.952 -10.071 -24.732  0.00  0.00    +0.387 N 
ATOM     18  H   UNL     1      36.025 -10.371 -25.704  0.00  0.00    -0.089 HD
ATOM     19  H   UNL     1      36.648 -10.562 -24.171  0.00  0.00    -0.089 HD
ATOM     20  H   UNL     1      36.117  -9.065 -24.675  0.00  0.00    -0.089 HD
ENDBRANCH  11  17
ENDBRANCH   7  11
BRANCH   3  21
ATOM     21  C   UNL     1      32.334 -14.044 -25.724  0.00  0.00    -0.066 C 
BRANCH  21  22
ATOM     22  N   UNL     1      32.394 -15.184 -26.602  0.00  0.00    +0.382 N 
ATOM     23  H   UNL     1      33.272 -15.682 -26.451  0.00  0.00    -0.089 HD
ATOM     24  H   UNL     1      32.345 -14.870 -27.572  0.00  0.00    -0.089 HD
ATOM     25  H   UNL     1      31.611 -15.807 -26.406  0.00  0.00    -0.089 HD
ENDBRANCH  21  22
ENDBRANCH   3  21
TORSDOF 6
ENDMDL
MODEL 9
REMARK VINA RESULT:      -5.6      2.179      5.841
REMARK  Name = 11840904
REMARK  6 active torsions:
REMARK  status: ('A' for Active; 'I' for Inactive)
REMARK    1  A    between atoms: C_3  and  C_21
REMARK    2  A    between atoms: C_4  and  C_8
REMARK    3  A    between atoms: C_7  and  C_11
REMARK    4  A    between atoms: C_11  and  C_12
REMARK    5  A    between atoms: C_11  and  N_17
REMARK    6  A    between atoms: C_21  and  N_22
REMARK                            x       y       z     vdW  Elec       q    Type
REMARK                         _______ _______ _______ _____ _____    ______ ____
ROOT
ATOM      1  O   UNL     1      33.175  -9.516 -24.051  0.00  0.00    -0.277 OA
ATOM      2  N   UNL     1      32.684  -8.584 -21.986  0.00  0.00    -0.276 N 
ATOM      3  C   UNL     1      32.071  -9.787 -21.406  0.00  0.00    +0.054 C 
ATOM      4  C   UNL     1      32.774  -7.505 -20.995  0.00  0.00    +0.139 C 
ATOM      5  C   UNL     1      31.680  -9.377 -19.981  0.00  0.00    +0.020 C 
ATOM      6  C   UNL     1      32.639  -8.237 -19.661  0.00  0.00    +0.035 C 
ATOM      7  C   UNL     1      33.274  -8.589 -23.245  0.00  0.00    +0.206 C 
ENDROOT
BRANCH   4   8
ATOM      8  C   UNL     1      31.694  -6.524 -21.188  0.00  0.00    -0.072 C 
ATOM      9  C   UNL     1      30.814  -5.723 -21.346  0.00  0.00    -0.088 C 
ATOM     10  C   UNL     1      29.740  -4.749 -21.537  0.00  0.00    +0.090 C 
ENDBRANCH   4   8
BRANCH   7  11
ATOM     11  C   UNL     1      34.087  -7.370 -23.603  0.00  0.00    +0.013 C 
BRANCH  11  12
ATOM     12  C   UNL     1      33.525  -6.722 -24.856  0.00  0.00    -0.011 C 
ATOM     13  C   UNL     1      32.551  -5.586 -24.562  0.00  0.00    -0.002 C 
ATOM     14  C   UNL     1      34.588  -6.028 -25.702  0.00  0.00    -0.002 C 
ATOM     15  C   UNL     1      32.480  -4.808 -25.872  0.00  0.00    -0.000 C 
ATOM     16  C   UNL     1      33.787  -5.102 -26.612  0.00  0.00    -0.000 C 
ENDBRANCH  11  12
BRANCH  11  17
ATOM     17  N   UNL     1      35.451  -7.821 -23.814  0.00  0.00    +0.387 N 
ATOM     18  H   UNL     1      35.627  -8.651 -23.247  0.00  0.00    -0.089 HD
ATOM     19  H   UNL     1      36.100  -7.081 -23.544  0.00  0.00    -0.089 HD
ATOM     20  H   UNL     1      35.586  -8.049 -24.799  0.00  0.00    -0.089 HD
ENDBRANCH  11  17
ENDBRANCH   7  11
BRANCH   3  21
ATOM     21  C   UNL     1      30.859 -10.289 -22.184  0.00  0.00    -0.066 C 
BRANCH  21  22
ATOM     22  N   UNL     1      30.495 -11.604 -21.725  0.00  0.00    +0.382 N 
ATOM     23  H   UNL     1      31.340 -12.148 -21.550  0.00  0.00    -0.089 HD
ATOM     24  H   UNL     1      29.932 -12.069 -22.438  0.00  0.00    -0.089 HD
ATOM     25  H   UNL     1      29.955 -11.526 -20.863  0.00  0.00    -0.089 HD
ENDBRANCH  21  22
ENDBRANCH   3  21
TORSDOF 6
ENDMDL
