MODEL 1
REMARK VINA RESULT:      -7.7      0.000      0.000
REMARK  Name = 56843908
REMARK  14 active torsions:
REMARK  status: ('A' for Active; 'I' for Inactive)
REMARK    1  A    between atoms: N_2  and  C_5
REMARK    2  A    between atoms: C_3  and  C_14
REMARK    3  A    between atoms: C_5  and  C_7
REMARK    4  A    between atoms: C_5  and  C_10
REMARK    5  A    between atoms: C_7  and  O_8
REMARK    6  A    between atoms: C_10  and  C_11
REMARK    7  A    between atoms: C_14  and  C_15
REMARK    8  A    between atoms: C_15  and  C_16
REMARK    9  A    between atoms: C_16  and  C_17
REMARK   10  A    between atoms: C_17  and  C_18
REMARK   11  A    between atoms: C_18  and  C_19
REMARK   12  A    between atoms: C_19  and  C_20
REMARK   13  A    between atoms: C_20  and  C_21
REMARK   14  A    between atoms: C_21  and  C_22
REMARK                            x       y       z     vdW  Elec       q    Type
REMARK                         _______ _______ _______ _____ _____    ______ ____
ROOT
ATOM      1  O   UNL     1      34.937 -15.039 -23.234  0.00  0.00    -0.275 OA
ATOM      2  N   UNL     1      33.515 -13.705 -24.498  0.00  0.00    -0.297 N 
ATOM      3  C   UNL     1      34.167 -14.888 -24.179  0.00  0.00    +0.223 C 
ATOM      4  H   UNL     1      32.918 -13.697 -25.280  0.00  0.00    +0.150 HD
ENDROOT
BRANCH   2   5
ATOM      5  C   UNL     1      33.670 -12.485 -23.738  0.00  0.00    +0.171 C 
BRANCH   5   7
ATOM      6  O   UNL     1      32.063 -13.427 -22.170  0.00  0.00    -0.248 OA
ATOM      7  C   UNL     1      32.524 -12.450 -22.746  0.00  0.00    +0.335 C 
BRANCH   7   8
ATOM      8  O   UNL     1      32.062 -11.169 -22.639  0.00  0.00    -0.443 OA
ATOM      9  C   UNL     1      30.942 -10.989 -21.767  0.00  0.00    +0.256 C 
ENDBRANCH   7   8
ENDBRANCH   5   7
BRANCH   5  10
ATOM     10  C   UNL     1      33.639 -11.235 -24.621  0.00  0.00    +0.031 C 
BRANCH  10  11
ATOM     11  C   UNL     1      34.926 -10.387 -24.587  0.00  0.00    +0.002 C 
ATOM     12  C   UNL     1      34.675  -8.966 -24.081  0.00  0.00    +0.000 C 
ATOM     13  C   UNL     1      35.547 -10.334 -25.985  0.00  0.00    +0.000 C 
ENDBRANCH  10  11
ENDBRANCH   5  10
ENDBRANCH   2   5
BRANCH   3  14
ATOM     14  C   UNL     1      33.844 -15.992 -25.172  0.00  0.00    +0.085 C 
BRANCH  14  15
ATOM     15  C   UNL     1      34.838 -17.152 -25.148  0.00  0.00    +0.010 C 
BRANCH  15  16
ATOM     16  C   UNL     1      34.219 -18.528 -24.877  0.00  0.00    +0.001 C 
BRANCH  16  17
ATOM     17  C   UNL     1      34.882 -19.280 -23.720  0.00  0.00    +0.000 C 
BRANCH  17  18
ATOM     18  C   UNL     1      35.796 -18.356 -22.911  0.00  0.00    +0.000 C 
BRANCH  18  19
ATOM     19  C   UNL     1      35.709 -18.658 -21.414  0.00  0.00    +0.000 C 
BRANCH  19  20
ATOM     20  C   UNL     1      34.313 -19.157 -21.030  0.00  0.00    +0.005 C 
BRANCH  20  21
ATOM     21  C   UNL     1      34.335 -20.512 -20.314  0.00  0.00    +0.026 C 
BRANCH  21  22
ATOM     22  C   UNL     1      35.722 -21.056 -20.132  0.00  0.00    -0.026 C 
ATOM     23  C   UNL     1      36.235 -21.415 -18.951  0.00  0.00    -0.005 C 
ENDBRANCH  21  22
ENDBRANCH  20  21
ENDBRANCH  19  20
ENDBRANCH  18  19
ENDBRANCH  17  18
ENDBRANCH  16  17
ENDBRANCH  15  16
ENDBRANCH  14  15
ENDBRANCH   3  14
TORSDOF 14
ENDMDL
MODEL 2
REMARK VINA RESULT:      -7.6      7.214     13.061
REMARK  Name = 56843908
REMARK  14 active torsions:
REMARK  status: ('A' for Active; 'I' for Inactive)
REMARK    1  A    between atoms: N_2  and  C_5
REMARK    2  A    between atoms: C_3  and  C_14
REMARK    3  A    between atoms: C_5  and  C_7
REMARK    4  A    between atoms: C_5  and  C_10
REMARK    5  A    between atoms: C_7  and  O_8
REMARK    6  A    between atoms: C_10  and  C_11
REMARK    7  A    between atoms: C_14  and  C_15
REMARK    8  A    between atoms: C_15  and  C_16
REMARK    9  A    between atoms: C_16  and  C_17
REMARK   10  A    between atoms: C_17  and  C_18
REMARK   11  A    between atoms: C_18  and  C_19
REMARK   12  A    between atoms: C_19  and  C_20
REMARK   13  A    between atoms: C_20  and  C_21
REMARK   14  A    between atoms: C_21  and  C_22
REMARK                            x       y       z     vdW  Elec       q    Type
REMARK                         _______ _______ _______ _____ _____    ______ ____
ROOT
ATOM      1  O   UNL     1      37.934 -22.486 -15.697  0.00  0.00    -0.275 OA
ATOM      2  N   UNL     1      36.514 -24.288 -15.329  0.00  0.00    -0.297 N 
ATOM      3  C   UNL     1      36.880 -23.080 -15.905  0.00  0.00    +0.223 C 
ATOM      4  H   UNL     1      35.642 -24.675 -15.568  0.00  0.00    +0.150 HD
ENDROOT
BRANCH   2   5
ATOM      5  C   UNL     1      37.352 -25.005 -14.394  0.00  0.00    +0.171 C 
BRANCH   5   7
ATOM      6  O   UNL     1      36.967 -26.965 -15.785  0.00  0.00    -0.248 OA
ATOM      7  C   UNL     1      37.712 -26.318 -15.061  0.00  0.00    +0.335 C 
BRANCH   7   8
ATOM      8  O   UNL     1      38.974 -26.682 -14.685  0.00  0.00    -0.443 OA
ATOM      9  C   UNL     1      39.937 -25.624 -14.654  0.00  0.00    +0.256 C 
ENDBRANCH   7   8
ENDBRANCH   5   7
BRANCH   5  10
ATOM     10  C   UNL     1      36.651 -25.270 -13.059  0.00  0.00    +0.031 C 
BRANCH  10  11
ATOM     11  C   UNL     1      36.257 -24.003 -12.273  0.00  0.00    +0.002 C 
ATOM     12  C   UNL     1      37.455 -23.094 -11.994  0.00  0.00    +0.000 C 
ATOM     13  C   UNL     1      35.593 -24.401 -10.952  0.00  0.00    +0.000 C 
ENDBRANCH  10  11
ENDBRANCH   5  10
ENDBRANCH   2   5
BRANCH   3  14
ATOM     14  C   UNL     1      35.789 -22.541 -16.816  0.00  0.00    +0.085 C 
BRANCH  14  15
ATOM     15  C   UNL     1      36.314 -21.663 -17.952  0.00  0.00    +0.010 C 
BRANCH  15  16
ATOM     16  C   UNL     1      35.625 -21.878 -19.305  0.00  0.00    +0.001 C 
BRANCH  16  17
ATOM     17  C   UNL     1      34.109 -21.673 -19.259  0.00  0.00    +0.000 C 
BRANCH  17  18
ATOM     18  C   UNL     1      33.680 -20.509 -20.157  0.00  0.00    +0.000 C 
BRANCH  18  19
ATOM     19  C   UNL     1      34.874 -19.916 -20.909  0.00  0.00    +0.000 C 
BRANCH  19  20
ATOM     20  C   UNL     1      34.444 -19.330 -22.256  0.00  0.00    +0.005 C 
BRANCH  20  21
ATOM     21  C   UNL     1      34.878 -17.872 -22.442  0.00  0.00    +0.026 C 
BRANCH  21  22
ATOM     22  C   UNL     1      35.071 -17.148 -21.142  0.00  0.00    -0.026 C 
ATOM     23  C   UNL     1      34.419 -16.031 -20.804  0.00  0.00    -0.005 C 
ENDBRANCH  21  22
ENDBRANCH  20  21
ENDBRANCH  19  20
ENDBRANCH  18  19
ENDBRANCH  17  18
ENDBRANCH  16  17
ENDBRANCH  15  16
ENDBRANCH  14  15
ENDBRANCH   3  14
TORSDOF 14
ENDMDL
MODEL 3
REMARK VINA RESULT:      -7.6      3.122      8.749
REMARK  Name = 56843908
REMARK  14 active torsions:
REMARK  status: ('A' for Active; 'I' for Inactive)
REMARK    1  A    between atoms: N_2  and  C_5
REMARK    2  A    between atoms: C_3  and  C_14
REMARK    3  A    between atoms: C_5  and  C_7
REMARK    4  A    between atoms: C_5  and  C_10
REMARK    5  A    between atoms: C_7  and  O_8
REMARK    6  A    between atoms: C_10  and  C_11
REMARK    7  A    between atoms: C_14  and  C_15
REMARK    8  A    between atoms: C_15  and  C_16
REMARK    9  A    between atoms: C_16  and  C_17
REMARK   10  A    between atoms: C_17  and  C_18
REMARK   11  A    between atoms: C_18  and  C_19
REMARK   12  A    between atoms: C_19  and  C_20
REMARK   13  A    between atoms: C_20  and  C_21
REMARK   14  A    between atoms: C_21  and  C_22
REMARK                            x       y       z     vdW  Elec       q    Type
REMARK                         _______ _______ _______ _____ _____    ______ ____
ROOT
ATOM      1  O   UNL     1      33.947 -11.693 -26.109  0.00  0.00    -0.275 OA
ATOM      2  N   UNL     1      33.853 -11.926 -23.799  0.00  0.00    -0.297 N 
ATOM      3  C   UNL     1      34.183 -11.275 -24.979  0.00  0.00    +0.223 C 
ATOM      4  H   UNL     1      34.091 -11.497 -22.946  0.00  0.00    +0.150 HD
ENDROOT
BRANCH   2   5
ATOM      5  C   UNL     1      33.178 -13.204 -23.762  0.00  0.00    +0.171 C 
BRANCH   5   7
ATOM      6  O   UNL     1      32.244 -14.168 -21.730  0.00  0.00    -0.248 OA
ATOM      7  C   UNL     1      32.351 -13.214 -22.491  0.00  0.00    +0.335 C 
BRANCH   7   8
ATOM      8  O   UNL     1      31.712 -12.014 -22.360  0.00  0.00    -0.443 OA
ATOM      9  C   UNL     1      31.432 -11.607 -21.017  0.00  0.00    +0.256 C 
ENDBRANCH   7   8
ENDBRANCH   5   7
BRANCH   5  10
ATOM     10  C   UNL     1      34.153 -14.384 -23.763  0.00  0.00    +0.031 C 
BRANCH  10  11
ATOM     11  C   UNL     1      33.705 -15.591 -24.610  0.00  0.00    +0.002 C 
ATOM     12  C   UNL     1      34.809 -16.637 -24.765  0.00  0.00    +0.000 C 
ATOM     13  C   UNL     1      33.251 -15.113 -25.992  0.00  0.00    +0.000 C 
ENDBRANCH  10  11
ENDBRANCH   5  10
ENDBRANCH   2   5
BRANCH   3  14
ATOM     14  C   UNL     1      34.918  -9.971 -24.713  0.00  0.00    +0.085 C 
BRANCH  14  15
ATOM     15  C   UNL     1      34.265  -9.103 -23.638  0.00  0.00    +0.010 C 
BRANCH  15  16
ATOM     16  C   UNL     1      34.728  -7.642 -23.618  0.00  0.00    +0.001 C 
BRANCH  16  17
ATOM     17  C   UNL     1      34.174  -6.809 -24.776  0.00  0.00    +0.000 C 
BRANCH  17  18
ATOM     18  C   UNL     1      32.974  -5.969 -24.329  0.00  0.00    +0.000 C 
BRANCH  18  19
ATOM     19  C   UNL     1      31.674  -6.774 -24.400  0.00  0.00    +0.000 C 
BRANCH  19  20
ATOM     20  C   UNL     1      31.113  -7.044 -23.000  0.00  0.00    +0.005 C 
BRANCH  20  21
ATOM     21  C   UNL     1      31.560  -6.007 -21.965  0.00  0.00    +0.026 C 
BRANCH  21  22
ATOM     22  C   UNL     1      32.122  -6.627 -20.719  0.00  0.00    -0.026 C 
ATOM     23  C   UNL     1      32.477  -7.912 -20.617  0.00  0.00    -0.005 C 
ENDBRANCH  21  22
ENDBRANCH  20  21
ENDBRANCH  19  20
ENDBRANCH  18  19
ENDBRANCH  17  18
ENDBRANCH  16  17
ENDBRANCH  15  16
ENDBRANCH  14  15
ENDBRANCH   3  14
TORSDOF 14
ENDMDL
MODEL 4
REMARK VINA RESULT:      -7.6      2.124      8.511
REMARK  Name = 56843908
REMARK  14 active torsions:
REMARK  status: ('A' for Active; 'I' for Inactive)
REMARK    1  A    between atoms: N_2  and  C_5
REMARK    2  A    between atoms: C_3  and  C_14
REMARK    3  A    between atoms: C_5  and  C_7
REMARK    4  A    between atoms: C_5  and  C_10
REMARK    5  A    between atoms: C_7  and  O_8
REMARK    6  A    between atoms: C_10  and  C_11
REMARK    7  A    between atoms: C_14  and  C_15
REMARK    8  A    between atoms: C_15  and  C_16
REMARK    9  A    between atoms: C_16  and  C_17
REMARK   10  A    between atoms: C_17  and  C_18
REMARK   11  A    between atoms: C_18  and  C_19
REMARK   12  A    between atoms: C_19  and  C_20
REMARK   13  A    between atoms: C_20  and  C_21
REMARK   14  A    between atoms: C_21  and  C_22
REMARK                            x       y       z     vdW  Elec       q    Type
REMARK                         _______ _______ _______ _____ _____    ______ ____
ROOT
ATOM      1  O   UNL     1      35.098 -14.996 -20.428  0.00  0.00    -0.275 OA
ATOM      2  N   UNL     1      33.824 -16.709 -21.347  0.00  0.00    -0.297 N 
ATOM      3  C   UNL     1      34.010 -15.519 -20.658  0.00  0.00    +0.223 C 
ATOM      4  H   UNL     1      32.904 -17.036 -21.474  0.00  0.00    +0.150 HD
ENDROOT
BRANCH   2   5
ATOM      5  C   UNL     1      34.913 -17.492 -21.885  0.00  0.00    +0.171 C 
BRANCH   5   7
ATOM      6  O   UNL     1      35.515 -15.835 -23.565  0.00  0.00    -0.248 OA
ATOM      7  C   UNL     1      35.160 -16.974 -23.288  0.00  0.00    +0.335 C 
BRANCH   7   8
ATOM      8  O   UNL     1      34.876 -17.961 -24.188  0.00  0.00    -0.443 OA
ATOM      9  C   UNL     1      34.343 -17.519 -25.441  0.00  0.00    +0.256 C 
ENDBRANCH   7   8
ENDBRANCH   5   7
BRANCH   5  10
ATOM     10  C   UNL     1      34.597 -18.989 -21.926  0.00  0.00    +0.031 C 
BRANCH  10  11
ATOM     11  C   UNL     1      34.316 -19.628 -20.552  0.00  0.00    +0.002 C 
ATOM     12  C   UNL     1      35.313 -20.734 -20.208  0.00  0.00    +0.000 C 
ATOM     13  C   UNL     1      32.892 -20.192 -20.526  0.00  0.00    +0.000 C 
ENDBRANCH  10  11
ENDBRANCH   5  10
ENDBRANCH   2   5
BRANCH   3  14
ATOM     14  C   UNL     1      32.691 -14.936 -20.178  0.00  0.00    +0.085 C 
BRANCH  14  15
ATOM     15  C   UNL     1      32.332 -13.602 -20.833  0.00  0.00    +0.010 C 
BRANCH  15  16
ATOM     16  C   UNL     1      32.277 -13.629 -22.364  0.00  0.00    +0.001 C 
BRANCH  16  17
ATOM     17  C   UNL     1      32.908 -12.398 -23.020  0.00  0.00    +0.000 C 
BRANCH  17  18
ATOM     18  C   UNL     1      33.526 -12.748 -24.376  0.00  0.00    +0.000 C 
BRANCH  18  19
ATOM     19  C   UNL     1      34.039 -11.498 -25.094  0.00  0.00    +0.000 C 
BRANCH  19  20
ATOM     20  C   UNL     1      33.857 -10.248 -24.227  0.00  0.00    +0.005 C 
BRANCH  20  21
ATOM     21  C   UNL     1      35.027  -9.265 -24.340  0.00  0.00    +0.026 C 
BRANCH  21  22
ATOM     22  C   UNL     1      34.643  -7.855 -23.997  0.00  0.00    -0.026 C 
ATOM     23  C   UNL     1      34.077  -7.494 -22.840  0.00  0.00    -0.005 C 
ENDBRANCH  21  22
ENDBRANCH  20  21
ENDBRANCH  19  20
ENDBRANCH  18  19
ENDBRANCH  17  18
ENDBRANCH  16  17
ENDBRANCH  15  16
ENDBRANCH  14  15
ENDBRANCH   3  14
TORSDOF 14
ENDMDL
MODEL 5
REMARK VINA RESULT:      -7.6      2.301      8.433
REMARK  Name = 56843908
REMARK  14 active torsions:
REMARK  status: ('A' for Active; 'I' for Inactive)
REMARK    1  A    between atoms: N_2  and  C_5
REMARK    2  A    between atoms: C_3  and  C_14
REMARK    3  A    between atoms: C_5  and  C_7
REMARK    4  A    between atoms: C_5  and  C_10
REMARK    5  A    between atoms: C_7  and  O_8
REMARK    6  A    between atoms: C_10  and  C_11
REMARK    7  A    between atoms: C_14  and  C_15
REMARK    8  A    between atoms: C_15  and  C_16
REMARK    9  A    between atoms: C_16  and  C_17
REMARK   10  A    between atoms: C_17  and  C_18
REMARK   11  A    between atoms: C_18  and  C_19
REMARK   12  A    between atoms: C_19  and  C_20
REMARK   13  A    between atoms: C_20  and  C_21
REMARK   14  A    between atoms: C_21  and  C_22
REMARK                            x       y       z     vdW  Elec       q    Type
REMARK                         _______ _______ _______ _____ _____    ______ ____
ROOT
ATOM      1  O   UNL     1      35.245 -16.192 -20.258  0.00  0.00    -0.275 OA
ATOM      2  N   UNL     1      33.908 -16.791 -22.061  0.00  0.00    -0.297 N 
ATOM      3  C   UNL     1      34.207 -16.085 -20.904  0.00  0.00    +0.223 C 
ATOM      4  H   UNL     1      33.042 -16.626 -22.499  0.00  0.00    +0.150 HD
ENDROOT
BRANCH   2   5
ATOM      5  C   UNL     1      34.805 -17.758 -22.653  0.00  0.00    +0.171 C 
BRANCH   5   7
ATOM      6  O   UNL     1      34.825 -18.400 -25.001  0.00  0.00    -0.248 OA
ATOM      7  C   UNL     1      34.759 -17.523 -24.150  0.00  0.00    +0.335 C 
BRANCH   7   8
ATOM      8  O   UNL     1      34.685 -16.180 -24.392  0.00  0.00    -0.443 OA
ATOM      9  C   UNL     1      33.815 -15.794 -25.461  0.00  0.00    +0.256 C 
ENDBRANCH   7   8
ENDBRANCH   5   7
BRANCH   5  10
ATOM     10  C   UNL     1      34.406 -19.201 -22.336  0.00  0.00    +0.031 C 
BRANCH  10  11
ATOM     11  C   UNL     1      34.251 -19.514 -20.835  0.00  0.00    +0.002 C 
ATOM     12  C   UNL     1      35.283 -20.528 -20.340  0.00  0.00    +0.000 C 
ATOM     13  C   UNL     1      32.839 -20.040 -20.558  0.00  0.00    +0.000 C 
ENDBRANCH  10  11
ENDBRANCH   5  10
ENDBRANCH   2   5
BRANCH   3  14
ATOM     14  C   UNL     1      33.065 -15.169 -20.495  0.00  0.00    +0.085 C 
BRANCH  14  15
ATOM     15  C   UNL     1      32.333 -14.531 -21.676  0.00  0.00    +0.010 C 
BRANCH  15  16
ATOM     16  C   UNL     1      32.266 -13.000 -21.643  0.00  0.00    +0.001 C 
BRANCH  16  17
ATOM     17  C   UNL     1      31.858 -12.435 -20.280  0.00  0.00    +0.000 C 
BRANCH  17  18
ATOM     18  C   UNL     1      31.080 -11.125 -20.434  0.00  0.00    +0.000 C 
BRANCH  18  19
ATOM     19  C   UNL     1      31.777  -9.975 -19.703  0.00  0.00    +0.000 C 
BRANCH  19  20
ATOM     20  C   UNL     1      32.123  -8.836 -20.665  0.00  0.00    +0.005 C 
BRANCH  20  21
ATOM     21  C   UNL     1      31.831  -9.178 -22.130  0.00  0.00    +0.026 C 
BRANCH  21  22
ATOM     22  C   UNL     1      33.068  -9.241 -22.976  0.00  0.00    -0.026 C 
ATOM     23  C   UNL     1      33.341 -10.233 -23.830  0.00  0.00    -0.005 C 
ENDBRANCH  21  22
ENDBRANCH  20  21
ENDBRANCH  19  20
ENDBRANCH  18  19
ENDBRANCH  17  18
ENDBRANCH  16  17
ENDBRANCH  15  16
ENDBRANCH  14  15
ENDBRANCH   3  14
TORSDOF 14
ENDMDL
MODEL 6
REMARK VINA RESULT:      -7.5      5.762     10.720
REMARK  Name = 56843908
REMARK  14 active torsions:
REMARK  status: ('A' for Active; 'I' for Inactive)
REMARK    1  A    between atoms: N_2  and  C_5
REMARK    2  A    between atoms: C_3  and  C_14
REMARK    3  A    between atoms: C_5  and  C_7
REMARK    4  A    between atoms: C_5  and  C_10
REMARK    5  A    between atoms: C_7  and  O_8
REMARK    6  A    between atoms: C_10  and  C_11
REMARK    7  A    between atoms: C_14  and  C_15
REMARK    8  A    between atoms: C_15  and  C_16
REMARK    9  A    between atoms: C_16  and  C_17
REMARK   10  A    between atoms: C_17  and  C_18
REMARK   11  A    between atoms: C_18  and  C_19
REMARK   12  A    between atoms: C_19  and  C_20
REMARK   13  A    between atoms: C_20  and  C_21
REMARK   14  A    between atoms: C_21  and  C_22
REMARK                            x       y       z     vdW  Elec       q    Type
REMARK                         _______ _______ _______ _____ _____    ______ ____
ROOT
ATOM      1  O   UNL     1      33.885 -23.844 -19.343  0.00  0.00    -0.275 OA
ATOM      2  N   UNL     1      33.078 -22.420 -17.693  0.00  0.00    -0.297 N 
ATOM      3  C   UNL     1      33.696 -22.714 -18.900  0.00  0.00    +0.223 C 
ATOM      4  H   UNL     1      32.979 -21.475 -17.437  0.00  0.00    +0.150 HD
ENDROOT
BRANCH   2   5
ATOM      5  C   UNL     1      32.575 -23.434 -16.793  0.00  0.00    +0.171 C 
BRANCH   5   7
ATOM      6  O   UNL     1      30.447 -22.309 -17.163  0.00  0.00    -0.248 OA
ATOM      7  C   UNL     1      31.139 -23.057 -16.484  0.00  0.00    +0.335 C 
BRANCH   7   8
ATOM      8  O   UNL     1      30.764 -23.643 -15.308  0.00  0.00    -0.443 OA
ATOM      9  C   UNL     1      29.463 -24.240 -15.305  0.00  0.00    +0.256 C 
ENDBRANCH   7   8
ENDBRANCH   5   7
BRANCH   5  10
ATOM     10  C   UNL     1      33.384 -23.524 -15.497  0.00  0.00    +0.031 C 
BRANCH  10  11
ATOM     11  C   UNL     1      34.883 -23.829 -15.691  0.00  0.00    +0.002 C 
ATOM     12  C   UNL     1      35.333 -25.065 -14.911  0.00  0.00    +0.000 C 
ATOM     13  C   UNL     1      35.717 -22.618 -15.264  0.00  0.00    +0.000 C 
ENDBRANCH  10  11
ENDBRANCH   5  10
ENDBRANCH   2   5
BRANCH   3  14
ATOM     14  C   UNL     1      34.155 -21.455 -19.617  0.00  0.00    +0.085 C 
BRANCH  14  15
ATOM     15  C   UNL     1      33.010 -20.542 -20.054  0.00  0.00    +0.010 C 
BRANCH  15  16
ATOM     16  C   UNL     1      33.401 -19.453 -21.060  0.00  0.00    +0.001 C 
BRANCH  16  17
ATOM     17  C   UNL     1      34.799 -19.642 -21.653  0.00  0.00    +0.000 C 
BRANCH  17  18
ATOM     18  C   UNL     1      35.645 -18.377 -21.491  0.00  0.00    +0.000 C 
BRANCH  18  19
ATOM     19  C   UNL     1      35.696 -17.570 -22.791  0.00  0.00    +0.000 C 
BRANCH  19  20
ATOM     20  C   UNL     1      34.965 -16.233 -22.643  0.00  0.00    +0.005 C 
BRANCH  20  21
ATOM     21  C   UNL     1      34.611 -15.901 -21.189  0.00  0.00    +0.026 C 
BRANCH  21  22
ATOM     22  C   UNL     1      33.144 -15.664 -20.982  0.00  0.00    -0.026 C 
ATOM     23  C   UNL     1      32.640 -14.592 -20.362  0.00  0.00    -0.005 C 
ENDBRANCH  21  22
ENDBRANCH  20  21
ENDBRANCH  19  20
ENDBRANCH  18  19
ENDBRANCH  17  18
ENDBRANCH  16  17
ENDBRANCH  15  16
ENDBRANCH  14  15
ENDBRANCH   3  14
TORSDOF 14
ENDMDL
MODEL 7
REMARK VINA RESULT:      -7.5      6.349     11.244
REMARK  Name = 56843908
REMARK  14 active torsions:
REMARK  status: ('A' for Active; 'I' for Inactive)
REMARK    1  A    between atoms: N_2  and  C_5
REMARK    2  A    between atoms: C_3  and  C_14
REMARK    3  A    between atoms: C_5  and  C_7
REMARK    4  A    between atoms: C_5  and  C_10
REMARK    5  A    between atoms: C_7  and  O_8
REMARK    6  A    between atoms: C_10  and  C_11
REMARK    7  A    between atoms: C_14  and  C_15
REMARK    8  A    between atoms: C_15  and  C_16
REMARK    9  A    between atoms: C_16  and  C_17
REMARK   10  A    between atoms: C_17  and  C_18
REMARK   11  A    between atoms: C_18  and  C_19
REMARK   12  A    between atoms: C_19  and  C_20
REMARK   13  A    between atoms: C_20  and  C_21
REMARK   14  A    between atoms: C_21  and  C_22
REMARK                            x       y       z     vdW  Elec       q    Type
REMARK                         _______ _______ _______ _____ _____    ______ ____
ROOT
ATOM      1  O   UNL     1      33.894 -23.735 -17.314  0.00  0.00    -0.275 OA
ATOM      2  N   UNL     1      31.772 -22.789 -17.267  0.00  0.00    -0.297 N 
ATOM      3  C   UNL     1      33.053 -22.966 -17.771  0.00  0.00    +0.223 C 
ATOM      4  H   UNL     1      31.179 -22.143 -17.714  0.00  0.00    +0.150 HD
ENDROOT
BRANCH   2   5
ATOM      5  C   UNL     1      31.268 -23.505 -16.117  0.00  0.00    +0.171 C 
BRANCH   5   7
ATOM      6  O   UNL     1      29.078 -24.563 -15.989  0.00  0.00    -0.248 OA
ATOM      7  C   UNL     1      29.765 -23.596 -16.296  0.00  0.00    +0.335 C 
BRANCH   7   8
ATOM      8  O   UNL     1      29.313 -22.454 -16.895  0.00  0.00    -0.443 OA
ATOM      9  C   UNL     1      27.891 -22.342 -17.015  0.00  0.00    +0.256 C 
ENDBRANCH   7   8
ENDBRANCH   5   7
BRANCH   5  10
ATOM     10  C   UNL     1      31.597 -22.804 -14.797  0.00  0.00    +0.031 C 
BRANCH  10  11
ATOM     11  C   UNL     1      32.322 -23.686 -13.760  0.00  0.00    +0.002 C 
ATOM     12  C   UNL     1      33.826 -23.775 -14.020  0.00  0.00    +0.000 C 
ATOM     13  C   UNL     1      31.714 -25.092 -13.763  0.00  0.00    +0.000 C 
ENDBRANCH  10  11
ENDBRANCH   5  10
ENDBRANCH   2   5
BRANCH   3  14
ATOM     14  C   UNL     1      33.319 -22.056 -18.958  0.00  0.00    +0.085 C 
BRANCH  14  15
ATOM     15  C   UNL     1      34.792 -21.688 -19.135  0.00  0.00    +0.010 C 
BRANCH  15  16
ATOM     16  C   UNL     1      35.079 -20.697 -20.269  0.00  0.00    +0.001 C 
BRANCH  16  17
ATOM     17  C   UNL     1      33.863 -19.857 -20.669  0.00  0.00    +0.000 C 
BRANCH  17  18
ATOM     18  C   UNL     1      34.252 -18.755 -21.658  0.00  0.00    +0.000 C 
BRANCH  18  19
ATOM     19  C   UNL     1      34.780 -19.344 -22.968  0.00  0.00    +0.000 C 
BRANCH  19  20
ATOM     20  C   UNL     1      35.389 -18.257 -23.859  0.00  0.00    +0.005 C 
BRANCH  20  21
ATOM     21  C   UNL     1      34.446 -17.800 -24.977  0.00  0.00    +0.026 C 
BRANCH  21  22
ATOM     22  C   UNL     1      34.206 -16.319 -24.973  0.00  0.00    -0.026 C 
ATOM     23  C   UNL     1      34.332 -15.543 -23.891  0.00  0.00    -0.005 C 
ENDBRANCH  21  22
ENDBRANCH  20  21
ENDBRANCH  19  20
ENDBRANCH  18  19
ENDBRANCH  17  18
ENDBRANCH  16  17
ENDBRANCH  15  16
ENDBRANCH  14  15
ENDBRANCH   3  14
TORSDOF 14
ENDMDL
MODEL 8
REMARK VINA RESULT:      -7.5      2.899      8.830
REMARK  Name = 56843908
REMARK  14 active torsions:
REMARK  status: ('A' for Active; 'I' for Inactive)
REMARK    1  A    between atoms: N_2  and  C_5
REMARK    2  A    between atoms: C_3  and  C_14
REMARK    3  A    between atoms: C_5  and  C_7
REMARK    4  A    between atoms: C_5  and  C_10
REMARK    5  A    between atoms: C_7  and  O_8
REMARK    6  A    between atoms: C_10  and  C_11
REMARK    7  A    between atoms: C_14  and  C_15
REMARK    8  A    between atoms: C_15  and  C_16
REMARK    9  A    between atoms: C_16  and  C_17
REMARK   10  A    between atoms: C_17  and  C_18
REMARK   11  A    between atoms: C_18  and  C_19
REMARK   12  A    between atoms: C_19  and  C_20
REMARK   13  A    between atoms: C_20  and  C_21
REMARK   14  A    between atoms: C_21  and  C_22
REMARK                            x       y       z     vdW  Elec       q    Type
REMARK                         _______ _______ _______ _____ _____    ______ ____
ROOT
ATOM      1  O   UNL     1      35.258 -16.287 -20.296  0.00  0.00    -0.275 OA
ATOM      2  N   UNL     1      33.928 -16.935 -22.088  0.00  0.00    -0.297 N 
ATOM      3  C   UNL     1      34.223 -16.196 -20.951  0.00  0.00    +0.223 C 
ATOM      4  H   UNL     1      33.065 -16.780 -22.535  0.00  0.00    +0.150 HD
ENDROOT
BRANCH   2   5
ATOM      5  C   UNL     1      34.825 -17.922 -22.646  0.00  0.00    +0.171 C 
BRANCH   5   7
ATOM      6  O   UNL     1      34.715 -18.650 -24.967  0.00  0.00    -0.248 OA
ATOM      7  C   UNL     1      34.779 -17.740 -24.150  0.00  0.00    +0.335 C 
BRANCH   7   8
ATOM      8  O   UNL     1      34.872 -16.409 -24.445  0.00  0.00    -0.443 OA
ATOM      9  C   UNL     1      33.928 -15.923 -25.405  0.00  0.00    +0.256 C 
ENDBRANCH   7   8
ENDBRANCH   5   7
BRANCH   5  10
ATOM     10  C   UNL     1      34.426 -19.354 -22.279  0.00  0.00    +0.031 C 
BRANCH  10  11
ATOM     11  C   UNL     1      34.294 -19.620 -20.766  0.00  0.00    +0.002 C 
ATOM     12  C   UNL     1      35.295 -20.662 -20.267  0.00  0.00    +0.000 C 
ATOM     13  C   UNL     1      32.869 -20.079 -20.444  0.00  0.00    +0.000 C 
ENDBRANCH  10  11
ENDBRANCH   5  10
ENDBRANCH   2   5
BRANCH   3  14
ATOM     14  C   UNL     1      33.082 -15.265 -20.576  0.00  0.00    +0.085 C 
BRANCH  14  15
ATOM     15  C   UNL     1      32.458 -14.543 -21.770  0.00  0.00    +0.010 C 
BRANCH  15  16
ATOM     16  C   UNL     1      32.338 -13.023 -21.616  0.00  0.00    +0.001 C 
BRANCH  16  17
ATOM     17  C   UNL     1      31.872 -12.584 -20.226  0.00  0.00    +0.000 C 
BRANCH  17  18
ATOM     18  C   UNL     1      31.377 -11.135 -20.238  0.00  0.00    +0.000 C 
BRANCH  18  19
ATOM     19  C   UNL     1      31.286 -10.591 -21.666  0.00  0.00    +0.000 C 
BRANCH  19  20
ATOM     20  C   UNL     1      31.841  -9.166 -21.751  0.00  0.00    +0.005 C 
BRANCH  20  21
ATOM     21  C   UNL     1      32.425  -8.669 -20.424  0.00  0.00    +0.026 C 
BRANCH  21  22
ATOM     22  C   UNL     1      32.343  -7.178 -20.270  0.00  0.00    -0.026 C 
ATOM     23  C   UNL     1      31.969  -6.344 -21.245  0.00  0.00    -0.005 C 
ENDBRANCH  21  22
ENDBRANCH  20  21
ENDBRANCH  19  20
ENDBRANCH  18  19
ENDBRANCH  17  18
ENDBRANCH  16  17
ENDBRANCH  15  16
ENDBRANCH  14  15
ENDBRANCH   3  14
TORSDOF 14
ENDMDL
MODEL 9
REMARK VINA RESULT:      -7.3      3.484      5.989
REMARK  Name = 56843908
REMARK  14 active torsions:
REMARK  status: ('A' for Active; 'I' for Inactive)
REMARK    1  A    between atoms: N_2  and  C_5
REMARK    2  A    between atoms: C_3  and  C_14
REMARK    3  A    between atoms: C_5  and  C_7
REMARK    4  A    between atoms: C_5  and  C_10
REMARK    5  A    between atoms: C_7  and  O_8
REMARK    6  A    between atoms: C_10  and  C_11
REMARK    7  A    between atoms: C_14  and  C_15
REMARK    8  A    between atoms: C_15  and  C_16
REMARK    9  A    between atoms: C_16  and  C_17
REMARK   10  A    between atoms: C_17  and  C_18
REMARK   11  A    between atoms: C_18  and  C_19
REMARK   12  A    between atoms: C_19  and  C_20
REMARK   13  A    between atoms: C_20  and  C_21
REMARK   14  A    between atoms: C_21  and  C_22
REMARK                            x       y       z     vdW  Elec       q    Type
REMARK                         _______ _______ _______ _____ _____    ______ ____
ROOT
ATOM      1  O   UNL     1      35.564 -19.122 -20.469  0.00  0.00    -0.275 OA
ATOM      2  N   UNL     1      34.148 -17.825 -21.778  0.00  0.00    -0.297 N 
ATOM      3  C   UNL     1      34.499 -18.958 -21.058  0.00  0.00    +0.223 C 
ATOM      4  H   UNL     1      33.265 -17.801 -22.211  0.00  0.00    +0.150 HD
ENDROOT
BRANCH   2   5
ATOM      5  C   UNL     1      35.018 -16.679 -21.923  0.00  0.00    +0.171 C 
BRANCH   5   7
ATOM      6  O   UNL     1      34.944 -14.820 -20.352  0.00  0.00    -0.248 OA
ATOM      7  C   UNL     1      34.368 -15.548 -21.150  0.00  0.00    +0.335 C 
BRANCH   7   8
ATOM      8  O   UNL     1      33.035 -15.508 -21.448  0.00  0.00    -0.443 OA
ATOM      9  C   UNL     1      32.496 -14.204 -21.689  0.00  0.00    +0.256 C 
ENDBRANCH   7   8
ENDBRANCH   5   7
BRANCH   5  10
ATOM     10  C   UNL     1      35.212 -16.270 -23.385  0.00  0.00    +0.031 C 
BRANCH  10  11
ATOM     11  C   UNL     1      34.156 -16.831 -24.358  0.00  0.00    +0.002 C 
ATOM     12  C   UNL     1      34.669 -18.035 -25.148  0.00  0.00    +0.000 C 
ATOM     13  C   UNL     1      33.711 -15.732 -25.328  0.00  0.00    +0.000 C 
ENDBRANCH  10  11
ENDBRANCH   5  10
ENDBRANCH   2   5
BRANCH   3  14
ATOM     14  C   UNL     1      33.408 -20.014 -21.108  0.00  0.00    +0.085 C 
BRANCH  14  15
ATOM     15  C   UNL     1      33.062 -20.610 -19.744  0.00  0.00    +0.010 C 
BRANCH  15  16
ATOM     16  C   UNL     1      33.553 -22.046 -19.523  0.00  0.00    +0.001 C 
BRANCH  16  17
ATOM     17  C   UNL     1      34.853 -22.130 -18.719  0.00  0.00    +0.000 C 
BRANCH  17  18
ATOM     18  C   UNL     1      34.627 -22.819 -17.371  0.00  0.00    +0.000 C 
BRANCH  18  19
ATOM     19  C   UNL     1      33.168 -23.253 -17.205  0.00  0.00    +0.000 C 
BRANCH  19  20
ATOM     20  C   UNL     1      32.827 -23.497 -15.732  0.00  0.00    +0.005 C 
BRANCH  20  21
ATOM     21  C   UNL     1      31.476 -22.903 -15.322  0.00  0.00    +0.026 C 
BRANCH  21  22
ATOM     22  C   UNL     1      30.496 -22.836 -16.457  0.00  0.00    -0.026 C 
ATOM     23  C   UNL     1      29.172 -22.743 -16.299  0.00  0.00    -0.005 C 
ENDBRANCH  21  22
ENDBRANCH  20  21
ENDBRANCH  19  20
ENDBRANCH  18  19
ENDBRANCH  17  18
ENDBRANCH  16  17
ENDBRANCH  15  16
ENDBRANCH  14  15
ENDBRANCH   3  14
TORSDOF 14
ENDMDL
