MODEL 1
REMARK VINA RESULT:     -10.1      0.000      0.000
REMARK  Name = 5287855
REMARK  1 active torsions:
REMARK  status: ('A' for Active; 'I' for Inactive)
REMARK    1  A    between atoms: C_7  and  C_16
REMARK                            x       y       z     vdW  Elec       q    Type
REMARK                         _______ _______ _______ _____ _____    ______ ____
ROOT
ATOM      1  F   UNL     1      34.194 -12.985 -23.829  0.00  0.00    -0.125 F 
ATOM      2  F   UNL     1      32.200 -13.775 -23.388  0.00  0.00    -0.125 F 
ATOM      3  O   UNL     1      33.981 -14.602 -22.253  0.00  0.00    -0.395 OA
ATOM      4  O   UNL     1      33.636 -15.043 -24.602  0.00  0.00    -0.395 OA
ATOM      5  C   UNL     1      34.394 -15.849 -22.612  0.00  0.00    +0.182 C 
ATOM      6  C   UNL     1      34.198 -16.100 -23.952  0.00  0.00    +0.182 C 
ATOM      7  C   UNL     1      35.316 -18.019 -22.325  0.00  0.00    +0.004 C 
ATOM      8  C   UNL     1      34.952 -16.789 -21.771  0.00  0.00    +0.040 C 
ATOM      9  C   UNL     1      34.548 -17.307 -24.523  0.00  0.00    +0.040 C 
ATOM     10  C   UNL     1      35.115 -18.276 -23.693  0.00  0.00    +0.003 C 
ATOM     11  C   UNL     1      33.508 -14.113 -23.516  0.00  0.00    +0.589 C 
ENDROOT
BRANCH   7  16
ATOM     12  S   UNL     1      33.531 -20.109 -20.643  0.00  0.00    -0.025 S 
ATOM     13  O   UNL     1      37.125 -21.093 -19.785  0.00  0.00    -0.269 OA
ATOM     14  O   UNL     1      32.644 -22.038 -19.077  0.00  0.00    -0.262 OA
ATOM     15  N   UNL     1      34.948 -21.746 -19.284  0.00  0.00    -0.243 N 
ATOM     16  C   UNL     1      35.909 -19.043 -21.478  0.00  0.00    +0.011 C 
ATOM     17  C   UNL     1      35.243 -19.956 -20.743  0.00  0.00    +0.087 C 
ATOM     18  C   UNL     1      35.914 -20.973 -19.900  0.00  0.00    +0.258 C 
ATOM     19  C   UNL     1      33.624 -21.468 -19.531  0.00  0.00    +0.283 C 
ATOM     20  H   UNL     1      35.203 -22.482 -18.681  0.00  0.00    +0.159 HD
ENDBRANCH   7  16
TORSDOF 1
ENDMDL
MODEL 2
REMARK VINA RESULT:     -10.1      1.496      2.181
REMARK  Name = 5287855
REMARK  1 active torsions:
REMARK  status: ('A' for Active; 'I' for Inactive)
REMARK    1  A    between atoms: C_7  and  C_16
REMARK                            x       y       z     vdW  Elec       q    Type
REMARK                         _______ _______ _______ _____ _____    ______ ____
ROOT
ATOM      1  F   UNL     1      32.180 -15.372 -26.599  0.00  0.00    -0.125 F 
ATOM      2  F   UNL     1      34.098 -14.361 -26.908  0.00  0.00    -0.125 F 
ATOM      3  O   UNL     1      34.082 -16.402 -25.918  0.00  0.00    -0.395 OA
ATOM      4  O   UNL     1      33.222 -14.432 -24.817  0.00  0.00    -0.395 OA
ATOM      5  C   UNL     1      34.308 -16.418 -24.575  0.00  0.00    +0.182 C 
ATOM      6  C   UNL     1      33.818 -15.294 -23.947  0.00  0.00    +0.182 C 
ATOM      7  C   UNL     1      35.088 -17.258 -22.495  0.00  0.00    +0.004 C 
ATOM      8  C   UNL     1      34.949 -17.420 -23.876  0.00  0.00    +0.040 C 
ATOM      9  C   UNL     1      33.942 -15.112 -22.585  0.00  0.00    +0.040 C 
ATOM     10  C   UNL     1      34.587 -16.111 -21.853  0.00  0.00    +0.003 C 
ATOM     11  C   UNL     1      33.400 -15.146 -26.050  0.00  0.00    +0.589 C 
ENDROOT
BRANCH   7  16
ATOM     12  S   UNL     1      33.468 -19.616 -21.012  0.00  0.00    -0.025 S 
ATOM     13  O   UNL     1      37.121 -20.344 -20.146  0.00  0.00    -0.269 OA
ATOM     14  O   UNL     1      32.730 -21.727 -19.612  0.00  0.00    -0.262 OA
ATOM     15  N   UNL     1      35.003 -21.221 -19.744  0.00  0.00    -0.243 N 
ATOM     16  C   UNL     1      35.756 -18.287 -21.712  0.00  0.00    +0.011 C 
ATOM     17  C   UNL     1      35.161 -19.307 -21.061  0.00  0.00    +0.087 C 
ATOM     18  C   UNL     1      35.906 -20.322 -20.280  0.00  0.00    +0.258 C 
ATOM     19  C   UNL     1      33.664 -21.041 -20.000  0.00  0.00    +0.283 C 
ATOM     20  H   UNL     1      35.312 -21.974 -19.190  0.00  0.00    +0.159 HD
ENDBRANCH   7  16
TORSDOF 1
ENDMDL
MODEL 3
REMARK VINA RESULT:      -9.7      4.321      7.187
REMARK  Name = 5287855
REMARK  1 active torsions:
REMARK  status: ('A' for Active; 'I' for Inactive)
REMARK    1  A    between atoms: C_7  and  C_16
REMARK                            x       y       z     vdW  Elec       q    Type
REMARK                         _______ _______ _______ _____ _____    ______ ____
ROOT
ATOM      1  F   UNL     1      33.447 -24.138 -18.357  0.00  0.00    -0.125 F 
ATOM      2  F   UNL     1      33.054 -22.479 -16.983  0.00  0.00    -0.125 F 
ATOM      3  O   UNL     1      32.951 -22.099 -19.216  0.00  0.00    -0.395 OA
ATOM      4  O   UNL     1      35.036 -22.544 -18.082  0.00  0.00    -0.395 OA
ATOM      5  C   UNL     1      33.991 -21.405 -19.754  0.00  0.00    +0.182 C 
ATOM      6  C   UNL     1      35.181 -21.659 -19.107  0.00  0.00    +0.182 C 
ATOM      7  C   UNL     1      35.098 -19.914 -21.236  0.00  0.00    +0.004 C 
ATOM      8  C   UNL     1      33.917 -20.537 -20.824  0.00  0.00    +0.040 C 
ATOM      9  C   UNL     1      36.360 -21.056 -19.496  0.00  0.00    +0.040 C 
ATOM     10  C   UNL     1      36.312 -20.172 -20.576  0.00  0.00    +0.003 C 
ATOM     11  C   UNL     1      33.628 -22.806 -18.167  0.00  0.00    +0.589 C 
ENDROOT
BRANCH   7  16
ATOM     12  S   UNL     1      34.649 -16.746 -20.850  0.00  0.00    -0.025 S 
ATOM     13  O   UNL     1      35.021 -17.153 -24.634  0.00  0.00    -0.269 OA
ATOM     14  O   UNL     1      34.332 -14.147 -21.175  0.00  0.00    -0.262 OA
ATOM     15  N   UNL     1      34.668 -15.470 -23.066  0.00  0.00    -0.243 N 
ATOM     16  C   UNL     1      35.071 -18.990 -22.360  0.00  0.00    +0.011 C 
ATOM     17  C   UNL     1      34.890 -17.656 -22.292  0.00  0.00    +0.087 C 
ATOM     18  C   UNL     1      34.874 -16.772 -23.482  0.00  0.00    +0.258 C 
ATOM     19  C   UNL     1      34.522 -15.224 -21.721  0.00  0.00    +0.283 C 
ATOM     20  H   UNL     1      34.628 -14.735 -23.719  0.00  0.00    +0.159 HD
ENDBRANCH   7  16
TORSDOF 1
ENDMDL
MODEL 4
REMARK VINA RESULT:      -9.3      9.279     10.378
REMARK  Name = 5287855
REMARK  1 active torsions:
REMARK  status: ('A' for Active; 'I' for Inactive)
REMARK    1  A    between atoms: C_7  and  C_16
REMARK                            x       y       z     vdW  Elec       q    Type
REMARK                         _______ _______ _______ _____ _____    ______ ____
ROOT
ATOM      1  F   UNL     1      28.548 -24.750 -16.790  0.00  0.00    -0.125 F 
ATOM      2  F   UNL     1      28.184 -23.015 -15.504  0.00  0.00    -0.125 F 
ATOM      3  O   UNL     1      30.188 -23.202 -16.551  0.00  0.00    -0.395 OA
ATOM      4  O   UNL     1      29.536 -24.672 -14.750  0.00  0.00    -0.395 OA
ATOM      5  C   UNL     1      31.242 -23.560 -15.767  0.00  0.00    +0.182 C 
ATOM      6  C   UNL     1      30.870 -24.399 -14.740  0.00  0.00    +0.182 C 
ATOM      7  C   UNL     1      33.499 -23.633 -15.030  0.00  0.00    +0.004 C 
ATOM      8  C   UNL     1      32.550 -23.158 -15.940  0.00  0.00    +0.040 C 
ATOM      9  C   UNL     1      31.787 -24.881 -13.829  0.00  0.00    +0.040 C 
ATOM     10  C   UNL     1      33.119 -24.489 -13.980  0.00  0.00    +0.003 C 
ATOM     11  C   UNL     1      29.126 -23.909 -15.895  0.00  0.00    +0.589 C 
ENDROOT
BRANCH   7  16
ATOM     12  S   UNL     1      35.914 -25.760 -14.874  0.00  0.00    -0.025 S 
ATOM     13  O   UNL     1      37.685 -22.420 -15.453  0.00  0.00    -0.269 OA
ATOM     14  O   UNL     1      38.254 -26.978 -14.840  0.00  0.00    -0.262 OA
ATOM     15  N   UNL     1      38.209 -24.670 -15.167  0.00  0.00    -0.243 N 
ATOM     16  C   UNL     1      34.893 -23.238 -15.169  0.00  0.00    +0.011 C 
ATOM     17  C   UNL     1      35.963 -24.056 -15.118  0.00  0.00    +0.087 C 
ATOM     18  C   UNL     1      37.359 -23.584 -15.268  0.00  0.00    +0.258 C 
ATOM     19  C   UNL     1      37.664 -25.915 -14.957  0.00  0.00    +0.283 C 
ATOM     20  H   UNL     1      39.183 -24.554 -15.243  0.00  0.00    +0.159 HD
ENDBRANCH   7  16
TORSDOF 1
ENDMDL
MODEL 5
REMARK VINA RESULT:      -9.2      9.088     10.290
REMARK  Name = 5287855
REMARK  1 active torsions:
REMARK  status: ('A' for Active; 'I' for Inactive)
REMARK    1  A    between atoms: C_7  and  C_16
REMARK                            x       y       z     vdW  Elec       q    Type
REMARK                         _______ _______ _______ _____ _____    ______ ____
ROOT
ATOM      1  F   UNL     1      27.300 -21.675 -17.551  0.00  0.00    -0.125 F 
ATOM      2  F   UNL     1      26.147 -22.156 -15.753  0.00  0.00    -0.125 F 
ATOM      3  O   UNL     1      28.367 -21.738 -15.551  0.00  0.00    -0.395 OA
ATOM      4  O   UNL     1      27.526 -23.732 -16.624  0.00  0.00    -0.395 OA
ATOM      5  C   UNL     1      29.162 -22.821 -15.329  0.00  0.00    +0.182 C 
ATOM      6  C   UNL     1      28.682 -23.958 -15.942  0.00  0.00    +0.182 C 
ATOM      7  C   UNL     1      31.009 -24.045 -14.471  0.00  0.00    +0.004 C 
ATOM      8  C   UNL     1      30.325 -22.832 -14.587  0.00  0.00    +0.040 C 
ATOM      9  C   UNL     1      29.340 -25.168 -15.843  0.00  0.00    +0.040 C 
ATOM     10  C   UNL     1      30.519 -25.206 -15.096  0.00  0.00    +0.003 C 
ATOM     11  C   UNL     1      27.345 -22.332 -16.364  0.00  0.00    +0.589 C 
ENDROOT
BRANCH   7  16
ATOM     12  S   UNL     1      33.898 -23.503 -15.792  0.00  0.00    -0.025 S 
ATOM     13  O   UNL     1      34.701 -24.238 -12.126  0.00  0.00    -0.269 OA
ATOM     14  O   UNL     1      36.471 -23.176 -16.274  0.00  0.00    -0.262 OA
ATOM     15  N   UNL     1      35.808 -23.708 -14.103  0.00  0.00    -0.243 N 
ATOM     16  C   UNL     1      32.241 -24.107 -13.699  0.00  0.00    +0.011 C 
ATOM     17  C   UNL     1      33.488 -23.896 -14.166  0.00  0.00    +0.087 C 
ATOM     18  C   UNL     1      34.701 -23.977 -13.319  0.00  0.00    +0.258 C 
ATOM     19  C   UNL     1      35.619 -23.432 -15.437  0.00  0.00    +0.283 C 
ATOM     20  H   UNL     1      36.712 -23.713 -13.714  0.00  0.00    +0.159 HD
ENDBRANCH   7  16
TORSDOF 1
ENDMDL
MODEL 6
REMARK VINA RESULT:      -9.2      4.422      6.968
REMARK  Name = 5287855
REMARK  1 active torsions:
REMARK  status: ('A' for Active; 'I' for Inactive)
REMARK    1  A    between atoms: C_7  and  C_16
REMARK                            x       y       z     vdW  Elec       q    Type
REMARK                         _______ _______ _______ _____ _____    ______ ____
ROOT
ATOM      1  F   UNL     1      34.549 -19.794 -20.300  0.00  0.00    -0.125 F 
ATOM      2  F   UNL     1      36.676 -19.546 -20.752  0.00  0.00    -0.125 F 
ATOM      3  O   UNL     1      35.348 -17.709 -20.693  0.00  0.00    -0.395 OA
ATOM      4  O   UNL     1      35.171 -19.368 -22.438  0.00  0.00    -0.395 OA
ATOM      5  C   UNL     1      35.030 -17.161 -21.898  0.00  0.00    +0.182 C 
ATOM      6  C   UNL     1      34.929 -18.108 -22.894  0.00  0.00    +0.182 C 
ATOM      7  C   UNL     1      34.501 -15.446 -23.454  0.00  0.00    +0.004 C 
ATOM      8  C   UNL     1      34.821 -15.820 -22.146  0.00  0.00    +0.040 C 
ATOM      9  C   UNL     1      34.614 -17.763 -24.192  0.00  0.00    +0.040 C 
ATOM     10  C   UNL     1      34.398 -16.412 -24.471  0.00  0.00    +0.003 C 
ATOM     11  C   UNL     1      35.434 -19.095 -21.054  0.00  0.00    +0.589 C 
ENDROOT
BRANCH   7  16
ATOM     12  S   UNL     1      32.371 -13.648 -21.836  0.00  0.00    -0.025 S 
ATOM     13  O   UNL     1      33.827 -11.227 -24.412  0.00  0.00    -0.269 OA
ATOM     14  O   UNL     1      30.825 -11.719 -20.917  0.00  0.00    -0.262 OA
ATOM     15  N   UNL     1      32.264 -11.240 -22.688  0.00  0.00    -0.243 N 
ATOM     16  C   UNL     1      34.271 -14.043 -23.766  0.00  0.00    +0.011 C 
ATOM     17  C   UNL     1      33.405 -13.218 -23.145  0.00  0.00    +0.087 C 
ATOM     18  C   UNL     1      33.220 -11.796 -23.517  0.00  0.00    +0.258 C 
ATOM     19  C   UNL     1      31.682 -12.034 -21.728  0.00  0.00    +0.283 C 
ATOM     20  H   UNL     1      32.006 -10.295 -22.783  0.00  0.00    +0.159 HD
ENDBRANCH   7  16
TORSDOF 1
ENDMDL
MODEL 7
REMARK VINA RESULT:      -9.0      3.690      5.764
REMARK  Name = 5287855
REMARK  1 active torsions:
REMARK  status: ('A' for Active; 'I' for Inactive)
REMARK    1  A    between atoms: C_7  and  C_16
REMARK                            x       y       z     vdW  Elec       q    Type
REMARK                         _______ _______ _______ _____ _____    ______ ____
ROOT
ATOM      1  F   UNL     1      31.742  -8.150 -23.446  0.00  0.00    -0.125 F 
ATOM      2  F   UNL     1      33.477  -8.207 -22.113  0.00  0.00    -0.125 F 
ATOM      3  O   UNL     1      33.397  -9.641 -23.869  0.00  0.00    -0.395 OA
ATOM      4  O   UNL     1      31.927  -9.856 -21.965  0.00  0.00    -0.395 OA
ATOM      5  C   UNL     1      33.125 -10.941 -23.569  0.00  0.00    +0.182 C 
ATOM      6  C   UNL     1      32.286 -11.064 -22.483  0.00  0.00    +0.182 C 
ATOM      7  C   UNL     1      33.215 -13.304 -23.786  0.00  0.00    +0.004 C 
ATOM      8  C   UNL     1      33.607 -12.044 -24.243  0.00  0.00    +0.040 C 
ATOM      9  C   UNL     1      31.885 -12.298 -22.012  0.00  0.00    +0.040 C 
ATOM     10  C   UNL     1      32.359 -13.431 -22.677  0.00  0.00    +0.003 C 
ATOM     11  C   UNL     1      32.637  -8.976 -22.849  0.00  0.00    +0.589 C 
ENDROOT
BRANCH   7  16
ATOM     12  S   UNL     1      34.634 -15.728 -22.206  0.00  0.00    -0.025 S 
ATOM     13  O   UNL     1      34.654 -16.888 -25.849  0.00  0.00    -0.269 OA
ATOM     14  O   UNL     1      35.836 -17.968 -21.501  0.00  0.00    -0.262 OA
ATOM     15  N   UNL     1      35.334 -17.639 -23.754  0.00  0.00    -0.243 N 
ATOM     16  C   UNL     1      33.696 -14.499 -24.464  0.00  0.00    +0.011 C 
ATOM     17  C   UNL     1      34.299 -15.557 -23.886  0.00  0.00    +0.087 C 
ATOM     18  C   UNL     1      34.766 -16.744 -24.641  0.00  0.00    +0.258 C 
ATOM     19  C   UNL     1      35.374 -17.309 -22.419  0.00  0.00    +0.283 C 
ATOM     20  H   UNL     1      35.703 -18.495 -24.071  0.00  0.00    +0.159 HD
ENDBRANCH   7  16
TORSDOF 1
ENDMDL
MODEL 8
REMARK VINA RESULT:      -9.0      9.267     10.790
REMARK  Name = 5287855
REMARK  1 active torsions:
REMARK  status: ('A' for Active; 'I' for Inactive)
REMARK    1  A    between atoms: C_7  and  C_16
REMARK                            x       y       z     vdW  Elec       q    Type
REMARK                         _______ _______ _______ _____ _____    ______ ____
ROOT
ATOM      1  F   UNL     1      29.058 -22.891 -15.340  0.00  0.00    -0.125 F 
ATOM      2  F   UNL     1      29.338 -24.915 -16.128  0.00  0.00    -0.125 F 
ATOM      3  O   UNL     1      30.516 -24.280 -14.297  0.00  0.00    -0.395 OA
ATOM      4  O   UNL     1      30.954 -23.365 -16.489  0.00  0.00    -0.395 OA
ATOM      5  C   UNL     1      31.838 -24.021 -14.495  0.00  0.00    +0.182 C 
ATOM      6  C   UNL     1      32.088 -23.499 -15.746  0.00  0.00    +0.182 C 
ATOM      7  C   UNL     1      34.151 -23.906 -13.969  0.00  0.00    +0.004 C 
ATOM      8  C   UNL     1      32.849 -24.236 -13.583  0.00  0.00    +0.040 C 
ATOM      9  C   UNL     1      33.364 -23.166 -16.151  0.00  0.00    +0.040 C 
ATOM     10  C   UNL     1      34.407 -23.374 -15.245  0.00  0.00    +0.003 C 
ATOM     11  C   UNL     1      29.979 -23.863 -15.561  0.00  0.00    +0.589 C 
ENDROOT
BRANCH   7  16
ATOM     12  S   UNL     1      36.723 -25.695 -14.724  0.00  0.00    -0.025 S 
ATOM     13  O   UNL     1      37.454 -24.518 -11.160  0.00  0.00    -0.269 OA
ATOM     14  O   UNL     1      39.014 -27.003 -14.746  0.00  0.00    -0.262 OA
ATOM     15  N   UNL     1      38.433 -25.814 -12.826  0.00  0.00    -0.243 N 
ATOM     16  C   UNL     1      35.253 -24.115 -13.041  0.00  0.00    +0.011 C 
ATOM     17  C   UNL     1      36.363 -24.844 -13.271  0.00  0.00    +0.087 C 
ATOM     18  C   UNL     1      37.449 -25.014 -12.276  0.00  0.00    +0.258 C 
ATOM     19  C   UNL     1      38.259 -26.288 -14.106  0.00  0.00    +0.283 C 
ATOM     20  H   UNL     1      39.242 -26.040 -12.312  0.00  0.00    +0.159 HD
ENDBRANCH   7  16
TORSDOF 1
ENDMDL
MODEL 9
REMARK VINA RESULT:      -9.0      3.401      5.136
REMARK  Name = 5287855
REMARK  1 active torsions:
REMARK  status: ('A' for Active; 'I' for Inactive)
REMARK    1  A    between atoms: C_7  and  C_16
REMARK                            x       y       z     vdW  Elec       q    Type
REMARK                         _______ _______ _______ _____ _____    ______ ____
ROOT
ATOM      1  F   UNL     1      31.988 -10.996 -19.512  0.00  0.00    -0.125 F 
ATOM      2  F   UNL     1      30.090 -11.088 -20.599  0.00  0.00    -0.125 F 
ATOM      3  O   UNL     1      31.533 -12.830 -20.766  0.00  0.00    -0.395 OA
ATOM      4  O   UNL     1      31.997 -10.678 -21.757  0.00  0.00    -0.395 OA
ATOM      5  C   UNL     1      32.210 -12.937 -21.942  0.00  0.00    +0.182 C 
ATOM      6  C   UNL     1      32.475 -11.709 -22.507  0.00  0.00    +0.182 C 
ATOM      7  C   UNL     1      33.299 -14.022 -23.753  0.00  0.00    +0.004 C 
ATOM      8  C   UNL     1      32.610 -14.114 -22.541  0.00  0.00    +0.040 C 
ATOM      9  C   UNL     1      33.153 -11.592 -23.704  0.00  0.00    +0.040 C 
ATOM     10  C   UNL     1      33.569 -12.769 -24.331  0.00  0.00    +0.003 C 
ATOM     11  C   UNL     1      31.407 -11.404 -20.668  0.00  0.00    +0.589 C 
ENDROOT
BRANCH   7  16
ATOM     12  S   UNL     1      34.974 -16.316 -22.232  0.00  0.00    -0.025 S 
ATOM     13  O   UNL     1      34.621 -17.664 -25.793  0.00  0.00    -0.269 OA
ATOM     14  O   UNL     1      36.328 -18.480 -21.563  0.00  0.00    -0.262 OA
ATOM     15  N   UNL     1      35.561 -18.283 -23.756  0.00  0.00    -0.243 N 
ATOM     16  C   UNL     1      33.742 -15.235 -24.424  0.00  0.00    +0.011 C 
ATOM     17  C   UNL     1      34.444 -16.243 -23.868  0.00  0.00    +0.087 C 
ATOM     18  C   UNL     1      34.864 -17.453 -24.614  0.00  0.00    +0.258 C 
ATOM     19  C   UNL     1      35.741 -17.883 -22.453  0.00  0.00    +0.283 C 
ATOM     20  H   UNL     1      35.922 -19.143 -24.072  0.00  0.00    +0.159 HD
ENDBRANCH   7  16
TORSDOF 1
ENDMDL
