MODEL 1
REMARK VINA RESULT:      -7.2      0.000      0.000
REMARK  Name = 6950578
REMARK  6 active torsions:
REMARK  status: ('A' for Active; 'I' for Inactive)
REMARK    1  A    between atoms: C_1  and  C_2
REMARK    2  A    between atoms: C_1  and  CA_10
REMARK    3  A    between atoms: C_5  and  O_8
REMARK    4  A    between atoms: CA_10  and  N_11
REMARK    5  A    between atoms: CA_10  and  C_16
REMARK    6  A    between atoms: C_16  and  O_17
REMARK                            x       y       z     vdW  Elec       q    Type
REMARK                         _______ _______ _______ _____ _____    ______ ____
ROOT
ATOM      1  C   UNL     1      34.075 -18.664 -21.550  0.00  0.00    +0.015 C 
ENDROOT
BRANCH   1   2
ATOM      2  C   UNL     1      34.373 -19.878 -20.698  0.00  0.00    -0.021 C 
ATOM      3  C   UNL     1      33.327 -20.548 -20.086  0.00  0.00    +0.032 C 
ATOM      4  C   UNL     1      35.685 -20.293 -20.549  0.00  0.00    -0.004 C 
ATOM      5  C   UNL     1      33.602 -21.667 -19.300  0.00  0.00    +0.133 C 
ATOM      6  C   UNL     1      35.960 -21.413 -19.763  0.00  0.00    +0.003 C 
ATOM      7  C   UNL     1      34.918 -22.100 -19.139  0.00  0.00    +0.037 C 
BRANCH   5   8
ATOM      8  O   UNL     1      32.586 -22.338 -18.692  0.00  0.00    -0.506 OA
ATOM      9  H   UNL     1      32.285 -22.066 -17.847  0.00  0.00    +0.292 HD
ENDBRANCH   5   8
ENDBRANCH   1   2
BRANCH   1  10
ATOM     10  CA  UNL     1      35.223 -17.642 -21.554  0.00  0.00    +0.040 C 
BRANCH  10  11
ATOM     11  N   UNL     1      34.960 -16.599 -20.564  0.00  0.00    +0.389 N 
ATOM     12  H1  UNL     1      35.615 -15.830 -20.699  0.00  0.00    -0.088 HD
ATOM     13  H2  UNL     1      35.075 -16.984 -19.626  0.00  0.00    -0.088 HD
ATOM     14  H3  UNL     1      34.005 -16.257 -20.677  0.00  0.00    -0.088 HD
ENDBRANCH  10  11
BRANCH  10  16
ATOM     15  OXT UNL     1      35.273 -15.733 -23.066  0.00  0.00    -0.253 OA
ATOM     16  C   UNL     1      35.360 -16.942 -22.895  0.00  0.00    +0.293 C 
BRANCH  16  17
ATOM     17  O   UNL     1      35.630 -17.811 -23.905  0.00  0.00    -0.482 OA
ATOM     18  H   UNL     1      36.057 -18.624 -23.723  0.00  0.00    +0.295 HD
ENDBRANCH  16  17
ENDBRANCH  10  16
ENDBRANCH   1  10
TORSDOF 6
ENDMDL
MODEL 2
REMARK VINA RESULT:      -7.1      1.657      2.281
REMARK  Name = 6950578
REMARK  6 active torsions:
REMARK  status: ('A' for Active; 'I' for Inactive)
REMARK    1  A    between atoms: C_1  and  C_2
REMARK    2  A    between atoms: C_1  and  CA_10
REMARK    3  A    between atoms: C_5  and  O_8
REMARK    4  A    between atoms: CA_10  and  N_11
REMARK    5  A    between atoms: CA_10  and  C_16
REMARK    6  A    between atoms: C_16  and  O_17
REMARK                            x       y       z     vdW  Elec       q    Type
REMARK                         _______ _______ _______ _____ _____    ______ ____
ROOT
ATOM      1  C   UNL     1      35.810 -18.584 -21.827  0.00  0.00    +0.015 C 
ENDROOT
BRANCH   1   2
ATOM      2  C   UNL     1      35.000 -19.569 -21.015  0.00  0.00    -0.021 C 
ATOM      3  C   UNL     1      35.658 -20.522 -20.257  0.00  0.00    +0.032 C 
ATOM      4  C   UNL     1      33.618 -19.498 -21.047  0.00  0.00    -0.004 C 
ATOM      5  C   UNL     1      34.911 -21.432 -19.508  0.00  0.00    +0.133 C 
ATOM      6  C   UNL     1      32.870 -20.407 -20.298  0.00  0.00    +0.003 C 
ATOM      7  C   UNL     1      33.518 -21.374 -19.528  0.00  0.00    +0.037 C 
BRANCH   5   8
ATOM      8  O   UNL     1      35.541 -22.375 -18.756  0.00  0.00    -0.506 OA
ATOM      9  H   UNL     1      36.453 -22.283 -18.557  0.00  0.00    +0.292 HD
ENDBRANCH   5   8
ENDBRANCH   1   2
BRANCH   1  10
ATOM     10  CA  UNL     1      34.934 -17.565 -22.574  0.00  0.00    +0.040 C 
BRANCH  10  11
ATOM     11  N   UNL     1      35.445 -17.373 -23.930  0.00  0.00    +0.389 N 
ATOM     12  H1  UNL     1      36.458 -17.254 -23.898  0.00  0.00    -0.088 HD
ATOM     13  H2  UNL     1      35.017 -16.543 -24.339  0.00  0.00    -0.088 HD
ATOM     14  H3  UNL     1      35.216 -18.189 -24.497  0.00  0.00    -0.088 HD
ENDBRANCH  10  11
BRANCH  10  16
ATOM     15  OXT UNL     1      34.976 -16.012 -20.698  0.00  0.00    -0.253 OA
ATOM     16  C   UNL     1      34.952 -16.200 -21.907  0.00  0.00    +0.293 C 
BRANCH  16  17
ATOM     17  O   UNL     1      34.972 -15.185 -22.810  0.00  0.00    -0.482 OA
ATOM     18  H   UNL     1      34.990 -15.373 -23.728  0.00  0.00    +0.295 HD
ENDBRANCH  16  17
ENDBRANCH  10  16
ENDBRANCH   1  10
TORSDOF 6
ENDMDL
MODEL 3
REMARK VINA RESULT:      -6.9      2.012      2.593
REMARK  Name = 6950578
REMARK  6 active torsions:
REMARK  status: ('A' for Active; 'I' for Inactive)
REMARK    1  A    between atoms: C_1  and  C_2
REMARK    2  A    between atoms: C_1  and  CA_10
REMARK    3  A    between atoms: C_5  and  O_8
REMARK    4  A    between atoms: CA_10  and  N_11
REMARK    5  A    between atoms: CA_10  and  C_16
REMARK    6  A    between atoms: C_16  and  O_17
REMARK                            x       y       z     vdW  Elec       q    Type
REMARK                         _______ _______ _______ _____ _____    ______ ____
ROOT
ATOM      1  C   UNL     1      34.849 -17.914 -22.130  0.00  0.00    +0.015 C 
ENDROOT
BRANCH   1   2
ATOM      2  C   UNL     1      34.638 -19.123 -21.246  0.00  0.00    -0.021 C 
ATOM      3  C   UNL     1      35.739 -19.793 -20.741  0.00  0.00    +0.032 C 
ATOM      4  C   UNL     1      33.347 -19.535 -20.961  0.00  0.00    -0.004 C 
ATOM      5  C   UNL     1      35.544 -20.909 -19.927  0.00  0.00    +0.133 C 
ATOM      6  C   UNL     1      33.151 -20.650 -20.145  0.00  0.00    +0.003 C 
ATOM      7  C   UNL     1      34.250 -21.336 -19.628  0.00  0.00    +0.037 C 
BRANCH   5   8
ATOM      8  O   UNL     1      36.615 -21.578 -19.421  0.00  0.00    -0.506 OA
ATOM      9  H   UNL     1      36.514 -22.118 -18.661  0.00  0.00    +0.292 HD
ENDBRANCH   5   8
ENDBRANCH   1   2
BRANCH   1  10
ATOM     10  CA  UNL     1      34.445 -18.166 -23.591  0.00  0.00    +0.040 C 
BRANCH  10  11
ATOM     11  N   UNL     1      35.056 -19.406 -24.066  0.00  0.00    +0.389 N 
ATOM     12  H1  UNL     1      35.328 -19.298 -25.043  0.00  0.00    -0.088 HD
ATOM     13  H2  UNL     1      34.383 -20.169 -23.983  0.00  0.00    -0.088 HD
ATOM     14  H3  UNL     1      35.880 -19.616 -23.504  0.00  0.00    -0.088 HD
ENDBRANCH  10  11
BRANCH  10  16
ATOM     15  OXT UNL     1      34.712 -17.012 -25.719  0.00  0.00    -0.253 OA
ATOM     16  C   UNL     1      34.929 -17.062 -24.516  0.00  0.00    +0.293 C 
BRANCH  16  17
ATOM     17  O   UNL     1      35.616 -16.096 -23.851  0.00  0.00    -0.482 OA
ATOM     18  H   UNL     1      36.070 -16.304 -23.058  0.00  0.00    +0.295 HD
ENDBRANCH  16  17
ENDBRANCH  10  16
ENDBRANCH   1  10
TORSDOF 6
ENDMDL
MODEL 4
REMARK VINA RESULT:      -6.9      1.488      1.844
REMARK  Name = 6950578
REMARK  6 active torsions:
REMARK  status: ('A' for Active; 'I' for Inactive)
REMARK    1  A    between atoms: C_1  and  C_2
REMARK    2  A    between atoms: C_1  and  CA_10
REMARK    3  A    between atoms: C_5  and  O_8
REMARK    4  A    between atoms: CA_10  and  N_11
REMARK    5  A    between atoms: CA_10  and  C_16
REMARK    6  A    between atoms: C_16  and  O_17
REMARK                            x       y       z     vdW  Elec       q    Type
REMARK                         _______ _______ _______ _____ _____    ______ ____
ROOT
ATOM      1  C   UNL     1      36.343 -18.636 -21.467  0.00  0.00    +0.015 C 
ENDROOT
BRANCH   1   2
ATOM      2  C   UNL     1      35.828 -19.794 -20.641  0.00  0.00    -0.021 C 
ATOM      3  C   UNL     1      34.479 -20.101 -20.675  0.00  0.00    +0.032 C 
ATOM      4  C   UNL     1      36.718 -20.523 -19.870  0.00  0.00    -0.004 C 
ATOM      5  C   UNL     1      34.004 -21.169 -19.913  0.00  0.00    +0.133 C 
ATOM      6  C   UNL     1      36.244 -21.592 -19.108  0.00  0.00    +0.003 C 
ATOM      7  C   UNL     1      34.887 -21.915 -19.131  0.00  0.00    +0.037 C 
BRANCH   5   8
ATOM      8  O   UNL     1      32.681 -21.486 -19.934  0.00  0.00    -0.506 OA
ATOM      9  H   UNL     1      32.062 -20.887 -20.305  0.00  0.00    +0.292 HD
ENDBRANCH   5   8
ENDBRANCH   1   2
BRANCH   1  10
ATOM     10  CA  UNL     1      35.217 -17.845 -22.151  0.00  0.00    +0.040 C 
BRANCH  10  11
ATOM     11  N   UNL     1      35.600 -17.527 -23.525  0.00  0.00    +0.389 N 
ATOM     12  H1  UNL     1      35.215 -18.230 -24.156  0.00  0.00    -0.088 HD
ATOM     13  H2  UNL     1      36.618 -17.522 -23.601  0.00  0.00    -0.088 HD
ATOM     14  H3  UNL     1      35.235 -16.608 -23.776  0.00  0.00    -0.088 HD
ENDBRANCH  10  11
BRANCH  10  16
ATOM     15  OXT UNL     1      35.073 -16.319 -20.258  0.00  0.00    -0.253 OA
ATOM     16  C   UNL     1      34.947 -16.520 -21.459  0.00  0.00    +0.293 C 
BRANCH  16  17
ATOM     17  O   UNL     1      34.576 -15.548 -22.332  0.00  0.00    -0.482 OA
ATOM     18  H   UNL     1      34.316 -14.705 -22.015  0.00  0.00    +0.295 HD
ENDBRANCH  16  17
ENDBRANCH  10  16
ENDBRANCH   1  10
TORSDOF 6
ENDMDL
MODEL 5
REMARK VINA RESULT:      -6.6      1.970      5.540
REMARK  Name = 6950578
REMARK  6 active torsions:
REMARK  status: ('A' for Active; 'I' for Inactive)
REMARK    1  A    between atoms: C_1  and  C_2
REMARK    2  A    between atoms: C_1  and  CA_10
REMARK    3  A    between atoms: C_5  and  O_8
REMARK    4  A    between atoms: CA_10  and  N_11
REMARK    5  A    between atoms: CA_10  and  C_16
REMARK    6  A    between atoms: C_16  and  O_17
REMARK                            x       y       z     vdW  Elec       q    Type
REMARK                         _______ _______ _______ _____ _____    ______ ____
ROOT
ATOM      1  C   UNL     1      34.832 -19.839 -22.011  0.00  0.00    +0.015 C 
ENDROOT
BRANCH   1   2
ATOM      2  C   UNL     1      34.824 -18.435 -22.572  0.00  0.00    -0.021 C 
ATOM      3  C   UNL     1      34.832 -18.255 -23.945  0.00  0.00    +0.032 C 
ATOM      4  C   UNL     1      34.809 -17.359 -21.702  0.00  0.00    -0.004 C 
ATOM      5  C   UNL     1      34.826 -16.959 -24.463  0.00  0.00    +0.133 C 
ATOM      6  C   UNL     1      34.802 -16.062 -22.219  0.00  0.00    +0.003 C 
ATOM      7  C   UNL     1      34.810 -15.864 -23.600  0.00  0.00    +0.037 C 
BRANCH   5   8
ATOM      8  O   UNL     1      34.833 -16.764 -25.810  0.00  0.00    -0.506 OA
ATOM      9  H   UNL     1      35.398 -17.278 -26.354  0.00  0.00    +0.292 HD
ENDBRANCH   5   8
ENDBRANCH   1   2
BRANCH   1  10
ATOM     10  CA  UNL     1      34.563 -19.878 -20.499  0.00  0.00    +0.040 C 
BRANCH  10  11
ATOM     11  N   UNL     1      35.638 -20.602 -19.824  0.00  0.00    +0.389 N 
ATOM     12  H1  UNL     1      36.344 -20.877 -20.507  0.00  0.00    -0.088 HD
ATOM     13  H2  UNL     1      35.257 -21.435 -19.374  0.00  0.00    -0.088 HD
ATOM     14  H3  UNL     1      36.063 -19.999 -19.119  0.00  0.00    -0.088 HD
ENDBRANCH  10  11
BRANCH  10  16
ATOM     15  OXT UNL     1      33.139 -21.412 -19.253  0.00  0.00    -0.253 OA
ATOM     16  C   UNL     1      33.273 -20.609 -20.167  0.00  0.00    +0.293 C 
BRANCH  16  17
ATOM     17  O   UNL     1      32.250 -20.249 -20.986  0.00  0.00    -0.482 OA
ATOM     18  H   UNL     1      32.389 -19.610 -21.657  0.00  0.00    +0.295 HD
ENDBRANCH  16  17
ENDBRANCH  10  16
ENDBRANCH   1  10
TORSDOF 6
ENDMDL
MODEL 6
REMARK VINA RESULT:      -6.6      8.471      9.261
REMARK  Name = 6950578
REMARK  6 active torsions:
REMARK  status: ('A' for Active; 'I' for Inactive)
REMARK    1  A    between atoms: C_1  and  C_2
REMARK    2  A    between atoms: C_1  and  CA_10
REMARK    3  A    between atoms: C_5  and  O_8
REMARK    4  A    between atoms: CA_10  and  N_11
REMARK    5  A    between atoms: CA_10  and  C_16
REMARK    6  A    between atoms: C_16  and  O_17
REMARK                            x       y       z     vdW  Elec       q    Type
REMARK                         _______ _______ _______ _____ _____    ______ ____
ROOT
ATOM      1  C   UNL     1      28.856 -22.197 -15.370  0.00  0.00    +0.015 C 
ENDROOT
BRANCH   1   2
ATOM      2  C   UNL     1      29.918 -23.162 -14.892  0.00  0.00    -0.021 C 
ATOM      3  C   UNL     1      31.195 -22.691 -14.639  0.00  0.00    +0.032 C 
ATOM      4  C   UNL     1      29.591 -24.496 -14.719  0.00  0.00    -0.004 C 
ATOM      5  C   UNL     1      32.175 -23.582 -14.199  0.00  0.00    +0.133 C 
ATOM      6  C   UNL     1      30.571 -25.387 -14.279  0.00  0.00    +0.003 C 
ATOM      7  C   UNL     1      31.862 -24.929 -14.018  0.00  0.00    +0.037 C 
BRANCH   5   8
ATOM      8  O   UNL     1      33.435 -23.136 -13.944  0.00  0.00    -0.506 OA
ATOM      9  H   UNL     1      33.872 -23.391 -13.154  0.00  0.00    +0.292 HD
ENDBRANCH   5   8
ENDBRANCH   1   2
BRANCH   1  10
ATOM     10  CA  UNL     1      27.794 -22.869 -16.255  0.00  0.00    +0.040 C 
BRANCH  10  11
ATOM     11  N   UNL     1      28.336 -23.094 -17.593  0.00  0.00    +0.389 N 
ATOM     12  H1  UNL     1      27.812 -22.538 -18.269  0.00  0.00    -0.088 HD
ATOM     13  H2  UNL     1      28.257 -24.083 -17.830  0.00  0.00    -0.088 HD
ATOM     14  H3  UNL     1      29.318 -22.816 -17.613  0.00  0.00    -0.088 HD
ENDBRANCH  10  11
BRANCH  10  16
ATOM     15  OXT UNL     1      25.569 -22.042 -15.710  0.00  0.00    -0.253 OA
ATOM     16  C   UNL     1      26.560 -22.000 -16.426  0.00  0.00    +0.293 C 
BRANCH  16  17
ATOM     17  O   UNL     1      26.684 -21.127 -17.460  0.00  0.00    -0.482 OA
ATOM     18  H   UNL     1      27.534 -20.844 -17.736  0.00  0.00    +0.295 HD
ENDBRANCH  16  17
ENDBRANCH  10  16
ENDBRANCH   1  10
TORSDOF 6
ENDMDL
MODEL 7
REMARK VINA RESULT:      -6.5      2.121      5.537
REMARK  Name = 6950578
REMARK  6 active torsions:
REMARK  status: ('A' for Active; 'I' for Inactive)
REMARK    1  A    between atoms: C_1  and  C_2
REMARK    2  A    between atoms: C_1  and  CA_10
REMARK    3  A    between atoms: C_5  and  O_8
REMARK    4  A    between atoms: CA_10  and  N_11
REMARK    5  A    between atoms: CA_10  and  C_16
REMARK    6  A    between atoms: C_16  and  O_17
REMARK                            x       y       z     vdW  Elec       q    Type
REMARK                         _______ _______ _______ _____ _____    ______ ____
ROOT
ATOM      1  C   UNL     1      35.605 -19.212 -20.932  0.00  0.00    +0.015 C 
ENDROOT
BRANCH   1   2
ATOM      2  C   UNL     1      35.254 -18.507 -22.223  0.00  0.00    -0.021 C 
ATOM      3  C   UNL     1      35.259 -17.122 -22.260  0.00  0.00    +0.032 C 
ATOM      4  C   UNL     1      34.935 -19.259 -23.340  0.00  0.00    -0.004 C 
ATOM      5  C   UNL     1      34.935 -16.472 -23.451  0.00  0.00    +0.133 C 
ATOM      6  C   UNL     1      34.611 -18.609 -24.532  0.00  0.00    +0.003 C 
ATOM      7  C   UNL     1      34.612 -17.215 -24.586  0.00  0.00    +0.037 C 
BRANCH   5   8
ATOM      8  O   UNL     1      34.936 -15.112 -23.506  0.00  0.00    -0.506 OA
ATOM      9  H   UNL     1      34.126 -14.641 -23.459  0.00  0.00    +0.292 HD
ENDBRANCH   5   8
ENDBRANCH   1   2
BRANCH   1  10
ATOM     10  CA  UNL     1      34.810 -20.511 -20.728  0.00  0.00    +0.040 C 
BRANCH  10  11
ATOM     11  N   UNL     1      33.451 -20.196 -20.290  0.00  0.00    +0.389 N 
ATOM     12  H1  UNL     1      33.328 -19.184 -20.270  0.00  0.00    -0.088 HD
ATOM     13  H2  UNL     1      33.298 -20.576 -19.356  0.00  0.00    -0.088 HD
ATOM     14  H3  UNL     1      32.781 -20.607 -20.940  0.00  0.00    -0.088 HD
ENDBRANCH  10  11
BRANCH  10  16
ATOM     15  OXT UNL     1      35.065 -22.534 -19.395  0.00  0.00    -0.253 OA
ATOM     16  C   UNL     1      35.420 -21.390 -19.649  0.00  0.00    +0.293 C 
BRANCH  16  17
ATOM     17  O   UNL     1      36.445 -20.776 -19.002  0.00  0.00    -0.482 OA
ATOM     18  H   UNL     1      36.587 -19.857 -19.113  0.00  0.00    +0.295 HD
ENDBRANCH  16  17
ENDBRANCH  10  16
ENDBRANCH   1  10
TORSDOF 6
ENDMDL
MODEL 8
REMARK VINA RESULT:      -6.4      4.433      6.000
REMARK  Name = 6950578
REMARK  6 active torsions:
REMARK  status: ('A' for Active; 'I' for Inactive)
REMARK    1  A    between atoms: C_1  and  C_2
REMARK    2  A    between atoms: C_1  and  CA_10
REMARK    3  A    between atoms: C_5  and  O_8
REMARK    4  A    between atoms: CA_10  and  N_11
REMARK    5  A    between atoms: CA_10  and  C_16
REMARK    6  A    between atoms: C_16  and  O_17
REMARK                            x       y       z     vdW  Elec       q    Type
REMARK                         _______ _______ _______ _____ _____    ______ ____
ROOT
ATOM      1  C   UNL     1      34.989 -15.830 -23.542  0.00  0.00    +0.015 C 
ENDROOT
BRANCH   1   2
ATOM      2  C   UNL     1      34.068 -15.152 -22.554  0.00  0.00    -0.021 C 
ATOM      3  C   UNL     1      33.242 -14.129 -22.990  0.00  0.00    +0.032 C 
ATOM      4  C   UNL     1      34.068 -15.568 -21.233  0.00  0.00    -0.004 C 
ATOM      5  C   UNL     1      32.393 -13.502 -22.077  0.00  0.00    +0.133 C 
ATOM      6  C   UNL     1      33.219 -14.942 -20.320  0.00  0.00    +0.003 C 
ATOM      7  C   UNL     1      32.381 -13.909 -20.743  0.00  0.00    +0.037 C 
BRANCH   5   8
ATOM      8  O   UNL     1      31.575 -12.496 -22.489  0.00  0.00    -0.506 OA
ATOM      9  H   UNL     1      30.655 -12.537 -22.310  0.00  0.00    +0.292 HD
ENDBRANCH   5   8
ENDBRANCH   1   2
BRANCH   1  10
ATOM     10  CA  UNL     1      34.895 -17.363 -23.490  0.00  0.00    +0.040 C 
BRANCH  10  11
ATOM     11  N   UNL     1      36.163 -17.921 -23.023  0.00  0.00    +0.389 N 
ATOM     12  H1  UNL     1      36.912 -17.251 -23.198  0.00  0.00    -0.088 HD
ATOM     13  H2  UNL     1      36.357 -18.788 -23.524  0.00  0.00    -0.088 HD
ATOM     14  H3  UNL     1      36.102 -18.111 -22.023  0.00  0.00    -0.088 HD
ENDBRANCH  10  11
BRANCH  10  16
ATOM     15  OXT UNL     1      34.360 -19.142 -25.066  0.00  0.00    -0.253 OA
ATOM     16  C   UNL     1      34.633 -17.967 -24.859  0.00  0.00    +0.293 C 
BRANCH  16  17
ATOM     17  O   UNL     1      34.703 -17.042 -25.852  0.00  0.00    -0.482 OA
ATOM     18  H   UNL     1      33.920 -16.645 -26.180  0.00  0.00    +0.295 HD
ENDBRANCH  16  17
ENDBRANCH  10  16
ENDBRANCH   1  10
TORSDOF 6
ENDMDL
MODEL 9
REMARK VINA RESULT:      -6.4      7.466      8.670
REMARK  Name = 6950578
REMARK  6 active torsions:
REMARK  status: ('A' for Active; 'I' for Inactive)
REMARK    1  A    between atoms: C_1  and  C_2
REMARK    2  A    between atoms: C_1  and  CA_10
REMARK    3  A    between atoms: C_5  and  O_8
REMARK    4  A    between atoms: CA_10  and  N_11
REMARK    5  A    between atoms: CA_10  and  C_16
REMARK    6  A    between atoms: C_16  and  O_17
REMARK                            x       y       z     vdW  Elec       q    Type
REMARK                         _______ _______ _______ _____ _____    ______ ____
ROOT
ATOM      1  C   UNL     1      29.860 -22.755 -14.952  0.00  0.00    +0.015 C 
ENDROOT
BRANCH   1   2
ATOM      2  C   UNL     1      31.309 -23.183 -14.993  0.00  0.00    -0.021 C 
ATOM      3  C   UNL     1      31.884 -23.736 -13.862  0.00  0.00    +0.032 C 
ATOM      4  C   UNL     1      32.031 -23.013 -16.162  0.00  0.00    -0.004 C 
ATOM      5  C   UNL     1      33.222 -24.130 -13.900  0.00  0.00    +0.133 C 
ATOM      6  C   UNL     1      33.369 -23.407 -16.201  0.00  0.00    +0.003 C 
ATOM      7  C   UNL     1      33.964 -23.966 -15.070  0.00  0.00    +0.037 C 
BRANCH   5   8
ATOM      8  O   UNL     1      33.803 -24.676 -12.797  0.00  0.00    -0.506 OA
ATOM      9  H   UNL     1      34.716 -24.542 -12.634  0.00  0.00    +0.292 HD
ENDBRANCH   5   8
ENDBRANCH   1   2
BRANCH   1  10
ATOM     10  CA  UNL     1      28.911 -23.803 -15.555  0.00  0.00    +0.040 C 
BRANCH  10  11
ATOM     11  N   UNL     1      29.654 -25.023 -15.864  0.00  0.00    +0.389 N 
ATOM     12  H1  UNL     1      28.999 -25.779 -16.062  0.00  0.00    -0.088 HD
ATOM     13  H2  UNL     1      30.236 -25.277 -15.066  0.00  0.00    -0.088 HD
ATOM     14  H3  UNL     1      30.246 -24.863 -16.680  0.00  0.00    -0.088 HD
ENDBRANCH  10  11
BRANCH  10  16
ATOM     15  OXT UNL     1      27.665 -24.039 -17.635  0.00  0.00    -0.253 OA
ATOM     16  C   UNL     1      28.293 -23.330 -16.859  0.00  0.00    +0.293 C 
BRANCH  16  17
ATOM     17  O   UNL     1      28.481 -22.000 -17.067  0.00  0.00    -0.482 OA
ATOM     18  H   UNL     1      28.650 -21.679 -17.931  0.00  0.00    +0.295 HD
ENDBRANCH  16  17
ENDBRANCH  10  16
ENDBRANCH   1  10
TORSDOF 6
ENDMDL
