MODEL 1
REMARK VINA RESULT:      -9.5      0.000      0.000
REMARK  Name = 53307207
REMARK  9 active torsions:
REMARK  status: ('A' for Active; 'I' for Inactive)
REMARK    1  A    between atoms: C_7  and  O_22
REMARK    2  A    between atoms: C_10  and  C_14
REMARK    3  A    between atoms: C_14  and  O_15
REMARK    4  A    between atoms: O_15  and  C_16
REMARK    5  A    between atoms: C_16  and  C_17
REMARK    6  A    between atoms: C_17  and  C_18
REMARK    7  A    between atoms: C_17  and  C_20
REMARK    8  A    between atoms: O_22  and  C_24
REMARK    9  A    between atoms: C_25  and  C_34
REMARK                            x       y       z     vdW  Elec       q    Type
REMARK                         _______ _______ _______ _____ _____    ______ ____
ROOT
ATOM      1  N   UNL     1      35.599 -16.420 -23.601  0.00  0.00    +0.392 N 
ATOM      2  C   UNL     1      33.063 -14.945 -23.249  0.00  0.00    +0.000 C 
ATOM      3  C   UNL     1      33.542 -15.409 -24.636  0.00  0.00    -0.021 C 
ATOM      4  C   UNL     1      32.185 -13.682 -23.343  0.00  0.00    +0.043 C 
ATOM      5  C   UNL     1      34.200 -14.266 -25.424  0.00  0.00    +0.002 C 
ATOM      6  C   UNL     1      34.245 -14.780 -22.274  0.00  0.00    -0.010 C 
ATOM      7  C   UNL     1      32.756 -12.564 -24.219  0.00  0.00    +0.166 C 
ATOM      8  C   UNL     1      34.465 -16.631 -24.504  0.00  0.00    -0.081 C 
ATOM      9  C   UNL     1      33.246 -13.081 -25.570  0.00  0.00    +0.043 C 
ATOM     10  C   UNL     1      35.190 -15.986 -22.265  0.00  0.00    +0.040 C 
ATOM     11  H   UNL     1      36.207 -15.706 -24.004  0.00  0.00    -0.084 HD
ATOM     12  H   UNL     1      36.080 -17.314 -23.499  0.00  0.00    -0.084 HD
ENDROOT
BRANCH  10  14
ATOM     13  O   UNL     1      33.498 -17.184 -21.043  0.00  0.00    -0.252 OA
ATOM     14  C   UNL     1      34.617 -17.164 -21.539  0.00  0.00    +0.297 C 
BRANCH  14  15
ATOM     15  O   UNL     1      35.526 -18.179 -21.528  0.00  0.00    -0.450 OA
BRANCH  15  16
ATOM     16  C   UNL     1      34.987 -19.490 -21.730  0.00  0.00    +0.208 C 
BRANCH  16  17
ATOM     17  C   UNL     1      34.824 -20.211 -20.382  0.00  0.00    +0.044 C 
BRANCH  17  18
ATOM     18  C   UNL     1      35.852 -21.350 -20.195  0.00  0.00    +0.004 C 
ATOM     19  C   UNL     1      36.664 -21.284 -18.909  0.00  0.00    +0.000 C 
ENDBRANCH  17  18
BRANCH  17  20
ATOM     20  C   UNL     1      33.357 -20.654 -20.214  0.00  0.00    +0.004 C 
ATOM     21  C   UNL     1      33.157 -21.738 -19.164  0.00  0.00    +0.000 C 
ENDBRANCH  17  20
ENDBRANCH  16  17
ENDBRANCH  15  16
ENDBRANCH  14  15
ENDBRANCH  10  14
BRANCH   7  22
ATOM     22  O   UNL     1      33.818 -11.912 -23.530  0.00  0.00    -0.478 OA
BRANCH  22  24
ATOM     23 CL   UNL     1      31.873  -7.400 -21.981  0.00  0.00    -0.081 Cl
ATOM     24  C   UNL     1      33.829 -10.544 -23.570  0.00  0.00    +0.149 C 
ATOM     25  C   UNL     1      32.928  -9.787 -22.821  0.00  0.00    +0.110 C 
ATOM     26  C   UNL     1      34.768  -9.907 -24.382  0.00  0.00    +0.038 C 
ATOM     27  C   UNL     1      32.966  -8.394 -22.885  0.00  0.00    +0.070 C 
ATOM     28  C   UNL     1      34.806  -8.515 -24.446  0.00  0.00    +0.004 C 
ATOM     29  C   UNL     1      33.904  -7.757 -23.696  0.00  0.00    +0.012 C 
BRANCH  25  34
ATOM     30  N   UNL     1      30.708 -10.708 -22.362  0.00  0.00    -0.110 NA
ATOM     31  N   UNL     1      32.271 -10.915 -20.737  0.00  0.00    -0.087 NA
ATOM     32  N   UNL     1      30.270 -11.333 -21.260  0.00  0.00    -0.140 N 
ATOM     33  N   UNL     1      31.163 -11.477 -20.271  0.00  0.00    -0.022 NA
ATOM     34  C   UNL     1      31.966 -10.466 -21.987  0.00  0.00    +0.077 C 
ATOM     35  H   UNL     1      29.347 -11.665 -21.181  0.00  0.00    +0.197 HD
ENDBRANCH  25  34
ENDBRANCH  22  24
ENDBRANCH   7  22
TORSDOF 9
ENDMDL
MODEL 2
REMARK VINA RESULT:      -9.3      4.112      9.769
REMARK  Name = 53307207
REMARK  9 active torsions:
REMARK  status: ('A' for Active; 'I' for Inactive)
REMARK    1  A    between atoms: C_7  and  O_22
REMARK    2  A    between atoms: C_10  and  C_14
REMARK    3  A    between atoms: C_14  and  O_15
REMARK    4  A    between atoms: O_15  and  C_16
REMARK    5  A    between atoms: C_16  and  C_17
REMARK    6  A    between atoms: C_17  and  C_18
REMARK    7  A    between atoms: C_17  and  C_20
REMARK    8  A    between atoms: O_22  and  C_24
REMARK    9  A    between atoms: C_25  and  C_34
REMARK                            x       y       z     vdW  Elec       q    Type
REMARK                         _______ _______ _______ _____ _____    ______ ____
ROOT
ATOM      1  N   UNL     1      33.142  -8.123 -20.126  0.00  0.00    +0.392 N 
ATOM      2  C   UNL     1      31.317  -9.763 -21.773  0.00  0.00    +0.000 C 
ATOM      3  C   UNL     1      31.394  -9.927 -20.244  0.00  0.00    -0.021 C 
ATOM      4  C   UNL     1      30.898 -11.074 -22.465  0.00  0.00    +0.043 C 
ATOM      5  C   UNL     1      32.257 -11.133 -19.843  0.00  0.00    +0.002 C 
ATOM      6  C   UNL     1      32.625  -9.179 -22.340  0.00  0.00    -0.010 C 
ATOM      7  C   UNL     1      31.658 -12.319 -22.003  0.00  0.00    +0.166 C 
ATOM      8  C   UNL     1      31.874  -8.622 -19.588  0.00  0.00    -0.081 C 
ATOM      9  C   UNL     1      31.733 -12.419 -20.481  0.00  0.00    +0.043 C 
ATOM     10  C   UNL     1      33.113  -7.943 -21.578  0.00  0.00    +0.040 C 
ATOM     11  H   UNL     1      33.879  -8.790 -19.896  0.00  0.00    -0.084 HD
ATOM     12  H   UNL     1      33.313  -7.209 -19.708  0.00  0.00    -0.084 HD
ENDROOT
BRANCH  10  14
ATOM     13  O   UNL     1      32.036  -5.852 -21.066  0.00  0.00    -0.252 OA
ATOM     14  C   UNL     1      32.307  -6.719 -21.887  0.00  0.00    +0.297 C 
BRANCH  14  15
ATOM     15  O   UNL     1      31.939  -6.733 -23.200  0.00  0.00    -0.450 OA
BRANCH  15  16
ATOM     16  C   UNL     1      31.011  -5.716 -23.590  0.00  0.00    +0.208 C 
BRANCH  16  17
ATOM     17  C   UNL     1      31.455  -5.071 -24.913  0.00  0.00    +0.044 C 
BRANCH  17  18
ATOM     18  C   UNL     1      32.873  -5.516 -25.339  0.00  0.00    +0.004 C 
ATOM     19  C   UNL     1      33.405  -4.855 -26.603  0.00  0.00    +0.000 C 
ENDBRANCH  17  18
BRANCH  17  20
ATOM     20  C   UNL     1      31.275  -3.542 -24.822  0.00  0.00    +0.004 C 
ATOM     21  C   UNL     1      31.461  -2.983 -23.418  0.00  0.00    +0.000 C 
ENDBRANCH  17  20
ENDBRANCH  16  17
ENDBRANCH  15  16
ENDBRANCH  14  15
ENDBRANCH  10  14
BRANCH   7  22
ATOM     22  O   UNL     1      32.970 -12.313 -22.558  0.00  0.00    -0.478 OA
BRANCH  22  24
ATOM     23 CL   UNL     1      34.292 -16.925 -24.434  0.00  0.00    -0.081 Cl
ATOM     24  C   UNL     1      33.187 -13.134 -23.631  0.00  0.00    +0.149 C 
ATOM     25  C   UNL     1      33.583 -14.461 -23.462  0.00  0.00    +0.110 C 
ATOM     26  C   UNL     1      33.004 -12.620 -24.915  0.00  0.00    +0.038 C 
ATOM     27  C   UNL     1      33.797 -15.272 -24.578  0.00  0.00    +0.070 C 
ATOM     28  C   UNL     1      33.217 -13.430 -26.029  0.00  0.00    +0.004 C 
ATOM     29  C   UNL     1      33.614 -14.757 -25.861  0.00  0.00    +0.012 C 
BRANCH  25  34
ATOM     30  N   UNL     1      32.837 -15.672 -21.471  0.00  0.00    -0.110 NA
ATOM     31  N   UNL     1      34.917 -14.779 -21.422  0.00  0.00    -0.087 NA
ATOM     32  N   UNL     1      33.497 -15.889 -20.325  0.00  0.00    -0.140 N 
ATOM     33  N   UNL     1      34.733 -15.377 -20.251  0.00  0.00    -0.022 NA
ATOM     34  C   UNL     1      33.767 -14.973 -22.127  0.00  0.00    +0.077 C 
ATOM     35  H   UNL     1      33.097 -16.394 -19.581  0.00  0.00    +0.197 HD
ENDBRANCH  25  34
ENDBRANCH  22  24
ENDBRANCH   7  22
TORSDOF 9
ENDMDL
MODEL 3
REMARK VINA RESULT:      -9.2      3.804      9.879
REMARK  Name = 53307207
REMARK  9 active torsions:
REMARK  status: ('A' for Active; 'I' for Inactive)
REMARK    1  A    between atoms: C_7  and  O_22
REMARK    2  A    between atoms: C_10  and  C_14
REMARK    3  A    between atoms: C_14  and  O_15
REMARK    4  A    between atoms: O_15  and  C_16
REMARK    5  A    between atoms: C_16  and  C_17
REMARK    6  A    between atoms: C_17  and  C_18
REMARK    7  A    between atoms: C_17  and  C_20
REMARK    8  A    between atoms: O_22  and  C_24
REMARK    9  A    between atoms: C_25  and  C_34
REMARK                            x       y       z     vdW  Elec       q    Type
REMARK                         _______ _______ _______ _____ _____    ______ ____
ROOT
ATOM      1  N   UNL     1      33.163  -8.015 -20.182  0.00  0.00    +0.392 N 
ATOM      2  C   UNL     1      31.360  -9.760 -21.744  0.00  0.00    +0.000 C 
ATOM      3  C   UNL     1      31.360  -9.768 -20.205  0.00  0.00    -0.021 C 
ATOM      4  C   UNL     1      30.928 -11.121 -22.321  0.00  0.00    +0.043 C 
ATOM      5  C   UNL     1      32.162 -10.953 -19.641  0.00  0.00    +0.002 C 
ATOM      6  C   UNL     1      32.713  -9.276 -22.302  0.00  0.00    -0.010 C 
ATOM      7  C   UNL     1      31.622 -12.335 -21.699  0.00  0.00    +0.166 C 
ATOM      8  C   UNL     1      31.855  -8.419 -19.660  0.00  0.00    -0.081 C 
ATOM      9  C   UNL     1      31.624 -12.281 -20.172  0.00  0.00    +0.043 C 
ATOM     10  C   UNL     1      33.207  -7.984 -21.644  0.00  0.00    +0.040 C 
ATOM     11  H   UNL     1      33.864  -8.677 -19.849  0.00  0.00    -0.084 HD
ATOM     12  H   UNL     1      33.346  -7.068 -19.850  0.00  0.00    -0.084 HD
ENDROOT
BRANCH  10  14
ATOM     13  O   UNL     1      32.110  -5.857 -21.382  0.00  0.00    -0.252 OA
ATOM     14  C   UNL     1      32.459  -6.774 -22.115  0.00  0.00    +0.297 C 
BRANCH  14  15
ATOM     15  O   UNL     1      32.242  -6.865 -23.457  0.00  0.00    -0.450 OA
BRANCH  15  16
ATOM     16  C   UNL     1      31.205  -6.023 -23.971  0.00  0.00    +0.208 C 
BRANCH  16  17
ATOM     17  C   UNL     1      31.703  -5.261 -25.210  0.00  0.00    +0.044 C 
BRANCH  17  18
ATOM     18  C   UNL     1      33.188  -5.553 -25.523  0.00  0.00    +0.004 C 
ATOM     19  C   UNL     1      33.723  -4.900 -26.790  0.00  0.00    +0.000 C 
ENDBRANCH  17  18
BRANCH  17  20
ATOM     20  C   UNL     1      31.375  -3.762 -25.054  0.00  0.00    +0.004 C 
ATOM     21  C   UNL     1      31.448  -3.261 -23.619  0.00  0.00    +0.000 C 
ENDBRANCH  17  20
ENDBRANCH  16  17
ENDBRANCH  15  16
ENDBRANCH  14  15
ENDBRANCH  10  14
BRANCH   7  22
ATOM     22  O   UNL     1      32.958 -12.424 -22.186  0.00  0.00    -0.478 OA
BRANCH  22  24
ATOM     23 CL   UNL     1      34.868 -16.407 -24.837  0.00  0.00    -0.081 Cl
ATOM     24  C   UNL     1      33.524 -13.670 -22.203  0.00  0.00    +0.149 C 
ATOM     25  C   UNL     1      33.858 -14.301 -23.402  0.00  0.00    +0.110 C 
ATOM     26  C   UNL     1      33.768 -14.310 -20.988  0.00  0.00    +0.038 C 
ATOM     27  C   UNL     1      34.434 -15.572 -23.384  0.00  0.00    +0.070 C 
ATOM     28  C   UNL     1      34.343 -15.580 -20.969  0.00  0.00    +0.004 C 
ATOM     29  C   UNL     1      34.677 -16.211 -22.169  0.00  0.00    +0.012 C 
BRANCH  25  34
ATOM     30  N   UNL     1      32.864 -14.144 -25.633  0.00  0.00    -0.110 NA
ATOM     31  N   UNL     1      34.091 -12.380 -24.918  0.00  0.00    -0.087 NA
ATOM     32  N   UNL     1      32.943 -13.140 -26.517  0.00  0.00    -0.140 N 
ATOM     33  N   UNL     1      33.660 -12.074 -26.136  0.00  0.00    -0.022 NA
ATOM     34  C   UNL     1      33.599 -13.622 -24.647  0.00  0.00    +0.077 C 
ATOM     35  H   UNL     1      32.501 -13.183 -27.395  0.00  0.00    +0.197 HD
ENDBRANCH  25  34
ENDBRANCH  22  24
ENDBRANCH   7  22
TORSDOF 9
ENDMDL
MODEL 4
REMARK VINA RESULT:      -8.8      2.925      4.208
REMARK  Name = 53307207
REMARK  9 active torsions:
REMARK  status: ('A' for Active; 'I' for Inactive)
REMARK    1  A    between atoms: C_7  and  O_22
REMARK    2  A    between atoms: C_10  and  C_14
REMARK    3  A    between atoms: C_14  and  O_15
REMARK    4  A    between atoms: O_15  and  C_16
REMARK    5  A    between atoms: C_16  and  C_17
REMARK    6  A    between atoms: C_17  and  C_18
REMARK    7  A    between atoms: C_17  and  C_20
REMARK    8  A    between atoms: O_22  and  C_24
REMARK    9  A    between atoms: C_25  and  C_34
REMARK                            x       y       z     vdW  Elec       q    Type
REMARK                         _______ _______ _______ _____ _____    ______ ____
ROOT
ATOM      1  N   UNL     1      35.218 -18.172 -20.656  0.00  0.00    +0.392 N 
ATOM      2  C   UNL     1      34.466 -19.004 -23.390  0.00  0.00    +0.000 C 
ATOM      3  C   UNL     1      35.863 -18.440 -23.072  0.00  0.00    -0.021 C 
ATOM      4  C   UNL     1      34.056 -18.719 -24.847  0.00  0.00    +0.043 C 
ATOM      5  C   UNL     1      35.981 -16.958 -23.461  0.00  0.00    +0.002 C 
ATOM      6  C   UNL     1      33.420 -18.519 -22.368  0.00  0.00    -0.010 C 
ATOM      7  C   UNL     1      34.271 -17.275 -25.307  0.00  0.00    +0.166 C 
ATOM      8  C   UNL     1      36.217 -18.685 -21.597  0.00  0.00    -0.081 C 
ATOM      9  C   UNL     1      35.658 -16.752 -24.941  0.00  0.00    +0.043 C 
ATOM     10  C   UNL     1      33.874 -18.690 -20.915  0.00  0.00    +0.040 C 
ATOM     11  H   UNL     1      35.195 -17.155 -20.729  0.00  0.00    -0.084 HD
ATOM     12  H   UNL     1      35.490 -18.480 -19.723  0.00  0.00    -0.084 HD
ENDROOT
BRANCH  10  14
ATOM     13  O   UNL     1      32.832 -20.830 -20.563  0.00  0.00    -0.252 OA
ATOM     14  C   UNL     1      33.819 -20.115 -20.456  0.00  0.00    +0.297 C 
BRANCH  14  15
ATOM     15  O   UNL     1      35.021 -20.467 -19.918  0.00  0.00    -0.450 OA
BRANCH  15  16
ATOM     16  C   UNL     1      35.122 -21.825 -19.475  0.00  0.00    +0.208 C 
BRANCH  16  17
ATOM     17  C   UNL     1      35.377 -21.873 -17.960  0.00  0.00    +0.044 C 
BRANCH  17  18
ATOM     18  C   UNL     1      36.884 -21.900 -17.617  0.00  0.00    +0.004 C 
ATOM     19  C   UNL     1      37.211 -22.192 -16.159  0.00  0.00    +0.000 C 
ENDBRANCH  17  18
BRANCH  17  20
ATOM     20  C   UNL     1      34.570 -23.032 -17.341  0.00  0.00    +0.004 C 
ATOM     21  C   UNL     1      33.080 -22.976 -17.646  0.00  0.00    +0.000 C 
ENDBRANCH  17  20
ENDBRANCH  16  17
ENDBRANCH  15  16
ENDBRANCH  14  15
ENDBRANCH  10  14
BRANCH   7  22
ATOM     22  O   UNL     1      33.267 -16.438 -24.741  0.00  0.00    -0.478 OA
BRANCH  22  24
ATOM     23 CL   UNL     1      33.466 -11.467 -23.403  0.00  0.00    -0.081 Cl
ATOM     24  C   UNL     1      33.293 -15.118 -25.100  0.00  0.00    +0.149 C 
ATOM     25  C   UNL     1      33.361 -14.105 -24.143  0.00  0.00    +0.110 C 
ATOM     26  C   UNL     1      33.253 -14.793 -26.456  0.00  0.00    +0.038 C 
ATOM     27  C   UNL     1      33.386 -12.768 -24.543  0.00  0.00    +0.070 C 
ATOM     28  C   UNL     1      33.278 -13.458 -26.856  0.00  0.00    +0.004 C 
ATOM     29  C   UNL     1      33.345 -12.444 -25.898  0.00  0.00    +0.012 C 
BRANCH  25  34
ATOM     30  N   UNL     1      32.314 -14.725 -22.020  0.00  0.00    -0.110 NA
ATOM     31  N   UNL     1      34.571 -14.557 -22.052  0.00  0.00    -0.087 NA
ATOM     32  N   UNL     1      32.897 -14.986 -20.842  0.00  0.00    -0.140 N 
ATOM     33  N   UNL     1      34.234 -14.898 -20.814  0.00  0.00    -0.022 NA
ATOM     34  C   UNL     1      33.403 -14.462 -22.746  0.00  0.00    +0.077 C 
ATOM     35  H   UNL     1      32.375 -15.227 -20.043  0.00  0.00    +0.197 HD
ENDBRANCH  25  34
ENDBRANCH  22  24
ENDBRANCH   7  22
TORSDOF 9
ENDMDL
MODEL 5
REMARK VINA RESULT:      -8.7      1.302      1.857
REMARK  Name = 53307207
REMARK  9 active torsions:
REMARK  status: ('A' for Active; 'I' for Inactive)
REMARK    1  A    between atoms: C_7  and  O_22
REMARK    2  A    between atoms: C_10  and  C_14
REMARK    3  A    between atoms: C_14  and  O_15
REMARK    4  A    between atoms: O_15  and  C_16
REMARK    5  A    between atoms: C_16  and  C_17
REMARK    6  A    between atoms: C_17  and  C_18
REMARK    7  A    between atoms: C_17  and  C_20
REMARK    8  A    between atoms: O_22  and  C_24
REMARK    9  A    between atoms: C_25  and  C_34
REMARK                            x       y       z     vdW  Elec       q    Type
REMARK                         _______ _______ _______ _____ _____    ______ ____
ROOT
ATOM      1  N   UNL     1      34.974 -15.406 -22.616  0.00  0.00    +0.392 N 
ATOM      2  C   UNL     1      32.482 -13.869 -23.015  0.00  0.00    +0.000 C 
ATOM      3  C   UNL     1      33.346 -14.332 -24.203  0.00  0.00    -0.021 C 
ATOM      4  C   UNL     1      31.701 -12.583 -23.347  0.00  0.00    +0.043 C 
ATOM      5  C   UNL     1      34.235 -13.198 -24.737  0.00  0.00    +0.002 C 
ATOM      6  C   UNL     1      33.320 -13.745 -21.728  0.00  0.00    -0.010 C 
ATOM      7  C   UNL     1      32.533 -11.471 -23.992  0.00  0.00    +0.166 C 
ATOM      8  C   UNL     1      34.159 -15.579 -23.821  0.00  0.00    -0.081 C 
ATOM      9  C   UNL     1      33.395 -11.987 -25.142  0.00  0.00    +0.043 C 
ATOM     10  C   UNL     1      34.192 -14.975 -21.457  0.00  0.00    +0.040 C 
ATOM     11  H   UNL     1      35.690 -14.705 -22.805  0.00  0.00    -0.084 HD
ATOM     12  H   UNL     1      35.381 -16.314 -22.389  0.00  0.00    -0.084 HD
ENDROOT
BRANCH  10  14
ATOM     13  O   UNL     1      32.234 -16.077 -20.593  0.00  0.00    -0.252 OA
ATOM     14  C   UNL     1      33.401 -16.145 -20.957  0.00  0.00    +0.297 C 
BRANCH  14  15
ATOM     15  O   UNL     1      34.178 -17.264 -20.979  0.00  0.00    -0.450 OA
BRANCH  15  16
ATOM     16  C   UNL     1      33.468 -18.507 -20.974  0.00  0.00    +0.208 C 
BRANCH  16  17
ATOM     17  C   UNL     1      34.365 -19.634 -21.509  0.00  0.00    +0.044 C 
BRANCH  17  18
ATOM     18  C   UNL     1      35.031 -20.446 -20.375  0.00  0.00    +0.004 C 
ATOM     19  C   UNL     1      36.538 -20.267 -20.249  0.00  0.00    +0.000 C 
ENDBRANCH  17  18
BRANCH  17  20
ATOM     20  C   UNL     1      35.360 -19.054 -22.535  0.00  0.00    +0.004 C 
ATOM     21  C   UNL     1      34.892 -19.167 -23.979  0.00  0.00    +0.000 C 
ENDBRANCH  17  20
ENDBRANCH  16  17
ENDBRANCH  15  16
ENDBRANCH  14  15
ENDBRANCH  10  14
BRANCH   7  22
ATOM     22  O   UNL     1      33.354 -10.854 -23.004  0.00  0.00    -0.478 OA
BRANCH  22  24
ATOM     23 CL   UNL     1      31.869  -6.537 -20.617  0.00  0.00    -0.081 Cl
ATOM     24  C   UNL     1      33.322  -9.487 -22.945  0.00  0.00    +0.149 C 
ATOM     25  C   UNL     1      32.673  -8.819 -21.907  0.00  0.00    +0.110 C 
ATOM     26  C   UNL     1      33.959  -8.760 -23.951  0.00  0.00    +0.038 C 
ATOM     27  C   UNL     1      32.659  -7.423 -21.877  0.00  0.00    +0.070 C 
ATOM     28  C   UNL     1      33.945  -7.366 -23.922  0.00  0.00    +0.004 C 
ATOM     29  C   UNL     1      33.295  -6.697 -22.883  0.00  0.00    +0.012 C 
BRANCH  25  34
ATOM     30  N   UNL     1      30.943 -10.346 -21.092  0.00  0.00    -0.110 NA
ATOM     31  N   UNL     1      32.462  -9.602 -19.586  0.00  0.00    -0.087 NA
ATOM     32  N   UNL     1      30.758 -10.818 -19.851  0.00  0.00    -0.140 N 
ATOM     33  N   UNL     1      31.635 -10.403 -18.926  0.00  0.00    -0.022 NA
ATOM     34  C   UNL     1      32.022  -9.589 -20.876  0.00  0.00    +0.077 C 
ATOM     35  H   UNL     1      30.022 -11.432 -19.631  0.00  0.00    +0.197 HD
ENDBRANCH  25  34
ENDBRANCH  22  24
ENDBRANCH   7  22
TORSDOF 9
ENDMDL
MODEL 6
REMARK VINA RESULT:      -8.2      2.368      3.663
REMARK  Name = 53307207
REMARK  9 active torsions:
REMARK  status: ('A' for Active; 'I' for Inactive)
REMARK    1  A    between atoms: C_7  and  O_22
REMARK    2  A    between atoms: C_10  and  C_14
REMARK    3  A    between atoms: C_14  and  O_15
REMARK    4  A    between atoms: O_15  and  C_16
REMARK    5  A    between atoms: C_16  and  C_17
REMARK    6  A    between atoms: C_17  and  C_18
REMARK    7  A    between atoms: C_17  and  C_20
REMARK    8  A    between atoms: O_22  and  C_24
REMARK    9  A    between atoms: C_25  and  C_34
REMARK                            x       y       z     vdW  Elec       q    Type
REMARK                         _______ _______ _______ _____ _____    ______ ____
ROOT
ATOM      1  N   UNL     1      33.861 -14.399 -23.083  0.00  0.00    +0.392 N 
ATOM      2  C   UNL     1      32.516 -13.177 -20.753  0.00  0.00    +0.000 C 
ATOM      3  C   UNL     1      31.750 -13.510 -22.046  0.00  0.00    -0.021 C 
ATOM      4  C   UNL     1      31.877 -11.994 -20.001  0.00  0.00    +0.043 C 
ATOM      5  C   UNL     1      31.548 -12.265 -22.925  0.00  0.00    +0.002 C 
ATOM      6  C   UNL     1      34.018 -12.971 -21.029  0.00  0.00    -0.010 C 
ATOM      7  C   UNL     1      31.553 -10.777 -20.871  0.00  0.00    +0.166 C 
ATOM      8  C   UNL     1      32.446 -14.652 -22.803  0.00  0.00    -0.081 C 
ATOM      9  C   UNL     1      30.823 -11.162 -22.155  0.00  0.00    +0.043 C 
ATOM     10  C   UNL     1      34.632 -14.087 -21.880  0.00  0.00    +0.040 C 
ATOM     11  H   UNL     1      33.929 -13.610 -23.727  0.00  0.00    -0.084 HD
ATOM     12  H   UNL     1      34.251 -15.251 -23.484  0.00  0.00    -0.084 HD
ENDROOT
BRANCH  10  14
ATOM     13  O   UNL     1      34.866 -15.415 -19.886  0.00  0.00    -0.252 OA
ATOM     14  C   UNL     1      34.839 -15.354 -21.108  0.00  0.00    +0.297 C 
BRANCH  14  15
ATOM     15  O   UNL     1      34.985 -16.397 -21.974  0.00  0.00    -0.450 OA
BRANCH  15  16
ATOM     16  C   UNL     1      35.204 -17.674 -21.367  0.00  0.00    +0.208 C 
BRANCH  16  17
ATOM     17  C   UNL     1      34.440 -18.766 -22.134  0.00  0.00    +0.044 C 
BRANCH  17  18
ATOM     18  C   UNL     1      34.168 -20.015 -21.266  0.00  0.00    +0.004 C 
ATOM     19  C   UNL     1      32.893 -19.961 -20.435  0.00  0.00    +0.000 C 
ENDBRANCH  17  18
BRANCH  17  20
ATOM     20  C   UNL     1      35.169 -19.066 -23.459  0.00  0.00    +0.004 C 
ATOM     21  C   UNL     1      34.368 -18.701 -24.700  0.00  0.00    +0.000 C 
ENDBRANCH  17  20
ENDBRANCH  16  17
ENDBRANCH  15  16
ENDBRANCH  14  15
ENDBRANCH  10  14
BRANCH   7  22
ATOM     22  O   UNL     1      32.755 -10.078 -21.183  0.00  0.00    -0.478 OA
BRANCH  22  24
ATOM     23 CL   UNL     1      33.682  -6.402 -24.671  0.00  0.00    -0.081 Cl
ATOM     24  C   UNL     1      32.622  -8.780 -21.596  0.00  0.00    +0.149 C 
ATOM     25  C   UNL     1      33.173  -8.340 -22.799  0.00  0.00    +0.110 C 
ATOM     26  C   UNL     1      31.916  -7.891 -20.786  0.00  0.00    +0.038 C 
ATOM     27  C   UNL     1      33.019  -7.009 -23.191  0.00  0.00    +0.070 C 
ATOM     28  C   UNL     1      31.762  -6.561 -21.177  0.00  0.00    +0.004 C 
ATOM     29  C   UNL     1      32.314  -6.120 -22.381  0.00  0.00    +0.012 C 
BRANCH  25  34
ATOM     30  N   UNL     1      35.223  -9.237 -23.791  0.00  0.00    -0.110 NA
ATOM     31  N   UNL     1      33.281 -10.283 -24.301  0.00  0.00    -0.087 NA
ATOM     32  N   UNL     1      35.367 -10.284 -24.614  0.00  0.00    -0.140 N 
ATOM     33  N   UNL     1      34.243 -10.934 -24.944  0.00  0.00    -0.022 NA
ATOM     34  C   UNL     1      33.899  -9.276 -23.622  0.00  0.00    +0.077 C 
ATOM     35  H   UNL     1      36.248 -10.559 -24.958  0.00  0.00    +0.197 HD
ENDBRANCH  25  34
ENDBRANCH  22  24
ENDBRANCH   7  22
TORSDOF 9
ENDMDL
MODEL 7
REMARK VINA RESULT:      -8.2      2.335      3.367
REMARK  Name = 53307207
REMARK  9 active torsions:
REMARK  status: ('A' for Active; 'I' for Inactive)
REMARK    1  A    between atoms: C_7  and  O_22
REMARK    2  A    between atoms: C_10  and  C_14
REMARK    3  A    between atoms: C_14  and  O_15
REMARK    4  A    between atoms: O_15  and  C_16
REMARK    5  A    between atoms: C_16  and  C_17
REMARK    6  A    between atoms: C_17  and  C_18
REMARK    7  A    between atoms: C_17  and  C_20
REMARK    8  A    between atoms: O_22  and  C_24
REMARK    9  A    between atoms: C_25  and  C_34
REMARK                            x       y       z     vdW  Elec       q    Type
REMARK                         _______ _______ _______ _____ _____    ______ ____
ROOT
ATOM      1  N   UNL     1      34.848 -15.129 -22.699  0.00  0.00    +0.392 N 
ATOM      2  C   UNL     1      32.331 -13.582 -22.742  0.00  0.00    +0.000 C 
ATOM      3  C   UNL     1      33.113 -13.888 -24.031  0.00  0.00    -0.021 C 
ATOM      4  C   UNL     1      31.525 -12.274 -22.862  0.00  0.00    +0.043 C 
ATOM      5  C   UNL     1      33.961 -12.688 -24.482  0.00  0.00    +0.002 C 
ATOM      6  C   UNL     1      33.253 -13.606 -21.508  0.00  0.00    -0.010 C 
ATOM      7  C   UNL     1      32.308 -11.084 -23.420  0.00  0.00    +0.166 C 
ATOM      8  C   UNL     1      33.954 -15.163 -23.859  0.00  0.00    -0.081 C 
ATOM      9  C   UNL     1      33.092 -11.447 -24.680  0.00  0.00    +0.043 C 
ATOM     10  C   UNL     1      34.145 -14.850 -21.447  0.00  0.00    +0.040 C 
ATOM     11  H   UNL     1      35.548 -14.401 -22.849  0.00  0.00    -0.084 HD
ATOM     12  H   UNL     1      35.273 -16.052 -22.612  0.00  0.00    -0.084 HD
ENDROOT
BRANCH  10  14
ATOM     13  O   UNL     1      32.206 -16.091 -20.745  0.00  0.00    -0.252 OA
ATOM     14  C   UNL     1      33.393 -16.080 -21.041  0.00  0.00    +0.297 C 
BRANCH  14  15
ATOM     15  O   UNL     1      34.232 -17.155 -21.060  0.00  0.00    -0.450 OA
BRANCH  15  16
ATOM     16  C   UNL     1      33.594 -18.432 -21.156  0.00  0.00    +0.208 C 
BRANCH  16  17
ATOM     17  C   UNL     1      34.529 -19.444 -21.837  0.00  0.00    +0.044 C 
BRANCH  17  18
ATOM     18  C   UNL     1      35.434 -20.183 -20.825  0.00  0.00    +0.004 C 
ATOM     19  C   UNL     1      34.699 -21.055 -19.816  0.00  0.00    +0.000 C 
ENDBRANCH  17  18
BRANCH  17  20
ATOM     20  C   UNL     1      35.298 -18.745 -22.976  0.00  0.00    +0.004 C 
ATOM     21  C   UNL     1      34.637 -18.881 -24.340  0.00  0.00    +0.000 C 
ENDBRANCH  17  20
ENDBRANCH  16  17
ENDBRANCH  15  16
ENDBRANCH  14  15
ENDBRANCH  10  14
BRANCH   7  22
ATOM     22  O   UNL     1      33.192 -10.582 -22.422  0.00  0.00    -0.478 OA
BRANCH  22  24
ATOM     23 CL   UNL     1      32.193  -5.826 -20.713  0.00  0.00    -0.081 Cl
ATOM     24  C   UNL     1      32.646  -9.755 -21.477  0.00  0.00    +0.149 C 
ATOM     25  C   UNL     1      32.710  -8.368 -21.600  0.00  0.00    +0.110 C 
ATOM     26  C   UNL     1      32.014 -10.329 -20.374  0.00  0.00    +0.038 C 
ATOM     27  C   UNL     1      32.143  -7.554 -20.618  0.00  0.00    +0.070 C 
ATOM     28  C   UNL     1      31.447  -9.516 -19.392  0.00  0.00    +0.004 C 
ATOM     29  C   UNL     1      31.512  -8.127 -19.515  0.00  0.00    +0.012 C 
BRANCH  25  34
ATOM     30  N   UNL     1      34.694  -7.737 -22.886  0.00  0.00    -0.110 NA
ATOM     31  N   UNL     1      32.676  -7.262 -23.795  0.00  0.00    -0.087 NA
ATOM     32  N   UNL     1      34.763  -7.134 -24.081  0.00  0.00    -0.140 N 
ATOM     33  N   UNL     1      33.591  -6.834 -24.657  0.00  0.00    -0.022 NA
ATOM     34  C   UNL     1      33.368  -7.795 -22.749  0.00  0.00    +0.077 C 
ATOM     35  H   UNL     1      35.623  -6.924 -24.510  0.00  0.00    +0.197 HD
ENDBRANCH  25  34
ENDBRANCH  22  24
ENDBRANCH   7  22
TORSDOF 9
ENDMDL
MODEL 8
REMARK VINA RESULT:      -7.9      3.016      4.832
REMARK  Name = 53307207
REMARK  9 active torsions:
REMARK  status: ('A' for Active; 'I' for Inactive)
REMARK    1  A    between atoms: C_7  and  O_22
REMARK    2  A    between atoms: C_10  and  C_14
REMARK    3  A    between atoms: C_14  and  O_15
REMARK    4  A    between atoms: O_15  and  C_16
REMARK    5  A    between atoms: C_16  and  C_17
REMARK    6  A    between atoms: C_17  and  C_18
REMARK    7  A    between atoms: C_17  and  C_20
REMARK    8  A    between atoms: O_22  and  C_24
REMARK    9  A    between atoms: C_25  and  C_34
REMARK                            x       y       z     vdW  Elec       q    Type
REMARK                         _______ _______ _______ _____ _____    ______ ____
ROOT
ATOM      1  N   UNL     1      35.059 -19.089 -20.064  0.00  0.00    +0.392 N 
ATOM      2  C   UNL     1      34.477 -19.559 -22.922  0.00  0.00    +0.000 C 
ATOM      3  C   UNL     1      35.886 -19.174 -22.437  0.00  0.00    -0.021 C 
ATOM      4  C   UNL     1      34.224 -19.087 -24.367  0.00  0.00    +0.043 C 
ATOM      5  C   UNL     1      36.174 -17.679 -22.651  0.00  0.00    +0.002 C 
ATOM      6  C   UNL     1      33.394 -19.077 -21.938  0.00  0.00    -0.010 C 
ATOM      7  C   UNL     1      34.611 -17.633 -24.648  0.00  0.00    +0.166 C 
ATOM      8  C   UNL     1      36.085 -19.602 -20.974  0.00  0.00    -0.081 C 
ATOM      9  C   UNL     1      36.003 -17.292 -24.119  0.00  0.00    +0.043 C 
ATOM     10  C   UNL     1      33.701 -19.440 -20.481  0.00  0.00    +0.040 C 
ATOM     11  H   UNL     1      35.136 -18.072 -20.026  0.00  0.00    -0.084 HD
ATOM     12  H   UNL     1      35.218 -19.516 -19.151  0.00  0.00    -0.084 HD
ENDROOT
BRANCH  10  14
ATOM     13  O   UNL     1      32.549 -21.547 -20.647  0.00  0.00    -0.252 OA
ATOM     14  C   UNL     1      33.475 -20.891 -20.187  0.00  0.00    +0.297 C 
BRANCH  14  15
ATOM     15  O   UNL     1      34.448 -21.343 -19.347  0.00  0.00    -0.450 OA
BRANCH  15  16
ATOM     16  C   UNL     1      34.053 -22.391 -18.456  0.00  0.00    +0.208 C 
BRANCH  16  17
ATOM     17  C   UNL     1      35.215 -22.759 -17.519  0.00  0.00    +0.044 C 
BRANCH  17  18
ATOM     18  C   UNL     1      34.745 -23.009 -16.068  0.00  0.00    +0.004 C 
ATOM     19  C   UNL     1      33.281 -23.403 -15.921  0.00  0.00    +0.000 C 
ENDBRANCH  17  18
BRANCH  17  20
ATOM     20  C   UNL     1      36.329 -21.701 -17.646  0.00  0.00    +0.004 C 
ATOM     21  C   UNL     1      37.331 -21.721 -16.500  0.00  0.00    +0.000 C 
ENDBRANCH  17  20
ENDBRANCH  16  17
ENDBRANCH  15  16
ENDBRANCH  14  15
ENDBRANCH  10  14
BRANCH   7  22
ATOM     22  O   UNL     1      33.642 -16.761 -24.072  0.00  0.00    -0.478 OA
BRANCH  22  24
ATOM     23 CL   UNL     1      33.454 -11.642 -23.517  0.00  0.00    -0.081 Cl
ATOM     24  C   UNL     1      33.530 -15.515 -24.628  0.00  0.00    +0.149 C 
ATOM     25  C   UNL     1      33.553 -14.363 -23.841  0.00  0.00    +0.110 C 
ATOM     26  C   UNL     1      33.393 -15.410 -26.012  0.00  0.00    +0.038 C 
ATOM     27  C   UNL     1      33.436 -13.107 -24.439  0.00  0.00    +0.070 C 
ATOM     28  C   UNL     1      33.276 -14.156 -26.610  0.00  0.00    +0.004 C 
ATOM     29  C   UNL     1      33.298 -13.004 -25.823  0.00  0.00    +0.012 C 
BRANCH  25  34
ATOM     30  N   UNL     1      32.663 -14.566 -21.570  0.00  0.00    -0.110 NA
ATOM     31  N   UNL     1      34.915 -14.550 -21.803  0.00  0.00    -0.087 NA
ATOM     32  N   UNL     1      33.331 -14.671 -20.414  0.00  0.00    -0.140 N 
ATOM     33  N   UNL     1      34.668 -14.665 -20.504  0.00  0.00    -0.022 NA
ATOM     34  C   UNL     1      33.697 -14.493 -22.412  0.00  0.00    +0.077 C 
ATOM     35  H   UNL     1      32.868 -14.747 -19.549  0.00  0.00    +0.197 HD
ENDBRANCH  25  34
ENDBRANCH  22  24
ENDBRANCH   7  22
TORSDOF 9
ENDMDL
MODEL 9
REMARK VINA RESULT:      -7.8      3.511      4.716
REMARK  Name = 53307207
REMARK  9 active torsions:
REMARK  status: ('A' for Active; 'I' for Inactive)
REMARK    1  A    between atoms: C_7  and  O_22
REMARK    2  A    between atoms: C_10  and  C_14
REMARK    3  A    between atoms: C_14  and  O_15
REMARK    4  A    between atoms: O_15  and  C_16
REMARK    5  A    between atoms: C_16  and  C_17
REMARK    6  A    between atoms: C_17  and  C_18
REMARK    7  A    between atoms: C_17  and  C_20
REMARK    8  A    between atoms: O_22  and  C_24
REMARK    9  A    between atoms: C_25  and  C_34
REMARK                            x       y       z     vdW  Elec       q    Type
REMARK                         _______ _______ _______ _____ _____    ______ ____
ROOT
ATOM      1  N   UNL     1      34.048 -19.218 -21.980  0.00  0.00    +0.392 N 
ATOM      2  C   UNL     1      34.724 -16.742 -20.515  0.00  0.00    +0.000 C 
ATOM      3  C   UNL     1      33.268 -17.210 -20.682  0.00  0.00    -0.021 C 
ATOM      4  C   UNL     1      34.818 -15.210 -20.379  0.00  0.00    +0.043 C 
ATOM      5  C   UNL     1      32.551 -16.451 -21.810  0.00  0.00    +0.002 C 
ATOM      6  C   UNL     1      35.624 -17.299 -21.636  0.00  0.00    -0.010 C 
ATOM      7  C   UNL     1      34.018 -14.420 -21.418  0.00  0.00    +0.166 C 
ATOM      8  C   UNL     1      33.212 -18.733 -20.878  0.00  0.00    -0.081 C 
ATOM      9  C   UNL     1      32.591 -14.943 -21.569  0.00  0.00    +0.043 C 
ATOM     10  C   UNL     1      35.446 -18.804 -21.858  0.00  0.00    +0.040 C 
ATOM     11  H   UNL     1      33.675 -18.852 -22.856  0.00  0.00    -0.084 HD
ATOM     12  H   UNL     1      34.027 -20.237 -21.954  0.00  0.00    -0.084 HD
ENDROOT
BRANCH  10  14
ATOM     13  O   UNL     1      36.978 -19.215 -20.047  0.00  0.00    -0.252 OA
ATOM     14  C   UNL     1      36.092 -19.626 -20.784  0.00  0.00    +0.297 C 
BRANCH  14  15
ATOM     15  O   UNL     1      35.538 -20.872 -20.769  0.00  0.00    -0.450 OA
BRANCH  15  16
ATOM     16  C   UNL     1      36.073 -21.771 -19.792  0.00  0.00    +0.208 C 
BRANCH  16  17
ATOM     17  C   UNL     1      35.162 -21.815 -18.554  0.00  0.00    +0.044 C 
BRANCH  17  18
ATOM     18  C   UNL     1      35.913 -22.283 -17.287  0.00  0.00    +0.004 C 
ATOM     19  C   UNL     1      37.192 -21.518 -16.973  0.00  0.00    +0.000 C 
ENDBRANCH  17  18
BRANCH  17  20
ATOM     20  C   UNL     1      33.899 -22.637 -18.877  0.00  0.00    +0.004 C 
ATOM     21  C   UNL     1      33.085 -23.022 -17.650  0.00  0.00    +0.000 C 
ENDBRANCH  17  20
ENDBRANCH  16  17
ENDBRANCH  15  16
ENDBRANCH  14  15
ENDBRANCH  10  14
BRANCH   7  22
ATOM     22  O   UNL     1      34.691 -14.464 -22.673  0.00  0.00    -0.478 OA
BRANCH  22  24
ATOM     23 CL   UNL     1      32.906 -13.859 -27.467  0.00  0.00    -0.081 Cl
ATOM     24  C   UNL     1      34.204 -13.649 -23.659  0.00  0.00    +0.149 C 
ATOM     25  C   UNL     1      33.851 -14.153 -24.911  0.00  0.00    +0.110 C 
ATOM     26  C   UNL     1      34.063 -12.287 -23.391  0.00  0.00    +0.038 C 
ATOM     27  C   UNL     1      33.359 -13.294 -25.895  0.00  0.00    +0.070 C 
ATOM     28  C   UNL     1      33.571 -11.429 -24.374  0.00  0.00    +0.004 C 
ATOM     29  C   UNL     1      33.218 -11.933 -25.626  0.00  0.00    +0.012 C 
BRANCH  25  34
ATOM     30  N   UNL     1      35.068 -16.272 -24.781  0.00  0.00    -0.110 NA
ATOM     31  N   UNL     1      33.063 -16.291 -25.833  0.00  0.00    -0.087 NA
ATOM     32  N   UNL     1      34.712 -17.473 -25.255  0.00  0.00    -0.140 N 
ATOM     33  N   UNL     1      33.531 -17.532 -25.886  0.00  0.00    -0.022 NA
ATOM     34  C   UNL     1      34.004 -15.564 -25.167  0.00  0.00    +0.077 C 
ATOM     35  H   UNL     1      35.284 -18.267 -25.147  0.00  0.00    +0.197 HD
ENDBRANCH  25  34
ENDBRANCH  22  24
ENDBRANCH   7  22
TORSDOF 9
ENDMDL
