MODEL 1
REMARK VINA RESULT:      -6.6      0.000      0.000
REMARK  Name = 5147
REMARK  2 active torsions:
REMARK  status: ('A' for Active; 'I' for Inactive)
REMARK    1  A    between atoms: C_1  and  C_9
REMARK    2  A    between atoms: C_2  and  O_12
REMARK                            x       y       z     vdW  Elec       q    Type
REMARK                         _______ _______ _______ _____ _____    ______ ____
ROOT
ATOM      1  C   UNL     1      34.470 -21.379 -19.790  0.00  0.00    +0.087 C 
ATOM      2  C   UNL     1      33.819 -20.366 -20.493  0.00  0.00    +0.138 C 
ATOM      3  C   UNL     1      35.853 -21.332 -19.619  0.00  0.00    +0.008 C 
ATOM      4  C   UNL     1      34.553 -19.305 -21.026  0.00  0.00    +0.037 C 
ATOM      5  C   UNL     1      36.587 -20.271 -20.151  0.00  0.00    +0.000 C 
ATOM      6  C   UNL     1      35.936 -19.258 -20.854  0.00  0.00    +0.003 C 
ENDROOT
BRANCH   1   9
ATOM      7  O   UNL     1      34.071 -23.671 -19.428  0.00  0.00    -0.270 OA
ATOM      8  N   UNL     1      32.618 -22.200 -18.435  0.00  0.00    -0.325 N 
ATOM      9  C   UNL     1      33.724 -22.495 -19.226  0.00  0.00    +0.246 C 
ATOM     10  H   UNL     1      32.090 -22.929 -18.038  0.00  0.00    +0.145 HD
ATOM     11  H   UNL     1      32.364 -21.264 -18.275  0.00  0.00    +0.145 HD
ENDBRANCH   1   9
BRANCH   2  12
ATOM     12  O   UNL     1      32.469 -20.393 -20.671  0.00  0.00    -0.505 OA
ATOM     13  H   UNL     1      31.908 -19.944 -20.070  0.00  0.00    +0.292 HD
ENDBRANCH   2  12
TORSDOF 2
ENDMDL
MODEL 2
REMARK VINA RESULT:      -6.4      1.430      2.178
REMARK  Name = 5147
REMARK  2 active torsions:
REMARK  status: ('A' for Active; 'I' for Inactive)
REMARK    1  A    between atoms: C_1  and  C_9
REMARK    2  A    between atoms: C_2  and  O_12
REMARK                            x       y       z     vdW  Elec       q    Type
REMARK                         _______ _______ _______ _____ _____    ______ ____
ROOT
ATOM      1  C   UNL     1      33.941 -21.474 -19.550  0.00  0.00    +0.087 C 
ATOM      2  C   UNL     1      35.322 -21.278 -19.572  0.00  0.00    +0.138 C 
ATOM      3  C   UNL     1      33.103 -20.620 -20.267  0.00  0.00    +0.008 C 
ATOM      4  C   UNL     1      35.864 -20.226 -20.312  0.00  0.00    +0.037 C 
ATOM      5  C   UNL     1      33.645 -19.568 -21.006  0.00  0.00    +0.000 C 
ATOM      6  C   UNL     1      35.026 -19.372 -21.028  0.00  0.00    +0.003 C 
ENDROOT
BRANCH   1   9
ATOM      7  O   UNL     1      33.856 -23.702 -18.791  0.00  0.00    -0.270 OA
ATOM      8  N   UNL     1      32.219 -22.287 -18.030  0.00  0.00    -0.325 N 
ATOM      9  C   UNL     1      33.354 -22.565 -18.786  0.00  0.00    +0.246 C 
ATOM     10  H   UNL     1      31.794 -23.000 -17.501  0.00  0.00    +0.145 HD
ATOM     11  H   UNL     1      31.841 -21.379 -18.027  0.00  0.00    +0.145 HD
ENDBRANCH   1   9
BRANCH   2  12
ATOM     12  O   UNL     1      36.157 -22.101 -18.880  0.00  0.00    -0.505 OA
ATOM     13  H   UNL     1      37.004 -22.305 -19.224  0.00  0.00    +0.292 HD
ENDBRANCH   2  12
TORSDOF 2
ENDMDL
MODEL 3
REMARK VINA RESULT:      -6.3      2.376      3.417
REMARK  Name = 5147
REMARK  2 active torsions:
REMARK  status: ('A' for Active; 'I' for Inactive)
REMARK    1  A    between atoms: C_1  and  C_9
REMARK    2  A    between atoms: C_2  and  O_12
REMARK                            x       y       z     vdW  Elec       q    Type
REMARK                         _______ _______ _______ _____ _____    ______ ____
ROOT
ATOM      1  C   UNL     1      34.760 -20.048 -20.565  0.00  0.00    +0.087 C 
ATOM      2  C   UNL     1      33.527 -20.601 -20.219  0.00  0.00    +0.138 C 
ATOM      3  C   UNL     1      35.938 -20.602 -20.066  0.00  0.00    +0.008 C 
ATOM      4  C   UNL     1      33.474 -21.709 -19.373  0.00  0.00    +0.037 C 
ATOM      5  C   UNL     1      35.885 -21.710 -19.220  0.00  0.00    +0.000 C 
ATOM      6  C   UNL     1      34.653 -22.263 -18.874  0.00  0.00    +0.003 C 
ENDROOT
BRANCH   1   9
ATOM      7  O   UNL     1      34.462 -18.954 -22.629  0.00  0.00    -0.270 OA
ATOM      8  N   UNL     1      35.332 -17.705 -20.913  0.00  0.00    -0.325 N 
ATOM      9  C   UNL     1      34.839 -18.892 -21.447  0.00  0.00    +0.246 C 
ATOM     10  H   UNL     1      35.401 -16.903 -21.480  0.00  0.00    +0.145 HD
ATOM     11  H   UNL     1      35.614 -17.669 -19.972  0.00  0.00    +0.145 HD
ENDBRANCH   1   9
BRANCH   2  12
ATOM     12  O   UNL     1      32.365 -20.075 -20.696  0.00  0.00    -0.505 OA
ATOM     13  H   UNL     1      31.543 -20.444 -20.437  0.00  0.00    +0.292 HD
ENDBRANCH   2  12
TORSDOF 2
ENDMDL
MODEL 4
REMARK VINA RESULT:      -6.3      3.187      4.541
REMARK  Name = 5147
REMARK  2 active torsions:
REMARK  status: ('A' for Active; 'I' for Inactive)
REMARK    1  A    between atoms: C_1  and  C_9
REMARK    2  A    between atoms: C_2  and  O_12
REMARK                            x       y       z     vdW  Elec       q    Type
REMARK                         _______ _______ _______ _____ _____    ______ ____
ROOT
ATOM      1  C   UNL     1      34.871 -19.030 -21.071  0.00  0.00    +0.087 C 
ATOM      2  C   UNL     1      35.742 -19.936 -20.469  0.00  0.00    +0.138 C 
ATOM      3  C   UNL     1      33.493 -19.245 -21.017  0.00  0.00    +0.008 C 
ATOM      4  C   UNL     1      35.236 -21.058 -19.813  0.00  0.00    +0.037 C 
ATOM      5  C   UNL     1      32.987 -20.367 -20.361  0.00  0.00    +0.000 C 
ATOM      6  C   UNL     1      33.859 -21.274 -19.759  0.00  0.00    +0.003 C 
ENDROOT
BRANCH   1   9
ATOM      7  O   UNL     1      35.113 -16.705 -21.360  0.00  0.00    -0.270 OA
ATOM      8  N   UNL     1      36.185 -18.053 -22.875  0.00  0.00    -0.325 N 
ATOM      9  C   UNL     1      35.377 -17.851 -21.761  0.00  0.00    +0.246 C 
ATOM     10  H   UNL     1      36.545 -17.280 -23.368  0.00  0.00    +0.145 HD
ATOM     11  H   UNL     1      36.394 -18.967 -23.172  0.00  0.00    +0.145 HD
ENDBRANCH   1   9
BRANCH   2  12
ATOM     12  O   UNL     1      37.090 -19.744 -20.510  0.00  0.00    -0.505 OA
ATOM     13  H   UNL     1      37.441 -18.967 -20.898  0.00  0.00    +0.292 HD
ENDBRANCH   2  12
TORSDOF 2
ENDMDL
MODEL 5
REMARK VINA RESULT:      -6.1      3.086      4.028
REMARK  Name = 5147
REMARK  2 active torsions:
REMARK  status: ('A' for Active; 'I' for Inactive)
REMARK    1  A    between atoms: C_1  and  C_9
REMARK    2  A    between atoms: C_2  and  O_12
REMARK                            x       y       z     vdW  Elec       q    Type
REMARK                         _______ _______ _______ _____ _____    ______ ____
ROOT
ATOM      1  C   UNL     1      35.022 -18.759 -21.946  0.00  0.00    +0.087 C 
ATOM      2  C   UNL     1      35.121 -17.382 -21.749  0.00  0.00    +0.138 C 
ATOM      3  C   UNL     1      34.835 -19.269 -23.231  0.00  0.00    +0.008 C 
ATOM      4  C   UNL     1      35.033 -16.515 -22.838  0.00  0.00    +0.037 C 
ATOM      5  C   UNL     1      34.747 -18.402 -24.320  0.00  0.00    +0.000 C 
ATOM      6  C   UNL     1      34.846 -17.025 -24.123  0.00  0.00    +0.003 C 
ENDROOT
BRANCH   1   9
ATOM      7  O   UNL     1      34.140 -20.375 -20.478  0.00  0.00    -0.270 OA
ATOM      8  N   UNL     1      36.332 -19.779 -20.162  0.00  0.00    -0.325 N 
ATOM      9  C   UNL     1      35.112 -19.683 -20.824  0.00  0.00    +0.246 C 
ATOM     10  H   UNL     1      36.429 -20.393 -19.398  0.00  0.00    +0.145 HD
ATOM     11  H   UNL     1      37.095 -19.233 -20.456  0.00  0.00    +0.145 HD
ENDBRANCH   1   9
BRANCH   2  12
ATOM     12  O   UNL     1      35.304 -16.865 -20.503  0.00  0.00    -0.505 OA
ATOM     13  H   UNL     1      34.985 -16.007 -20.301  0.00  0.00    +0.292 HD
ENDBRANCH   2  12
TORSDOF 2
ENDMDL
MODEL 6
REMARK VINA RESULT:      -6.0      4.731      5.614
REMARK  Name = 5147
REMARK  2 active torsions:
REMARK  status: ('A' for Active; 'I' for Inactive)
REMARK    1  A    between atoms: C_1  and  C_9
REMARK    2  A    between atoms: C_2  and  O_12
REMARK                            x       y       z     vdW  Elec       q    Type
REMARK                         _______ _______ _______ _____ _____    ______ ____
ROOT
ATOM      1  C   UNL     1      34.648 -16.929 -21.836  0.00  0.00    +0.087 C 
ATOM      2  C   UNL     1      35.197 -17.045 -23.112  0.00  0.00    +0.138 C 
ATOM      3  C   UNL     1      34.188 -18.064 -21.168  0.00  0.00    +0.008 C 
ATOM      4  C   UNL     1      35.286 -18.297 -23.720  0.00  0.00    +0.037 C 
ATOM      5  C   UNL     1      34.277 -19.316 -21.776  0.00  0.00    +0.000 C 
ATOM      6  C   UNL     1      34.827 -19.432 -23.052  0.00  0.00    +0.003 C 
ENDROOT
BRANCH   1   9
ATOM      7  O   UNL     1      34.937 -15.464 -20.015  0.00  0.00    -0.270 OA
ATOM      8  N   UNL     1      34.010 -14.578 -21.916  0.00  0.00    -0.325 N 
ATOM      9  C   UNL     1      34.545 -15.632 -21.182  0.00  0.00    +0.246 C 
ATOM     10  H   UNL     1      33.924 -13.687 -21.507  0.00  0.00    +0.145 HD
ATOM     11  H   UNL     1      33.716 -14.725 -22.843  0.00  0.00    +0.145 HD
ENDBRANCH   1   9
BRANCH   2  12
ATOM     12  O   UNL     1      35.652 -15.949 -23.781  0.00  0.00    -0.505 OA
ATOM     13  H   UNL     1      35.043 -15.328 -24.130  0.00  0.00    +0.292 HD
ENDBRANCH   2  12
TORSDOF 2
ENDMDL
MODEL 7
REMARK VINA RESULT:      -6.0      6.443      7.646
REMARK  Name = 5147
REMARK  2 active torsions:
REMARK  status: ('A' for Active; 'I' for Inactive)
REMARK    1  A    between atoms: C_1  and  C_9
REMARK    2  A    between atoms: C_2  and  O_12
REMARK                            x       y       z     vdW  Elec       q    Type
REMARK                         _______ _______ _______ _____ _____    ______ ____
ROOT
ATOM      1  C   UNL     1      29.500 -23.803 -15.765  0.00  0.00    +0.087 C 
ATOM      2  C   UNL     1      29.578 -24.754 -14.748  0.00  0.00    +0.138 C 
ATOM      3  C   UNL     1      30.624 -23.049 -16.103  0.00  0.00    +0.008 C 
ATOM      4  C   UNL     1      30.781 -24.950 -14.069  0.00  0.00    +0.037 C 
ATOM      5  C   UNL     1      31.827 -23.246 -15.425  0.00  0.00    +0.000 C 
ATOM      6  C   UNL     1      31.905 -24.197 -14.408  0.00  0.00    +0.003 C 
ENDROOT
BRANCH   1   9
ATOM      7  O   UNL     1      27.853 -24.386 -17.343  0.00  0.00    -0.270 OA
ATOM      8  N   UNL     1      27.519 -22.443 -16.170  0.00  0.00    -0.325 N 
ATOM      9  C   UNL     1      28.255 -23.581 -16.486  0.00  0.00    +0.246 C 
ATOM     10  H   UNL     1      26.672 -22.260 -16.637  0.00  0.00    +0.145 HD
ATOM     11  H   UNL     1      27.845 -21.823 -15.480  0.00  0.00    +0.145 HD
ENDBRANCH   1   9
BRANCH   2  12
ATOM     12  O   UNL     1      28.493 -25.500 -14.402  0.00  0.00    -0.505 OA
ATOM     13  H   UNL     1      28.545 -26.096 -13.682  0.00  0.00    +0.292 HD
ENDBRANCH   2  12
TORSDOF 2
ENDMDL
MODEL 8
REMARK VINA RESULT:      -5.9      1.622      2.598
REMARK  Name = 5147
REMARK  2 active torsions:
REMARK  status: ('A' for Active; 'I' for Inactive)
REMARK    1  A    between atoms: C_1  and  C_9
REMARK    2  A    between atoms: C_2  and  O_12
REMARK                            x       y       z     vdW  Elec       q    Type
REMARK                         _______ _______ _______ _____ _____    ______ ____
ROOT
ATOM      1  C   UNL     1      34.480 -20.264 -20.510  0.00  0.00    +0.087 C 
ATOM      2  C   UNL     1      35.831 -20.096 -20.206  0.00  0.00    +0.138 C 
ATOM      3  C   UNL     1      33.908 -19.551 -21.564  0.00  0.00    +0.008 C 
ATOM      4  C   UNL     1      36.609 -19.215 -20.958  0.00  0.00    +0.037 C 
ATOM      5  C   UNL     1      34.686 -18.671 -22.315  0.00  0.00    +0.000 C 
ATOM      6  C   UNL     1      36.036 -18.503 -22.012  0.00  0.00    +0.003 C 
ENDROOT
BRANCH   1   9
ATOM      7  O   UNL     1      32.512 -20.851 -19.358  0.00  0.00    -0.270 OA
ATOM      8  N   UNL     1      34.164 -22.439 -19.459  0.00  0.00    -0.325 N 
ATOM      9  C   UNL     1      33.649 -21.177 -19.739  0.00  0.00    +0.246 C 
ATOM     10  H   UNL     1      33.630 -23.084 -18.940  0.00  0.00    +0.145 HD
ATOM     11  H   UNL     1      35.060 -22.687 -19.779  0.00  0.00    +0.145 HD
ENDBRANCH   1   9
BRANCH   2  12
ATOM     12  O   UNL     1      36.408 -20.781 -19.181  0.00  0.00    -0.505 OA
ATOM     13  H   UNL     1      37.329 -20.705 -19.027  0.00  0.00    +0.292 HD
ENDBRANCH   2  12
TORSDOF 2
ENDMDL
MODEL 9
REMARK VINA RESULT:      -5.9      4.604      5.987
REMARK  Name = 5147
REMARK  2 active torsions:
REMARK  status: ('A' for Active; 'I' for Inactive)
REMARK    1  A    between atoms: C_1  and  C_9
REMARK    2  A    between atoms: C_2  and  O_12
REMARK                            x       y       z     vdW  Elec       q    Type
REMARK                         _______ _______ _______ _____ _____    ______ ____
ROOT
ATOM      1  C   UNL     1      34.681 -17.201 -23.535  0.00  0.00    +0.087 C 
ATOM      2  C   UNL     1      34.737 -18.594 -23.578  0.00  0.00    +0.138 C 
ATOM      3  C   UNL     1      34.863 -16.532 -22.325  0.00  0.00    +0.008 C 
ATOM      4  C   UNL     1      34.977 -19.317 -22.410  0.00  0.00    +0.037 C 
ATOM      5  C   UNL     1      35.102 -17.256 -21.157  0.00  0.00    +0.000 C 
ATOM      6  C   UNL     1      35.159 -18.648 -21.200  0.00  0.00    +0.003 C 
ENDROOT
BRANCH   1   9
ATOM      7  O   UNL     1      34.904 -16.769 -25.839  0.00  0.00    -0.270 OA
ATOM      8  N   UNL     1      33.629 -15.295 -24.630  0.00  0.00    -0.325 N 
ATOM      9  C   UNL     1      34.432 -16.426 -24.742  0.00  0.00    +0.246 C 
ATOM     10  H   UNL     1      33.440 -14.746 -25.425  0.00  0.00    +0.145 HD
ATOM     11  H   UNL     1      33.253 -15.044 -23.757  0.00  0.00    +0.145 HD
ENDBRANCH   1   9
BRANCH   2  12
ATOM     12  O   UNL     1      34.562 -19.266 -24.750  0.00  0.00    -0.505 OA
ATOM     13  H   UNL     1      34.097 -18.861 -25.456  0.00  0.00    +0.292 HD
ENDBRANCH   2  12
TORSDOF 2
ENDMDL
