MODEL 1
REMARK VINA RESULT:     -10.8      0.000      0.000
REMARK  Name = 10067695
REMARK  7 active torsions:
REMARK  status: ('A' for Active; 'I' for Inactive)
REMARK    1  A    between atoms: N_1  and  C_18
REMARK    2  A    between atoms: C_2  and  C_9
REMARK    3  A    between atoms: C_3  and  O_7
REMARK    4  A    between atoms: C_9  and  S_10
REMARK    5  A    between atoms: S_10  and  C_11
REMARK    6  A    between atoms: C_11  and  C_12
REMARK    7  A    between atoms: C_18  and  C_23
REMARK                            x       y       z     vdW  Elec       q    Type
REMARK                         _______ _______ _______ _____ _____    ______ ____
ROOT
ATOM      1  N   UNL     1      34.246 -17.218 -21.813  0.00  0.00    +0.391 N 
ATOM      2  C   UNL     1      33.779 -15.115 -22.632  0.00  0.00    +0.015 C 
ATOM      3  C   UNL     1      34.218 -14.935 -21.176  0.00  0.00    +0.089 C 
ATOM      4  C   UNL     1      34.428 -16.434 -23.035  0.00  0.00    -0.073 C 
ATOM      5  C   UNL     1      34.632 -16.333 -20.708  0.00  0.00    -0.047 C 
ATOM      6  H   UNL     1      33.278 -17.526 -21.716  0.00  0.00    -0.079 HD
ENDROOT
BRANCH   3   7
ATOM      7  O   UNL     1      33.130 -14.441 -20.411  0.00  0.00    -0.387 OA
ATOM      8  H   UNL     1      33.243 -13.488 -20.265  0.00  0.00    +0.210 HD
ENDBRANCH   3   7
BRANCH   2   9
ATOM      9  C   UNL     1      34.190 -13.956 -23.529  0.00  0.00    +0.058 C 
BRANCH   9  10
ATOM     10  S   UNL     1      33.010 -12.590 -23.378  0.00  0.00    -0.135 S 
BRANCH  10  11
ATOM     11  C   UNL     1      33.847 -11.397 -24.449  0.00  0.00    +0.084 C 
BRANCH  11  12
ATOM     12  C   UNL     1      33.823 -10.006 -23.876  0.00  0.00    -0.011 C 
ATOM     13  C   UNL     1      32.781  -9.629 -23.038  0.00  0.00    -0.003 C 
ATOM     14  C   UNL     1      34.841  -9.117 -24.193  0.00  0.00    -0.003 C 
ATOM     15  C   UNL     1      32.759  -8.339 -22.507  0.00  0.00    -0.000 C 
ATOM     16  C   UNL     1      34.818  -7.828 -23.661  0.00  0.00    -0.000 C 
ATOM     17  C   UNL     1      33.777  -7.439 -22.818  0.00  0.00    -0.000 C 
ENDBRANCH  11  12
ENDBRANCH  10  11
ENDBRANCH   9  10
ENDBRANCH   2   9
BRANCH   1  18
ATOM     18  C   UNL     1      35.008 -18.459 -21.828  0.00  0.00    -0.047 C 
BRANCH  18  23
ATOM     19  N   UNL     1      32.776 -20.881 -20.234  0.00  0.00    -0.323 N 
ATOM     20  N   UNL     1      36.250 -20.527 -19.773  0.00  0.00    -0.247 NA
ATOM     21  N   UNL     1      35.559 -22.369 -18.339  0.00  0.00    -0.232 NA
ATOM     22  N   UNL     1      33.282 -23.096 -18.212  0.00  0.00    -0.345 N 
ATOM     23  C   UNL     1      34.328 -19.544 -21.044  0.00  0.00    -0.014 C 
ATOM     24  C   UNL     1      34.952 -20.422 -20.148  0.00  0.00    +0.076 C 
ATOM     25  C   UNL     1      32.997 -19.831 -21.090  0.00  0.00    +0.053 C 
ATOM     26  C   UNL     1      33.957 -21.258 -19.648  0.00  0.00    +0.163 C 
ATOM     27  C   UNL     1      34.272 -22.244 -18.731  0.00  0.00    +0.123 C 
ATOM     28  C   UNL     1      36.457 -21.513 -18.877  0.00  0.00    +0.251 C 
ATOM     29  H   UNL     1      31.901 -21.300 -20.065  0.00  0.00    +0.148 HD
ATOM     30  H   UNL     1      33.524 -23.792 -17.559  0.00  0.00    +0.143 HD
ATOM     31  H   UNL     1      32.347 -22.998 -18.502  0.00  0.00    +0.143 HD
ENDBRANCH  18  23
ENDBRANCH   1  18
TORSDOF 7
ENDMDL
MODEL 2
REMARK VINA RESULT:     -10.4      3.862     10.243
REMARK  Name = 10067695
REMARK  7 active torsions:
REMARK  status: ('A' for Active; 'I' for Inactive)
REMARK    1  A    between atoms: N_1  and  C_18
REMARK    2  A    between atoms: C_2  and  C_9
REMARK    3  A    between atoms: C_3  and  O_7
REMARK    4  A    between atoms: C_9  and  S_10
REMARK    5  A    between atoms: S_10  and  C_11
REMARK    6  A    between atoms: C_11  and  C_12
REMARK    7  A    between atoms: C_18  and  C_23
REMARK                            x       y       z     vdW  Elec       q    Type
REMARK                         _______ _______ _______ _____ _____    ______ ____
ROOT
ATOM      1  N   UNL     1      33.235 -13.725 -22.387  0.00  0.00    +0.391 N 
ATOM      2  C   UNL     1      34.836 -15.379 -22.512  0.00  0.00    +0.015 C 
ATOM      3  C   UNL     1      34.040 -15.629 -21.228  0.00  0.00    +0.089 C 
ATOM      4  C   UNL     1      33.861 -14.596 -23.382  0.00  0.00    -0.073 C 
ATOM      5  C   UNL     1      32.918 -14.589 -21.243  0.00  0.00    -0.047 C 
ATOM      6  H   UNL     1      33.864 -12.971 -22.113  0.00  0.00    -0.079 HD
ENDROOT
BRANCH   3   7
ATOM      7  O   UNL     1      34.887 -15.451 -20.103  0.00  0.00    -0.387 OA
ATOM      8  H   UNL     1      35.658 -16.035 -20.183  0.00  0.00    +0.210 HD
ENDBRANCH   3   7
BRANCH   2   9
ATOM      9  C   UNL     1      35.323 -16.659 -23.175  0.00  0.00    +0.058 C 
BRANCH   9  10
ATOM     10  S   UNL     1      34.405 -18.088 -22.544  0.00  0.00    -0.135 S 
BRANCH  10  11
ATOM     11  C   UNL     1      35.712 -18.818 -21.531  0.00  0.00    +0.084 C 
BRANCH  11  12
ATOM     12  C   UNL     1      35.205 -19.948 -20.678  0.00  0.00    -0.011 C 
ATOM     13  C   UNL     1      33.836 -20.141 -20.541  0.00  0.00    -0.003 C 
ATOM     14  C   UNL     1      36.111 -20.783 -20.038  0.00  0.00    -0.003 C 
ATOM     15  C   UNL     1      33.366 -21.190 -19.750  0.00  0.00    -0.000 C 
ATOM     16  C   UNL     1      35.640 -21.832 -19.247  0.00  0.00    -0.000 C 
ATOM     17  C   UNL     1      34.267 -22.035 -19.104  0.00  0.00    -0.000 C 
ENDBRANCH  11  12
ENDBRANCH  10  11
ENDBRANCH   9  10
ENDBRANCH   2   9
BRANCH   1  18
ATOM     18  C   UNL     1      32.064 -13.034 -22.907  0.00  0.00    -0.047 C 
BRANCH  18  23
ATOM     19  N   UNL     1      31.705  -9.517 -21.958  0.00  0.00    -0.323 N 
ATOM     20  N   UNL     1      34.117 -10.935 -24.099  0.00  0.00    -0.247 NA
ATOM     21  N   UNL     1      34.599  -8.550 -24.017  0.00  0.00    -0.232 NA
ATOM     22  N   UNL     1      33.287  -7.031 -22.712  0.00  0.00    -0.345 N 
ATOM     23  C   UNL     1      32.143 -11.551 -22.684  0.00  0.00    -0.014 C 
ATOM     24  C   UNL     1      33.087 -10.686 -23.253  0.00  0.00    +0.076 C 
ATOM     25  C   UNL     1      31.301 -10.828 -21.894  0.00  0.00    +0.053 C 
ATOM     26  C   UNL     1      32.796  -9.408 -22.783  0.00  0.00    +0.163 C 
ATOM     27  C   UNL     1      33.567  -8.329 -23.174  0.00  0.00    +0.123 C 
ATOM     28  C   UNL     1      34.808  -9.823 -24.423  0.00  0.00    +0.251 C 
ATOM     29  H   UNL     1      31.277  -8.769 -21.484  0.00  0.00    +0.148 HD
ATOM     30  H   UNL     1      33.847  -6.274 -23.002  0.00  0.00    +0.143 HD
ATOM     31  H   UNL     1      32.533  -6.879 -22.099  0.00  0.00    +0.143 HD
ENDBRANCH  18  23
ENDBRANCH   1  18
TORSDOF 7
ENDMDL
MODEL 3
REMARK VINA RESULT:     -10.4      3.972     10.325
REMARK  Name = 10067695
REMARK  7 active torsions:
REMARK  status: ('A' for Active; 'I' for Inactive)
REMARK    1  A    between atoms: N_1  and  C_18
REMARK    2  A    between atoms: C_2  and  C_9
REMARK    3  A    between atoms: C_3  and  O_7
REMARK    4  A    between atoms: C_9  and  S_10
REMARK    5  A    between atoms: S_10  and  C_11
REMARK    6  A    between atoms: C_11  and  C_12
REMARK    7  A    between atoms: C_18  and  C_23
REMARK                            x       y       z     vdW  Elec       q    Type
REMARK                         _______ _______ _______ _____ _____    ______ ____
ROOT
ATOM      1  N   UNL     1      33.514 -13.426 -22.813  0.00  0.00    +0.391 N 
ATOM      2  C   UNL     1      34.281 -14.959 -21.272  0.00  0.00    +0.015 C 
ATOM      3  C   UNL     1      32.754 -14.942 -21.156  0.00  0.00    +0.089 C 
ATOM      4  C   UNL     1      34.532 -14.471 -22.693  0.00  0.00    -0.073 C 
ATOM      5  C   UNL     1      32.280 -14.007 -22.271  0.00  0.00    -0.047 C 
ATOM      6  H   UNL     1      33.784 -12.591 -22.294  0.00  0.00    -0.079 HD
ENDROOT
BRANCH   3   7
ATOM      7  O   UNL     1      32.382 -14.446 -19.879  0.00  0.00    -0.387 OA
ATOM      8  H   UNL     1      31.871 -13.627 -19.986  0.00  0.00    +0.210 HD
ENDBRANCH   3   7
BRANCH   2   9
ATOM      9  C   UNL     1      34.887 -16.329 -21.002  0.00  0.00    +0.058 C 
BRANCH   9  10
ATOM     10  S   UNL     1      34.813 -17.358 -22.491  0.00  0.00    -0.135 S 
BRANCH  10  11
ATOM     11  C   UNL     1      35.810 -18.747 -21.904  0.00  0.00    +0.084 C 
BRANCH  11  12
ATOM     12  C   UNL     1      35.013 -19.699 -21.055  0.00  0.00    -0.011 C 
ATOM     13  C   UNL     1      35.672 -20.662 -20.302  0.00  0.00    -0.003 C 
ATOM     14  C   UNL     1      33.628 -19.605 -21.035  0.00  0.00    -0.003 C 
ATOM     15  C   UNL     1      34.933 -21.545 -19.515  0.00  0.00    -0.000 C 
ATOM     16  C   UNL     1      32.889 -20.488 -20.248  0.00  0.00    -0.000 C 
ATOM     17  C   UNL     1      33.541 -21.458 -19.487  0.00  0.00    -0.000 C 
ENDBRANCH  11  12
ENDBRANCH  10  11
ENDBRANCH   9  10
ENDBRANCH   2   9
BRANCH   1  18
ATOM     18  C   UNL     1      33.356 -12.954 -24.181  0.00  0.00    -0.047 C 
BRANCH  18  23
ATOM     19  N   UNL     1      34.961  -9.793 -25.087  0.00  0.00    -0.323 N 
ATOM     20  N   UNL     1      32.519 -10.335 -22.607  0.00  0.00    -0.247 NA
ATOM     21  N   UNL     1      33.034  -7.956 -22.545  0.00  0.00    -0.232 NA
ATOM     22  N   UNL     1      34.643  -6.965 -24.014  0.00  0.00    -0.345 N 
ATOM     23  C   UNL     1      33.850 -11.546 -24.349  0.00  0.00    -0.014 C 
ATOM     24  C   UNL     1      33.428 -10.436 -23.607  0.00  0.00    +0.076 C 
ATOM     25  C   UNL     1      34.789 -11.145 -25.252  0.00  0.00    +0.053 C 
ATOM     26  C   UNL     1      34.139  -9.339 -24.087  0.00  0.00    +0.163 C 
ATOM     27  C   UNL     1      33.934  -8.083 -23.545  0.00  0.00    +0.123 C 
ATOM     28  C   UNL     1      32.391  -9.075 -22.142  0.00  0.00    +0.251 C 
ATOM     29  H   UNL     1      35.581  -9.233 -25.608  0.00  0.00    +0.148 HD
ATOM     30  H   UNL     1      34.485  -6.078 -23.615  0.00  0.00    +0.143 HD
ATOM     31  H   UNL     1      35.298  -7.066 -24.741  0.00  0.00    +0.143 HD
ENDBRANCH  18  23
ENDBRANCH   1  18
TORSDOF 7
ENDMDL
MODEL 4
REMARK VINA RESULT:     -10.3      0.855      1.846
REMARK  Name = 10067695
REMARK  7 active torsions:
REMARK  status: ('A' for Active; 'I' for Inactive)
REMARK    1  A    between atoms: N_1  and  C_18
REMARK    2  A    between atoms: C_2  and  C_9
REMARK    3  A    between atoms: C_3  and  O_7
REMARK    4  A    between atoms: C_9  and  S_10
REMARK    5  A    between atoms: S_10  and  C_11
REMARK    6  A    between atoms: C_11  and  C_12
REMARK    7  A    between atoms: C_18  and  C_23
REMARK                            x       y       z     vdW  Elec       q    Type
REMARK                         _______ _______ _______ _____ _____    ______ ____
ROOT
ATOM      1  N   UNL     1      34.844 -16.991 -22.294  0.00  0.00    +0.391 N 
ATOM      2  C   UNL     1      33.558 -15.327 -23.239  0.00  0.00    +0.015 C 
ATOM      3  C   UNL     1      33.812 -14.918 -21.785  0.00  0.00    +0.089 C 
ATOM      4  C   UNL     1      34.726 -16.254 -23.553  0.00  0.00    -0.073 C 
ATOM      5  C   UNL     1      34.764 -15.982 -21.232  0.00  0.00    -0.047 C 
ATOM      6  H   UNL     1      34.098 -17.680 -22.202  0.00  0.00    -0.079 HD
ENDROOT
BRANCH   3   7
ATOM      7  O   UNL     1      32.584 -14.910 -21.074  0.00  0.00    -0.387 OA
ATOM      8  H   UNL     1      32.495 -15.737 -20.573  0.00  0.00    +0.210 HD
ENDBRANCH   3   7
BRANCH   2   9
ATOM      9  C   UNL     1      33.472 -14.142 -24.189  0.00  0.00    +0.058 C 
BRANCH   9  10
ATOM     10  S   UNL     1      33.121 -12.620 -23.272  0.00  0.00    -0.135 S 
BRANCH  10  11
ATOM     11  C   UNL     1      33.824 -11.435 -24.443  0.00  0.00    +0.084 C 
BRANCH  11  12
ATOM     12  C   UNL     1      33.799 -10.029 -23.912  0.00  0.00    -0.011 C 
ATOM     13  C   UNL     1      32.718  -9.603 -23.151  0.00  0.00    -0.003 C 
ATOM     14  C   UNL     1      34.857  -9.173 -24.188  0.00  0.00    -0.003 C 
ATOM     15  C   UNL     1      32.695  -8.298 -22.658  0.00  0.00    -0.000 C 
ATOM     16  C   UNL     1      34.834  -7.869 -23.695  0.00  0.00    -0.000 C 
ATOM     17  C   UNL     1      33.753  -7.431 -22.930  0.00  0.00    -0.000 C 
ENDBRANCH  11  12
ENDBRANCH  10  11
ENDBRANCH   9  10
ENDBRANCH   2   9
BRANCH   1  18
ATOM     18  C   UNL     1      36.064 -17.782 -22.222  0.00  0.00    -0.047 C 
BRANCH  18  23
ATOM     19  N   UNL     1      36.417 -20.530 -19.831  0.00  0.00    -0.323 N 
ATOM     20  N   UNL     1      33.469 -19.400 -21.393  0.00  0.00    -0.247 NA
ATOM     21  N   UNL     1      32.811 -21.256 -19.962  0.00  0.00    -0.232 NA
ATOM     22  N   UNL     1      34.394 -22.454 -18.625  0.00  0.00    -0.345 N 
ATOM     23  C   UNL     1      35.928 -18.938 -21.274  0.00  0.00    -0.014 C 
ATOM     24  C   UNL     1      34.737 -19.604 -20.959  0.00  0.00    +0.076 C 
ATOM     25  C   UNL     1      36.951 -19.511 -20.580  0.00  0.00    +0.053 C 
ATOM     26  C   UNL     1      35.065 -20.604 -20.047  0.00  0.00    +0.163 C 
ATOM     27  C   UNL     1      34.083 -21.438 -19.544  0.00  0.00    +0.123 C 
ATOM     28  C   UNL     1      32.585 -20.261 -20.849  0.00  0.00    +0.251 C 
ATOM     29  H   UNL     1      36.927 -21.118 -19.229  0.00  0.00    +0.148 HD
ATOM     30  H   UNL     1      33.682 -23.040 -18.278  0.00  0.00    +0.143 HD
ATOM     31  H   UNL     1      35.323 -22.581 -18.327  0.00  0.00    +0.143 HD
ENDBRANCH  18  23
ENDBRANCH   1  18
TORSDOF 7
ENDMDL
MODEL 5
REMARK VINA RESULT:     -10.3      4.043     10.151
REMARK  Name = 10067695
REMARK  7 active torsions:
REMARK  status: ('A' for Active; 'I' for Inactive)
REMARK    1  A    between atoms: N_1  and  C_18
REMARK    2  A    between atoms: C_2  and  C_9
REMARK    3  A    between atoms: C_3  and  O_7
REMARK    4  A    between atoms: C_9  and  S_10
REMARK    5  A    between atoms: S_10  and  C_11
REMARK    6  A    between atoms: C_11  and  C_12
REMARK    7  A    between atoms: C_18  and  C_23
REMARK                            x       y       z     vdW  Elec       q    Type
REMARK                         _______ _______ _______ _____ _____    ______ ____
ROOT
ATOM      1  N   UNL     1      33.245 -13.650 -22.369  0.00  0.00    +0.391 N 
ATOM      2  C   UNL     1      34.640 -15.478 -22.522  0.00  0.00    +0.015 C 
ATOM      3  C   UNL     1      33.945 -15.565 -21.161  0.00  0.00    +0.089 C 
ATOM      4  C   UNL     1      33.679 -14.640 -23.355  0.00  0.00    -0.073 C 
ATOM      5  C   UNL     1      32.945 -14.407 -21.148  0.00  0.00    -0.047 C 
ATOM      6  H   UNL     1      33.975 -12.957 -22.201  0.00  0.00    -0.079 HD
ENDROOT
BRANCH   3   7
ATOM      7  O   UNL     1      34.907 -15.421 -20.127  0.00  0.00    -0.387 OA
ATOM      8  H   UNL     1      35.781 -15.258 -20.518  0.00  0.00    +0.210 HD
ENDBRANCH   3   7
BRANCH   2   9
ATOM      9  C   UNL     1      34.923 -16.840 -23.139  0.00  0.00    +0.058 C 
BRANCH   9  10
ATOM     10  S   UNL     1      35.586 -17.975 -21.891  0.00  0.00    -0.135 S 
BRANCH  10  11
ATOM     11  C   UNL     1      34.118 -19.005 -21.663  0.00  0.00    +0.084 C 
BRANCH  11  12
ATOM     12  C   UNL     1      34.352 -20.116 -20.676  0.00  0.00    -0.011 C 
ATOM     13  C   UNL     1      35.653 -20.489 -20.362  0.00  0.00    -0.003 C 
ATOM     14  C   UNL     1      33.266 -20.754 -20.091  0.00  0.00    -0.003 C 
ATOM     15  C   UNL     1      35.870 -21.520 -19.446  0.00  0.00    -0.000 C 
ATOM     16  C   UNL     1      33.484 -21.783 -19.176  0.00  0.00    -0.000 C 
ATOM     17  C   UNL     1      34.786 -22.166 -18.853  0.00  0.00    -0.000 C 
ENDBRANCH  11  12
ENDBRANCH  10  11
ENDBRANCH   9  10
ENDBRANCH   2   9
BRANCH   1  18
ATOM     18  C   UNL     1      32.112 -12.861 -22.831  0.00  0.00    -0.047 C 
BRANCH  18  23
ATOM     19  N   UNL     1      32.714  -9.254 -22.685  0.00  0.00    -0.323 N 
ATOM     20  N   UNL     1      31.554 -11.350 -20.102  0.00  0.00    -0.247 NA
ATOM     21  N   UNL     1      31.668  -9.109 -19.158  0.00  0.00    -0.232 NA
ATOM     22  N   UNL     1      32.397  -7.224 -20.442  0.00  0.00    -0.345 N 
ATOM     23  C   UNL     1      32.272 -11.404 -22.501  0.00  0.00    -0.014 C 
ATOM     24  C   UNL     1      32.003 -10.810 -21.262  0.00  0.00    +0.076 C 
ATOM     25  C   UNL     1      32.707 -10.445 -23.366  0.00  0.00    +0.053 C 
ATOM     26  C   UNL     1      32.287  -9.454 -21.397  0.00  0.00    +0.163 C 
ATOM     27  C   UNL     1      32.114  -8.596 -20.326  0.00  0.00    +0.123 C 
ATOM     28  C   UNL     1      31.419 -10.437 -19.118  0.00  0.00    +0.251 C 
ATOM     29  H   UNL     1      32.984  -8.386 -23.063  0.00  0.00    +0.148 HD
ATOM     30  H   UNL     1      32.269  -6.628 -19.668  0.00  0.00    +0.143 HD
ATOM     31  H   UNL     1      32.722  -6.859 -21.295  0.00  0.00    +0.143 HD
ENDBRANCH  18  23
ENDBRANCH   1  18
TORSDOF 7
ENDMDL
MODEL 6
REMARK VINA RESULT:     -10.3      3.339      5.476
REMARK  Name = 10067695
REMARK  7 active torsions:
REMARK  status: ('A' for Active; 'I' for Inactive)
REMARK    1  A    between atoms: N_1  and  C_18
REMARK    2  A    between atoms: C_2  and  C_9
REMARK    3  A    between atoms: C_3  and  O_7
REMARK    4  A    between atoms: C_9  and  S_10
REMARK    5  A    between atoms: S_10  and  C_11
REMARK    6  A    between atoms: C_11  and  C_12
REMARK    7  A    between atoms: C_18  and  C_23
REMARK                            x       y       z     vdW  Elec       q    Type
REMARK                         _______ _______ _______ _____ _____    ______ ____
ROOT
ATOM      1  N   UNL     1      34.278 -21.637 -19.153  0.00  0.00    +0.391 N 
ATOM      2  C   UNL     1      34.466 -19.802 -20.536  0.00  0.00    +0.015 C 
ATOM      3  C   UNL     1      35.824 -20.510 -20.553  0.00  0.00    +0.089 C 
ATOM      4  C   UNL     1      33.495 -20.913 -20.155  0.00  0.00    -0.073 C 
ATOM      5  C   UNL     1      35.622 -21.781 -19.724  0.00  0.00    -0.047 C 
ATOM      6  H   UNL     1      34.308 -21.124 -18.271  0.00  0.00    -0.079 HD
ENDROOT
BRANCH   3   7
ATOM      7  O   UNL     1      36.805 -19.668 -19.969  0.00  0.00    -0.387 OA
ATOM      8  H   UNL     1      36.918 -19.903 -19.034  0.00  0.00    +0.210 HD
ENDBRANCH   3   7
BRANCH   2   9
ATOM      9  C   UNL     1      34.117 -19.142 -21.862  0.00  0.00    +0.058 C 
BRANCH   9  10
ATOM     10  S   UNL     1      35.340 -17.871 -22.277  0.00  0.00    -0.135 S 
BRANCH  10  11
ATOM     11  C   UNL     1      34.956 -16.693 -20.960  0.00  0.00    +0.084 C 
BRANCH  11  12
ATOM     12  C   UNL     1      34.161 -15.519 -21.462  0.00  0.00    -0.011 C 
ATOM     13  C   UNL     1      33.154 -14.984 -20.669  0.00  0.00    -0.003 C 
ATOM     14  C   UNL     1      34.442 -14.986 -22.713  0.00  0.00    -0.003 C 
ATOM     15  C   UNL     1      32.417 -13.895 -21.135  0.00  0.00    -0.000 C 
ATOM     16  C   UNL     1      33.705 -13.897 -23.179  0.00  0.00    -0.000 C 
ATOM     17  C   UNL     1      32.692 -13.352 -22.390  0.00  0.00    -0.000 C 
ENDBRANCH  11  12
ENDBRANCH  10  11
ENDBRANCH   9  10
ENDBRANCH   2   9
BRANCH   1  18
ATOM     18  C   UNL     1      33.682 -22.916 -18.795  0.00  0.00    -0.047 C 
BRANCH  18  23
ATOM     19  N   UNL     1      32.842 -23.433 -15.271  0.00  0.00    -0.323 N 
ATOM     20  N   UNL     1      36.039 -22.967 -16.677  0.00  0.00    -0.247 NA
ATOM     21  N   UNL     1      36.382 -23.235 -14.282  0.00  0.00    -0.232 NA
ATOM     22  N   UNL     1      34.563 -23.589 -12.768  0.00  0.00    -0.345 N 
ATOM     23  C   UNL     1      33.618 -23.109 -17.308  0.00  0.00    -0.014 C 
ATOM     24  C   UNL     1      34.713 -23.117 -16.434  0.00  0.00    +0.076 C 
ATOM     25  C   UNL     1      32.477 -23.302 -16.588  0.00  0.00    +0.053 C 
ATOM     26  C   UNL     1      34.204 -23.324 -15.155  0.00  0.00    +0.163 C 
ATOM     27  C   UNL     1      35.057 -23.383 -14.067  0.00  0.00    +0.123 C 
ATOM     28  C   UNL     1      36.786 -23.038 -15.557  0.00  0.00    +0.251 C 
ATOM     29  H   UNL     1      32.221 -23.583 -14.523  0.00  0.00    +0.148 HD
ATOM     30  H   UNL     1      35.184 -23.627 -12.005  0.00  0.00    +0.143 HD
ATOM     31  H   UNL     1      33.596 -23.694 -12.620  0.00  0.00    +0.143 HD
ENDBRANCH  18  23
ENDBRANCH   1  18
TORSDOF 7
ENDMDL
MODEL 7
REMARK VINA RESULT:     -10.2      3.274      5.150
REMARK  Name = 10067695
REMARK  7 active torsions:
REMARK  status: ('A' for Active; 'I' for Inactive)
REMARK    1  A    between atoms: N_1  and  C_18
REMARK    2  A    between atoms: C_2  and  C_9
REMARK    3  A    between atoms: C_3  and  O_7
REMARK    4  A    between atoms: C_9  and  S_10
REMARK    5  A    between atoms: S_10  and  C_11
REMARK    6  A    between atoms: C_11  and  C_12
REMARK    7  A    between atoms: C_18  and  C_23
REMARK                            x       y       z     vdW  Elec       q    Type
REMARK                         _______ _______ _______ _____ _____    ______ ____
ROOT
ATOM      1  N   UNL     1      33.639 -12.899 -24.105  0.00  0.00    +0.391 N 
ATOM      2  C   UNL     1      33.038 -10.870 -23.190  0.00  0.00    +0.015 C 
ATOM      3  C   UNL     1      33.922 -10.564 -24.403  0.00  0.00    +0.089 C 
ATOM      4  C   UNL     1      32.473 -12.249 -23.506  0.00  0.00    -0.073 C 
ATOM      5  C   UNL     1      34.199 -11.923 -25.049  0.00  0.00    -0.047 C 
ATOM      6  H   UNL     1      34.323 -13.153 -23.392  0.00  0.00    -0.079 HD
ENDROOT
BRANCH   3   7
ATOM      7  O   UNL     1      35.125  -9.949 -23.969  0.00  0.00    -0.387 OA
ATOM      8  H   UNL     1      35.045  -9.706 -23.032  0.00  0.00    +0.210 HD
ENDBRANCH   3   7
BRANCH   2   9
ATOM      9  C   UNL     1      31.955  -9.827 -22.959  0.00  0.00    +0.058 C 
BRANCH   9  10
ATOM     10  S   UNL     1      32.217  -8.982 -21.378  0.00  0.00    -0.135 S 
BRANCH  10  11
ATOM     11  C   UNL     1      33.390  -7.726 -21.939  0.00  0.00    +0.084 C 
BRANCH  11  12
ATOM     12  C   UNL     1      32.748  -6.715 -22.848  0.00  0.00    -0.011 C 
ATOM     13  C   UNL     1      31.740  -5.895 -22.357  0.00  0.00    -0.003 C 
ATOM     14  C   UNL     1      33.168  -6.615 -24.168  0.00  0.00    -0.003 C 
ATOM     15  C   UNL     1      31.144  -4.957 -23.201  0.00  0.00    -0.000 C 
ATOM     16  C   UNL     1      32.572  -5.678 -25.011  0.00  0.00    -0.000 C 
ATOM     17  C   UNL     1      31.560  -4.849 -24.527  0.00  0.00    -0.000 C 
ENDBRANCH  11  12
ENDBRANCH  10  11
ENDBRANCH   9  10
ENDBRANCH   2   9
BRANCH   1  18
ATOM     18  C   UNL     1      33.308 -14.165 -24.741  0.00  0.00    -0.047 C 
BRANCH  18  23
ATOM     19  N   UNL     1      35.072 -17.228 -23.792  0.00  0.00    -0.323 N 
ATOM     20  N   UNL     1      33.926 -14.659 -21.673  0.00  0.00    -0.247 NA
ATOM     21  N   UNL     1      34.984 -16.309 -20.229  0.00  0.00    -0.232 NA
ATOM     22  N   UNL     1      35.966 -18.313 -21.095  0.00  0.00    -0.345 N 
ATOM     23  C   UNL     1      34.009 -15.321 -24.087  0.00  0.00    -0.014 C 
ATOM     24  C   UNL     1      34.243 -15.467 -22.714  0.00  0.00    +0.076 C 
ATOM     25  C   UNL     1      34.518 -16.404 -24.740  0.00  0.00    +0.053 C 
ATOM     26  C   UNL     1      34.915 -16.675 -22.547  0.00  0.00    +0.163 C 
ATOM     27  C   UNL     1      35.289 -17.096 -21.284  0.00  0.00    +0.123 C 
ATOM     28  C   UNL     1      34.329 -15.154 -20.485  0.00  0.00    +0.251 C 
ATOM     29  H   UNL     1      35.515 -18.088 -23.978  0.00  0.00    +0.148 HD
ATOM     30  H   UNL     1      36.223 -18.598 -20.188  0.00  0.00    +0.143 HD
ATOM     31  H   UNL     1      36.183 -18.881 -21.868  0.00  0.00    +0.143 HD
ENDBRANCH  18  23
ENDBRANCH   1  18
TORSDOF 7
ENDMDL
MODEL 8
REMARK VINA RESULT:     -10.2      4.323     10.611
REMARK  Name = 10067695
REMARK  7 active torsions:
REMARK  status: ('A' for Active; 'I' for Inactive)
REMARK    1  A    between atoms: N_1  and  C_18
REMARK    2  A    between atoms: C_2  and  C_9
REMARK    3  A    between atoms: C_3  and  O_7
REMARK    4  A    between atoms: C_9  and  S_10
REMARK    5  A    between atoms: S_10  and  C_11
REMARK    6  A    between atoms: C_11  and  C_12
REMARK    7  A    between atoms: C_18  and  C_23
REMARK                            x       y       z     vdW  Elec       q    Type
REMARK                         _______ _______ _______ _____ _____    ______ ____
ROOT
ATOM      1  N   UNL     1      35.214 -19.527 -20.543  0.00  0.00    +0.391 N 
ATOM      2  C   UNL     1      34.251 -21.275 -19.389  0.00  0.00    +0.015 C 
ATOM      3  C   UNL     1      33.200 -20.767 -20.381  0.00  0.00    +0.089 C 
ATOM      4  C   UNL     1      35.569 -20.849 -20.024  0.00  0.00    -0.073 C 
ATOM      5  C   UNL     1      33.915 -19.694 -21.206  0.00  0.00    -0.047 C 
ATOM      6  H   UNL     1      35.157 -18.842 -19.791  0.00  0.00    -0.079 HD
ENDROOT
BRANCH   3   7
ATOM      7  O   UNL     1      32.102 -20.218 -19.668  0.00  0.00    -0.387 OA
ATOM      8  H   UNL     1      32.079 -19.257 -19.800  0.00  0.00    +0.210 HD
ENDBRANCH   3   7
BRANCH   2   9
ATOM      9  C   UNL     1      34.170 -22.775 -19.146  0.00  0.00    +0.058 C 
BRANCH   9  10
ATOM     10  S   UNL     1      33.979 -23.120 -17.377  0.00  0.00    -0.135 S 
BRANCH  10  11
ATOM     11  C   UNL     1      32.191 -22.879 -17.252  0.00  0.00    +0.084 C 
BRANCH  11  12
ATOM     12  C   UNL     1      31.647 -23.346 -15.930  0.00  0.00    -0.011 C 
ATOM     13  C   UNL     1      30.417 -23.989 -15.885  0.00  0.00    -0.003 C 
ATOM     14  C   UNL     1      32.381 -23.129 -14.771  0.00  0.00    -0.003 C 
ATOM     15  C   UNL     1      29.912 -24.422 -14.658  0.00  0.00    -0.000 C 
ATOM     16  C   UNL     1      31.876 -23.563 -13.546  0.00  0.00    -0.000 C 
ATOM     17  C   UNL     1      30.642 -24.210 -13.489  0.00  0.00    -0.000 C 
ENDBRANCH  11  12
ENDBRANCH  10  11
ENDBRANCH   9  10
ENDBRANCH   2   9
BRANCH   1  18
ATOM     18  C   UNL     1      36.230 -18.986 -21.434  0.00  0.00    -0.047 C 
BRANCH  18  23
ATOM     19  N   UNL     1      35.053 -16.812 -24.132  0.00  0.00    -0.323 N 
ATOM     20  N   UNL     1      34.982 -16.176 -20.668  0.00  0.00    -0.247 NA
ATOM     21  N   UNL     1      34.010 -14.218 -21.738  0.00  0.00    -0.232 NA
ATOM     22  N   UNL     1      33.780 -14.049 -24.115  0.00  0.00    -0.345 N 
ATOM     23  C   UNL     1      35.678 -17.916 -22.331  0.00  0.00    -0.014 C 
ATOM     24  C   UNL     1      35.141 -16.692 -21.912  0.00  0.00    +0.076 C 
ATOM     25  C   UNL     1      35.621 -17.981 -23.691  0.00  0.00    +0.053 C 
ATOM     26  C   UNL     1      34.752 -16.009 -23.062  0.00  0.00    +0.163 C 
ATOM     27  C   UNL     1      34.178 -14.755 -22.967  0.00  0.00    +0.123 C 
ATOM     28  C   UNL     1      34.417 -14.951 -20.679  0.00  0.00    +0.251 C 
ATOM     29  H   UNL     1      34.887 -16.583 -25.075  0.00  0.00    +0.148 HD
ATOM     30  H   UNL     1      33.374 -13.156 -24.029  0.00  0.00    +0.143 HD
ATOM     31  H   UNL     1      33.908 -14.447 -25.006  0.00  0.00    +0.143 HD
ENDBRANCH  18  23
ENDBRANCH   1  18
TORSDOF 7
ENDMDL
MODEL 9
REMARK VINA RESULT:     -10.1      5.205      8.193
REMARK  Name = 10067695
REMARK  7 active torsions:
REMARK  status: ('A' for Active; 'I' for Inactive)
REMARK    1  A    between atoms: N_1  and  C_18
REMARK    2  A    between atoms: C_2  and  C_9
REMARK    3  A    between atoms: C_3  and  O_7
REMARK    4  A    between atoms: C_9  and  S_10
REMARK    5  A    between atoms: S_10  and  C_11
REMARK    6  A    between atoms: C_11  and  C_12
REMARK    7  A    between atoms: C_18  and  C_23
REMARK                            x       y       z     vdW  Elec       q    Type
REMARK                         _______ _______ _______ _____ _____    ______ ____
ROOT
ATOM      1  N   UNL     1      34.905 -23.004 -16.908  0.00  0.00    +0.391 N 
ATOM      2  C   UNL     1      35.530 -22.149 -18.955  0.00  0.00    +0.015 C 
ATOM      3  C   UNL     1      34.012 -22.340 -19.001  0.00  0.00    +0.089 C 
ATOM      4  C   UNL     1      35.823 -22.010 -17.467  0.00  0.00    -0.073 C 
ATOM      5  C   UNL     1      33.623 -22.792 -17.591  0.00  0.00    -0.047 C 
ATOM      6  H   UNL     1      35.252 -23.950 -17.063  0.00  0.00    -0.079 HD
ENDROOT
BRANCH   3   7
ATOM      7  O   UNL     1      33.688 -23.332 -19.964  0.00  0.00    -0.387 OA
ATOM      8  H   UNL     1      32.803 -23.685 -19.780  0.00  0.00    +0.210 HD
ENDBRANCH   3   7
BRANCH   2   9
ATOM      9  C   UNL     1      36.009 -20.953 -19.765  0.00  0.00    +0.058 C 
BRANCH   9  10
ATOM     10  S   UNL     1      34.609 -20.134 -20.573  0.00  0.00    -0.135 S 
BRANCH  10  11
ATOM     11  C   UNL     1      35.444 -18.610 -21.072  0.00  0.00    +0.084 C 
BRANCH  11  12
ATOM     12  C   UNL     1      35.122 -18.225 -22.490  0.00  0.00    -0.011 C 
ATOM     13  C   UNL     1      35.154 -16.887 -22.859  0.00  0.00    -0.003 C 
ATOM     14  C   UNL     1      34.797 -19.212 -23.411  0.00  0.00    -0.003 C 
ATOM     15  C   UNL     1      34.856 -16.530 -24.175  0.00  0.00    -0.000 C 
ATOM     16  C   UNL     1      34.500 -18.855 -24.725  0.00  0.00    -0.000 C 
ATOM     17  C   UNL     1      34.529 -17.513 -25.108  0.00  0.00    -0.000 C 
ENDBRANCH  11  12
ENDBRANCH  10  11
ENDBRANCH   9  10
ENDBRANCH   2   9
BRANCH   1  18
ATOM     18  C   UNL     1      34.789 -22.906 -15.460  0.00  0.00    -0.047 C 
BRANCH  18  23
ATOM     19  N   UNL     1      37.772 -23.647 -13.473  0.00  0.00    -0.323 N 
ATOM     20  N   UNL     1      36.051 -25.806 -15.661  0.00  0.00    -0.247 NA
ATOM     21  N   UNL     1      37.908 -27.094 -14.756  0.00  0.00    -0.232 NA
ATOM     22  N   UNL     1      39.461 -26.160 -13.192  0.00  0.00    -0.345 N 
ATOM     23  C   UNL     1      35.994 -23.468 -14.762  0.00  0.00    -0.014 C 
ATOM     24  C   UNL     1      36.492 -24.769 -14.906  0.00  0.00    +0.076 C 
ATOM     25  C   UNL     1      36.783 -22.788 -13.884  0.00  0.00    +0.053 C 
ATOM     26  C   UNL     1      37.612 -24.863 -14.085  0.00  0.00    +0.163 C 
ATOM     27  C   UNL     1      38.326 -26.046 -14.013  0.00  0.00    +0.123 C 
ATOM     28  C   UNL     1      36.811 -26.911 -15.525  0.00  0.00    +0.251 C 
ATOM     29  H   UNL     1      38.487 -23.423 -12.835  0.00  0.00    +0.148 HD
ATOM     30  H   UNL     1      39.958 -27.010 -13.154  0.00  0.00    +0.143 HD
ATOM     31  H   UNL     1      39.759 -25.392 -12.655  0.00  0.00    +0.143 HD
ENDBRANCH  18  23
ENDBRANCH   1  18
TORSDOF 7
ENDMDL
