MODEL 1
REMARK VINA RESULT:     -10.0      0.000      0.000
REMARK  Name = 44129620
REMARK  6 active torsions:
REMARK  status: ('A' for Active; 'I' for Inactive)
REMARK    1  A    between atoms: C_1  and  O_16
REMARK    2  A    between atoms: C_4  and  N_7
REMARK    3  A    between atoms: N_7  and  C_9
REMARK    4  A    between atoms: C_9  and  C_10
REMARK    5  A    between atoms: O_16  and  C_17
REMARK    6  A    between atoms: C_17  and  C_19
REMARK                            x       y       z     vdW  Elec       q    Type
REMARK                         _______ _______ _______ _____ _____    ______ ____
ROOT
ATOM      1  C   UNL     1      33.487 -21.356 -19.529  0.00  0.00    +0.139 C 
ATOM      2  C   UNL     1      32.867 -20.358 -20.279  0.00  0.00    +0.038 C 
ATOM      3  C   UNL     1      34.877 -21.474 -19.540  0.00  0.00    +0.038 C 
ATOM      4  C   UNL     1      35.025 -19.593 -21.048  0.00  0.00    +0.045 C 
ATOM      5  C   UNL     1      33.635 -19.476 -21.039  0.00  0.00    +0.017 C 
ATOM      6  C   UNL     1      35.646 -20.592 -20.299  0.00  0.00    +0.017 C 
ENDROOT
BRANCH   4   7
ATOM      7  N   UNL     1      35.803 -18.702 -21.817  0.00  0.00    -0.329 N 
ATOM      8  H   UNL     1      36.434 -18.105 -21.352  0.00  0.00    +0.147 HD
BRANCH   7   9
ATOM      9  C   UNL     1      35.716 -18.626 -23.242  0.00  0.00    +0.114 C 
BRANCH   9  10
ATOM     10  C   UNL     1      35.032 -17.355 -23.663  0.00  0.00    -0.003 C 
ATOM     11  C   UNL     1      34.504 -17.239 -24.949  0.00  0.00    -0.003 C 
ATOM     12  C   UNL     1      34.926 -16.291 -22.767  0.00  0.00    -0.003 C 
ATOM     13  C   UNL     1      33.870 -16.059 -25.339  0.00  0.00    -0.000 C 
ATOM     14  C   UNL     1      34.292 -15.112 -23.157  0.00  0.00    -0.000 C 
ATOM     15  C   UNL     1      33.764 -14.996 -24.443  0.00  0.00    -0.000 C 
ENDBRANCH   9  10
ENDBRANCH   7   9
ENDBRANCH   4   7
BRANCH   1  16
ATOM     16  O   UNL     1      32.730 -22.224 -18.784  0.00  0.00    -0.478 OA
BRANCH  16  17
ATOM     17  C   UNL     1      33.406 -22.979 -17.792  0.00  0.00    +0.184 C 
BRANCH  17  19
ATOM     18  N   UNL     1      31.125 -22.698 -16.861  0.00  0.00    +0.388 N 
ATOM     19  C   UNL     1      32.401 -23.418 -16.740  0.00  0.00    -0.017 C 
ATOM     20  C   UNL     1      32.847 -23.096 -15.321  0.00  0.00    -0.020 C 
ATOM     21  C   UNL     1      31.547 -23.033 -14.533  0.00  0.00    -0.025 C 
ATOM     22  C   UNL     1      30.447 -22.924 -15.579  0.00  0.00    -0.082 C 
ATOM     23  H   UNL     1      30.572 -23.072 -17.632  0.00  0.00    -0.084 HD
ATOM     24  H   UNL     1      31.259 -21.705 -17.056  0.00  0.00    -0.084 HD
ENDBRANCH  17  19
ENDBRANCH  16  17
ENDBRANCH   1  16
TORSDOF 6
ENDMDL
MODEL 2
REMARK VINA RESULT:     -10.0      1.645      8.789
REMARK  Name = 44129620
REMARK  6 active torsions:
REMARK  status: ('A' for Active; 'I' for Inactive)
REMARK    1  A    between atoms: C_1  and  O_16
REMARK    2  A    between atoms: C_4  and  N_7
REMARK    3  A    between atoms: N_7  and  C_9
REMARK    4  A    between atoms: C_9  and  C_10
REMARK    5  A    between atoms: O_16  and  C_17
REMARK    6  A    between atoms: C_17  and  C_19
REMARK                            x       y       z     vdW  Elec       q    Type
REMARK                         _______ _______ _______ _____ _____    ______ ____
ROOT
ATOM      1  C   UNL     1      34.977 -19.614 -20.995  0.00  0.00    +0.139 C 
ATOM      2  C   UNL     1      33.583 -19.586 -20.968  0.00  0.00    +0.038 C 
ATOM      3  C   UNL     1      35.669 -20.576 -20.259  0.00  0.00    +0.038 C 
ATOM      4  C   UNL     1      33.573 -21.482 -19.471  0.00  0.00    +0.045 C 
ATOM      5  C   UNL     1      32.880 -20.520 -20.207  0.00  0.00    +0.017 C 
ATOM      6  C   UNL     1      34.967 -21.510 -19.497  0.00  0.00    +0.017 C 
ENDROOT
BRANCH   4   7
ATOM      7  N   UNL     1      32.863 -22.426 -18.701  0.00  0.00    -0.329 N 
ATOM      8  H   UNL     1      31.914 -22.587 -18.909  0.00  0.00    +0.147 HD
BRANCH   7   9
ATOM      9  C   UNL     1      33.461 -23.163 -17.630  0.00  0.00    +0.114 C 
BRANCH   9  10
ATOM     10  C   UNL     1      32.554 -23.181 -16.432  0.00  0.00    -0.003 C 
ATOM     11  C   UNL     1      33.075 -23.450 -15.166  0.00  0.00    -0.003 C 
ATOM     12  C   UNL     1      31.190 -22.928 -16.584  0.00  0.00    -0.003 C 
ATOM     13  C   UNL     1      32.234 -23.468 -14.054  0.00  0.00    -0.000 C 
ATOM     14  C   UNL     1      30.349 -22.946 -15.473  0.00  0.00    -0.000 C 
ATOM     15  C   UNL     1      30.871 -23.215 -14.207  0.00  0.00    -0.000 C 
ENDBRANCH   9  10
ENDBRANCH   7   9
ENDBRANCH   4   7
BRANCH   1  16
ATOM     16  O   UNL     1      35.667 -18.694 -21.742  0.00  0.00    -0.478 OA
BRANCH  16  17
ATOM     17  C   UNL     1      35.301 -17.332 -21.583  0.00  0.00    +0.184 C 
BRANCH  17  19
ATOM     18  N   UNL     1      34.048 -15.812 -23.089  0.00  0.00    +0.388 N 
ATOM     19  C   UNL     1      35.227 -16.681 -22.954  0.00  0.00    -0.017 C 
ATOM     20  C   UNL     1      35.047 -17.686 -24.082  0.00  0.00    -0.020 C 
ATOM     21  C   UNL     1      34.408 -16.875 -25.199  0.00  0.00    -0.025 C 
ATOM     22  C   UNL     1      33.905 -15.601 -24.534  0.00  0.00    -0.082 C 
ATOM     23  H   UNL     1      34.197 -14.926 -22.608  0.00  0.00    -0.084 HD
ATOM     24  H   UNL     1      33.212 -16.228 -22.675  0.00  0.00    -0.084 HD
ENDBRANCH  17  19
ENDBRANCH  16  17
ENDBRANCH   1  16
TORSDOF 6
ENDMDL
MODEL 3
REMARK VINA RESULT:      -9.9      3.895      9.683
REMARK  Name = 44129620
REMARK  6 active torsions:
REMARK  status: ('A' for Active; 'I' for Inactive)
REMARK    1  A    between atoms: C_1  and  O_16
REMARK    2  A    between atoms: C_4  and  N_7
REMARK    3  A    between atoms: N_7  and  C_9
REMARK    4  A    between atoms: C_9  and  C_10
REMARK    5  A    between atoms: O_16  and  C_17
REMARK    6  A    between atoms: C_17  and  C_19
REMARK                            x       y       z     vdW  Elec       q    Type
REMARK                         _______ _______ _______ _____ _____    ______ ____
ROOT
ATOM      1  C   UNL     1      33.761 -14.111 -22.607  0.00  0.00    +0.139 C 
ATOM      2  C   UNL     1      34.441 -15.051 -23.379  0.00  0.00    +0.038 C 
ATOM      3  C   UNL     1      33.618 -14.308 -21.233  0.00  0.00    +0.038 C 
ATOM      4  C   UNL     1      34.838 -16.386 -21.405  0.00  0.00    +0.045 C 
ATOM      5  C   UNL     1      34.980 -16.189 -22.779  0.00  0.00    +0.017 C 
ATOM      6  C   UNL     1      34.157 -15.445 -20.632  0.00  0.00    +0.017 C 
ENDROOT
BRANCH   4   7
ATOM      7  N   UNL     1      35.382 -17.536 -20.798  0.00  0.00    -0.329 N 
ATOM      8  H   UNL     1      35.652 -17.487 -19.852  0.00  0.00    +0.147 HD
BRANCH   7   9
ATOM      9  C   UNL     1      35.558 -18.773 -21.494  0.00  0.00    +0.114 C 
BRANCH   9  10
ATOM     10  C   UNL     1      34.998 -19.914 -20.693  0.00  0.00    -0.003 C 
ATOM     11  C   UNL     1      33.617 -20.053 -20.547  0.00  0.00    -0.003 C 
ATOM     12  C   UNL     1      35.858 -20.835 -20.094  0.00  0.00    -0.003 C 
ATOM     13  C   UNL     1      33.098 -21.112 -19.802  0.00  0.00    -0.000 C 
ATOM     14  C   UNL     1      35.339 -21.893 -19.349  0.00  0.00    -0.000 C 
ATOM     15  C   UNL     1      33.958 -22.032 -19.204  0.00  0.00    -0.000 C 
ENDBRANCH   9  10
ENDBRANCH   7   9
ENDBRANCH   4   7
BRANCH   1  16
ATOM     16  O   UNL     1      33.229 -12.993 -23.199  0.00  0.00    -0.478 OA
BRANCH  16  17
ATOM     17  C   UNL     1      33.801 -12.585 -24.431  0.00  0.00    +0.184 C 
BRANCH  17  19
ATOM     18  N   UNL     1      35.058 -10.447 -24.444  0.00  0.00    +0.388 N 
ATOM     19  C   UNL     1      33.729 -11.069 -24.527  0.00  0.00    -0.017 C 
ATOM     20  C   UNL     1      32.976 -10.435 -23.368  0.00  0.00    -0.020 C 
ATOM     21  C   UNL     1      33.518  -9.014 -23.311  0.00  0.00    -0.025 C 
ATOM     22  C   UNL     1      34.790  -9.036 -24.146  0.00  0.00    -0.082 C 
ATOM     23  H   UNL     1      35.556 -10.540 -25.329  0.00  0.00    -0.084 HD
ATOM     24  H   UNL     1      35.647 -10.886 -23.735  0.00  0.00    -0.084 HD
ENDBRANCH  17  19
ENDBRANCH  16  17
ENDBRANCH   1  16
TORSDOF 6
ENDMDL
MODEL 4
REMARK VINA RESULT:      -9.6      4.027      9.748
REMARK  Name = 44129620
REMARK  6 active torsions:
REMARK  status: ('A' for Active; 'I' for Inactive)
REMARK    1  A    between atoms: C_1  and  O_16
REMARK    2  A    between atoms: C_4  and  N_7
REMARK    3  A    between atoms: N_7  and  C_9
REMARK    4  A    between atoms: C_9  and  C_10
REMARK    5  A    between atoms: O_16  and  C_17
REMARK    6  A    between atoms: C_17  and  C_19
REMARK                            x       y       z     vdW  Elec       q    Type
REMARK                         _______ _______ _______ _____ _____    ______ ____
ROOT
ATOM      1  C   UNL     1      33.635 -14.272 -23.753  0.00  0.00    +0.139 C 
ATOM      2  C   UNL     1      33.709 -15.212 -24.780  0.00  0.00    +0.038 C 
ATOM      3  C   UNL     1      34.144 -14.576 -22.491  0.00  0.00    +0.038 C 
ATOM      4  C   UNL     1      34.803 -16.761 -23.284  0.00  0.00    +0.045 C 
ATOM      5  C   UNL     1      34.292 -16.457 -24.546  0.00  0.00    +0.017 C 
ATOM      6  C   UNL     1      34.728 -15.821 -22.256  0.00  0.00    +0.017 C 
ENDROOT
BRANCH   4   7
ATOM      7  N   UNL     1      35.393 -18.020 -23.046  0.00  0.00    -0.329 N 
ATOM      8  H   UNL     1      35.397 -18.683 -23.774  0.00  0.00    +0.147 HD
BRANCH   7   9
ATOM      9  C   UNL     1      35.987 -18.376 -21.795  0.00  0.00    +0.114 C 
BRANCH   9  10
ATOM     10  C   UNL     1      35.125 -19.368 -21.065  0.00  0.00    -0.003 C 
ATOM     11  C   UNL     1      35.714 -20.414 -20.354  0.00  0.00    -0.003 C 
ATOM     12  C   UNL     1      33.736 -19.243 -21.098  0.00  0.00    -0.003 C 
ATOM     13  C   UNL     1      34.914 -21.335 -19.677  0.00  0.00    -0.000 C 
ATOM     14  C   UNL     1      32.937 -20.163 -20.422  0.00  0.00    -0.000 C 
ATOM     15  C   UNL     1      33.526 -21.209 -19.710  0.00  0.00    -0.000 C 
ENDBRANCH   9  10
ENDBRANCH   7   9
ENDBRANCH   4   7
BRANCH   1  16
ATOM     16  O   UNL     1      33.058 -13.049 -23.984  0.00  0.00    -0.478 OA
BRANCH  16  17
ATOM     17  C   UNL     1      33.779 -12.142 -24.802  0.00  0.00    +0.184 C 
BRANCH  17  19
ATOM     18  N   UNL     1      32.927 -10.085 -23.710  0.00  0.00    +0.388 N 
ATOM     19  C   UNL     1      34.115 -10.905 -23.985  0.00  0.00    -0.017 C 
ATOM     20  C   UNL     1      35.039  -9.943 -24.714  0.00  0.00    -0.020 C 
ATOM     21  C   UNL     1      34.766  -8.599 -24.056  0.00  0.00    -0.025 C 
ATOM     22  C   UNL     1      33.461  -8.783 -23.294  0.00  0.00    -0.082 C 
ATOM     23  H   UNL     1      32.366 -10.499 -22.966  0.00  0.00    -0.084 HD
ATOM     24  H   UNL     1      32.314 -10.008 -24.524  0.00  0.00    -0.084 HD
ENDBRANCH  17  19
ENDBRANCH  16  17
ENDBRANCH   1  16
TORSDOF 6
ENDMDL
MODEL 5
REMARK VINA RESULT:      -9.5      4.478      9.233
REMARK  Name = 44129620
REMARK  6 active torsions:
REMARK  status: ('A' for Active; 'I' for Inactive)
REMARK    1  A    between atoms: C_1  and  O_16
REMARK    2  A    between atoms: C_4  and  N_7
REMARK    3  A    between atoms: N_7  and  C_9
REMARK    4  A    between atoms: C_9  and  C_10
REMARK    5  A    between atoms: O_16  and  C_17
REMARK    6  A    between atoms: C_17  and  C_19
REMARK                            x       y       z     vdW  Elec       q    Type
REMARK                         _______ _______ _______ _____ _____    ______ ____
ROOT
ATOM      1  C   UNL     1      32.875 -13.735 -22.082  0.00  0.00    +0.139 C 
ATOM      2  C   UNL     1      32.808 -14.388 -20.853  0.00  0.00    +0.038 C 
ATOM      3  C   UNL     1      33.722 -14.214 -23.082  0.00  0.00    +0.038 C 
ATOM      4  C   UNL     1      34.434 -16.002 -21.620  0.00  0.00    +0.045 C 
ATOM      5  C   UNL     1      33.587 -15.521 -20.621  0.00  0.00    +0.017 C 
ATOM      6  C   UNL     1      34.501 -15.348 -22.851  0.00  0.00    +0.017 C 
ENDROOT
BRANCH   4   7
ATOM      7  N   UNL     1      35.222 -17.148 -21.386  0.00  0.00    -0.329 N 
ATOM      8  H   UNL     1      35.926 -17.103 -20.699  0.00  0.00    +0.147 HD
BRANCH   7   9
ATOM      9  C   UNL     1      35.043 -18.373 -22.102  0.00  0.00    +0.114 C 
BRANCH   9  10
ATOM     10  C   UNL     1      34.625 -19.474 -21.168  0.00  0.00    -0.003 C 
ATOM     11  C   UNL     1      33.272 -19.690 -20.905  0.00  0.00    -0.003 C 
ATOM     12  C   UNL     1      35.590 -20.279 -20.562  0.00  0.00    -0.003 C 
ATOM     13  C   UNL     1      32.885 -20.710 -20.037  0.00  0.00    -0.000 C 
ATOM     14  C   UNL     1      35.203 -21.299 -19.695  0.00  0.00    -0.000 C 
ATOM     15  C   UNL     1      33.850 -21.516 -19.432  0.00  0.00    -0.000 C 
ENDBRANCH   9  10
ENDBRANCH   7   9
ENDBRANCH   4   7
BRANCH   1  16
ATOM     16  O   UNL     1      32.111 -12.618 -22.308  0.00  0.00    -0.478 OA
BRANCH  16  17
ATOM     17  C   UNL     1      31.474 -12.037 -21.182  0.00  0.00    +0.184 C 
BRANCH  17  19
ATOM     18  N   UNL     1      32.371 -10.059 -22.380  0.00  0.00    +0.388 N 
ATOM     19  C   UNL     1      31.398 -10.532 -21.384  0.00  0.00    -0.017 C 
ATOM     20  C   UNL     1      31.769  -9.745 -20.137  0.00  0.00    -0.020 C 
ATOM     21  C   UNL     1      32.216  -8.393 -20.673  0.00  0.00    -0.025 C 
ATOM     22  C   UNL     1      32.452  -8.610 -22.162  0.00  0.00    -0.082 C 
ATOM     23  H   UNL     1      32.047 -10.264 -23.325  0.00  0.00    -0.084 HD
ATOM     24  H   UNL     1      33.278 -10.516 -22.281  0.00  0.00    -0.084 HD
ENDBRANCH  17  19
ENDBRANCH  16  17
ENDBRANCH   1  16
TORSDOF 6
ENDMDL
MODEL 6
REMARK VINA RESULT:      -9.4      1.146      2.055
REMARK  Name = 44129620
REMARK  6 active torsions:
REMARK  status: ('A' for Active; 'I' for Inactive)
REMARK    1  A    between atoms: C_1  and  O_16
REMARK    2  A    between atoms: C_4  and  N_7
REMARK    3  A    between atoms: N_7  and  C_9
REMARK    4  A    between atoms: C_9  and  C_10
REMARK    5  A    between atoms: O_16  and  C_17
REMARK    6  A    between atoms: C_17  and  C_19
REMARK                            x       y       z     vdW  Elec       q    Type
REMARK                         _______ _______ _______ _____ _____    ______ ____
ROOT
ATOM      1  C   UNL     1      34.064 -22.276 -18.974  0.00  0.00    +0.139 C 
ATOM      2  C   UNL     1      35.379 -21.967 -19.316  0.00  0.00    +0.038 C 
ATOM      3  C   UNL     1      33.012 -21.515 -19.485  0.00  0.00    +0.038 C 
ATOM      4  C   UNL     1      34.594 -20.134 -20.681  0.00  0.00    +0.045 C 
ATOM      5  C   UNL     1      35.645 -20.896 -20.168  0.00  0.00    +0.017 C 
ATOM      6  C   UNL     1      33.278 -20.444 -20.338  0.00  0.00    +0.017 C 
ENDROOT
BRANCH   4   7
ATOM      7  N   UNL     1      34.863 -19.051 -21.543  0.00  0.00    -0.329 N 
ATOM      8  H   UNL     1      34.468 -19.058 -22.445  0.00  0.00    +0.147 HD
BRANCH   7   9
ATOM      9  C   UNL     1      35.682 -17.941 -21.164  0.00  0.00    +0.114 C 
BRANCH   9  10
ATOM     10  C   UNL     1      35.079 -16.652 -21.646  0.00  0.00    -0.003 C 
ATOM     11  C   UNL     1      34.549 -15.744 -20.728  0.00  0.00    -0.003 C 
ATOM     12  C   UNL     1      35.047 -16.362 -23.010  0.00  0.00    -0.003 C 
ATOM     13  C   UNL     1      33.988 -14.547 -21.175  0.00  0.00    -0.000 C 
ATOM     14  C   UNL     1      34.487 -15.167 -23.457  0.00  0.00    -0.000 C 
ATOM     15  C   UNL     1      33.958 -14.258 -22.540  0.00  0.00    -0.000 C 
ENDBRANCH   9  10
ENDBRANCH   7   9
ENDBRANCH   4   7
BRANCH   1  16
ATOM     16  O   UNL     1      33.804 -23.329 -18.133  0.00  0.00    -0.478 OA
BRANCH  16  17
ATOM     17  C   UNL     1      33.734 -23.041 -16.746  0.00  0.00    +0.184 C 
BRANCH  17  19
ATOM     18  N   UNL     1      31.274 -22.772 -16.906  0.00  0.00    +0.388 N 
ATOM     19  C   UNL     1      32.373 -23.470 -16.223  0.00  0.00    -0.017 C 
ATOM     20  C   UNL     1      32.156 -23.111 -14.762  0.00  0.00    -0.020 C 
ATOM     21  C   UNL     1      30.643 -23.048 -14.618  0.00  0.00    -0.025 C 
ATOM     22  C   UNL     1      30.107 -22.979 -16.041  0.00  0.00    -0.082 C 
ATOM     23  H   UNL     1      31.113 -23.170 -17.831  0.00  0.00    -0.084 HD
ATOM     24  H   UNL     1      31.476 -21.781 -17.050  0.00  0.00    -0.084 HD
ENDBRANCH  17  19
ENDBRANCH  16  17
ENDBRANCH   1  16
TORSDOF 6
ENDMDL
MODEL 7
REMARK VINA RESULT:      -9.3      4.627      7.133
REMARK  Name = 44129620
REMARK  6 active torsions:
REMARK  status: ('A' for Active; 'I' for Inactive)
REMARK    1  A    between atoms: C_1  and  O_16
REMARK    2  A    between atoms: C_4  and  N_7
REMARK    3  A    between atoms: N_7  and  C_9
REMARK    4  A    between atoms: C_9  and  C_10
REMARK    5  A    between atoms: O_16  and  C_17
REMARK    6  A    between atoms: C_17  and  C_19
REMARK                            x       y       z     vdW  Elec       q    Type
REMARK                         _______ _______ _______ _____ _____    ______ ____
ROOT
ATOM      1  C   UNL     1      34.256 -15.770 -21.927  0.00  0.00    +0.139 C 
ATOM      2  C   UNL     1      33.634 -15.339 -20.757  0.00  0.00    +0.038 C 
ATOM      3  C   UNL     1      33.999 -15.120 -23.134  0.00  0.00    +0.038 C 
ATOM      4  C   UNL     1      32.497 -13.606 -21.999  0.00  0.00    +0.045 C 
ATOM      5  C   UNL     1      32.754 -14.257 -20.791  0.00  0.00    +0.017 C 
ATOM      6  C   UNL     1      33.120 -14.038 -23.170  0.00  0.00    +0.017 C 
ENDROOT
BRANCH   4   7
ATOM      7  N   UNL     1      31.608 -12.512 -22.035  0.00  0.00    -0.329 N 
ATOM      8  H   UNL     1      31.190 -12.273 -22.894  0.00  0.00    +0.147 HD
BRANCH   7   9
ATOM      9  C   UNL     1      31.284 -11.735 -20.879  0.00  0.00    +0.114 C 
BRANCH   9  10
ATOM     10  C   UNL     1      31.661 -10.295 -21.089  0.00  0.00    -0.003 C 
ATOM     11  C   UNL     1      31.733  -9.774 -22.381  0.00  0.00    -0.003 C 
ATOM     12  C   UNL     1      31.940  -9.479 -19.992  0.00  0.00    -0.003 C 
ATOM     13  C   UNL     1      32.084  -8.439 -22.576  0.00  0.00    -0.000 C 
ATOM     14  C   UNL     1      32.290  -8.144 -20.187  0.00  0.00    -0.000 C 
ATOM     15  C   UNL     1      32.362  -7.623 -21.480  0.00  0.00    -0.000 C 
ENDBRANCH   9  10
ENDBRANCH   7   9
ENDBRANCH   4   7
BRANCH   1  16
ATOM     16  O   UNL     1      35.119 -16.836 -21.891  0.00  0.00    -0.478 OA
BRANCH  16  17
ATOM     17  C   UNL     1      34.589 -18.104 -22.241  0.00  0.00    +0.184 C 
BRANCH  17  19
ATOM     18  N   UNL     1      35.434 -20.054 -20.962  0.00  0.00    +0.388 N 
ATOM     19  C   UNL     1      34.465 -18.948 -20.983  0.00  0.00    -0.017 C 
ATOM     20  C   UNL     1      33.126 -19.661 -20.874  0.00  0.00    -0.020 C 
ATOM     21  C   UNL     1      33.413 -20.848 -19.966  0.00  0.00    -0.025 C 
ATOM     22  C   UNL     1      34.930 -20.972 -19.935  0.00  0.00    -0.082 C 
ATOM     23  H   UNL     1      36.364 -19.713 -20.715  0.00  0.00    -0.084 HD
ATOM     24  H   UNL     1      35.525 -20.505 -21.873  0.00  0.00    -0.084 HD
ENDBRANCH  17  19
ENDBRANCH  16  17
ENDBRANCH   1  16
TORSDOF 6
ENDMDL
MODEL 8
REMARK VINA RESULT:      -9.2      2.355      2.927
REMARK  Name = 44129620
REMARK  6 active torsions:
REMARK  status: ('A' for Active; 'I' for Inactive)
REMARK    1  A    between atoms: C_1  and  O_16
REMARK    2  A    between atoms: C_4  and  N_7
REMARK    3  A    between atoms: N_7  and  C_9
REMARK    4  A    between atoms: C_9  and  C_10
REMARK    5  A    between atoms: O_16  and  C_17
REMARK    6  A    between atoms: C_17  and  C_19
REMARK                            x       y       z     vdW  Elec       q    Type
REMARK                         _______ _______ _______ _____ _____    ______ ____
ROOT
ATOM      1  C   UNL     1      35.154 -22.030 -18.578  0.00  0.00    +0.139 C 
ATOM      2  C   UNL     1      33.808 -21.886 -18.909  0.00  0.00    +0.038 C 
ATOM      3  C   UNL     1      36.126 -21.322 -19.286  0.00  0.00    +0.038 C 
ATOM      4  C   UNL     1      34.403 -20.325 -20.655  0.00  0.00    +0.045 C 
ATOM      5  C   UNL     1      33.431 -21.034 -19.948  0.00  0.00    +0.017 C 
ATOM      6  C   UNL     1      35.751 -20.470 -20.324  0.00  0.00    +0.017 C 
ENDROOT
BRANCH   4   7
ATOM      7  N   UNL     1      34.023 -19.464 -21.706  0.00  0.00    -0.329 N 
ATOM      8  H   UNL     1      33.064 -19.358 -21.904  0.00  0.00    +0.147 HD
BRANCH   7   9
ATOM      9  C   UNL     1      34.969 -18.737 -22.495  0.00  0.00    +0.114 C 
BRANCH   9  10
ATOM     10  C   UNL     1      34.777 -17.257 -22.316  0.00  0.00    -0.003 C 
ATOM     11  C   UNL     1      34.708 -16.423 -23.432  0.00  0.00    -0.003 C 
ATOM     12  C   UNL     1      34.670 -16.717 -21.035  0.00  0.00    -0.003 C 
ATOM     13  C   UNL     1      34.531 -15.049 -23.266  0.00  0.00    -0.000 C 
ATOM     14  C   UNL     1      34.493 -15.344 -20.868  0.00  0.00    -0.000 C 
ATOM     15  C   UNL     1      34.423 -14.510 -21.985  0.00  0.00    -0.000 C 
ENDBRANCH   9  10
ENDBRANCH   7   9
ENDBRANCH   4   7
BRANCH   1  16
ATOM     16  O   UNL     1      35.523 -22.870 -17.559  0.00  0.00    -0.478 OA
BRANCH  16  17
ATOM     17  C   UNL     1      34.581 -23.070 -16.517  0.00  0.00    +0.184 C 
BRANCH  17  19
ATOM     18  N   UNL     1      35.021 -22.995 -14.078  0.00  0.00    +0.388 N 
ATOM     19  C   UNL     1      35.286 -23.712 -15.334  0.00  0.00    -0.017 C 
ATOM     20  C   UNL     1      36.802 -23.663 -15.447  0.00  0.00    -0.020 C 
ATOM     21  C   UNL     1      37.282 -23.765 -14.006  0.00  0.00    -0.025 C 
ATOM     22  C   UNL     1      36.057 -23.470 -13.153  0.00  0.00    -0.082 C 
ATOM     23  H   UNL     1      34.092 -23.220 -13.724  0.00  0.00    -0.084 HD
ATOM     24  H   UNL     1      35.046 -21.982 -14.199  0.00  0.00    -0.084 HD
ENDBRANCH  17  19
ENDBRANCH  16  17
ENDBRANCH   1  16
TORSDOF 6
ENDMDL
MODEL 9
REMARK VINA RESULT:      -9.1      1.879      8.874
REMARK  Name = 44129620
REMARK  6 active torsions:
REMARK  status: ('A' for Active; 'I' for Inactive)
REMARK    1  A    between atoms: C_1  and  O_16
REMARK    2  A    between atoms: C_4  and  N_7
REMARK    3  A    between atoms: N_7  and  C_9
REMARK    4  A    between atoms: C_9  and  C_10
REMARK    5  A    between atoms: O_16  and  C_17
REMARK    6  A    between atoms: C_17  and  C_19
REMARK                            x       y       z     vdW  Elec       q    Type
REMARK                         _______ _______ _______ _____ _____    ______ ____
ROOT
ATOM      1  C   UNL     1      34.975 -20.017 -20.817  0.00  0.00    +0.139 C 
ATOM      2  C   UNL     1      35.849 -20.910 -20.199  0.00  0.00    +0.038 C 
ATOM      3  C   UNL     1      33.598 -20.154 -20.641  0.00  0.00    +0.038 C 
ATOM      4  C   UNL     1      33.970 -22.077 -19.227  0.00  0.00    +0.045 C 
ATOM      5  C   UNL     1      35.348 -21.941 -19.405  0.00  0.00    +0.017 C 
ATOM      6  C   UNL     1      33.096 -21.184 -19.846  0.00  0.00    +0.017 C 
ENDROOT
BRANCH   4   7
ATOM      7  N   UNL     1      33.463 -23.119 -18.424  0.00  0.00    -0.329 N 
ATOM      8  H   UNL     1      33.759 -24.041 -18.606  0.00  0.00    +0.147 HD
BRANCH   7   9
ATOM      9  C   UNL     1      32.538 -22.897 -17.356  0.00  0.00    +0.114 C 
BRANCH   9  10
ATOM     10  C   UNL     1      33.137 -23.319 -16.043  0.00  0.00    -0.003 C 
ATOM     11  C   UNL     1      32.310 -23.572 -14.948  0.00  0.00    -0.003 C 
ATOM     12  C   UNL     1      34.519 -23.458 -15.919  0.00  0.00    -0.003 C 
ATOM     13  C   UNL     1      32.866 -23.962 -13.730  0.00  0.00    -0.000 C 
ATOM     14  C   UNL     1      35.075 -23.848 -14.702  0.00  0.00    -0.000 C 
ATOM     15  C   UNL     1      34.248 -24.101 -13.607  0.00  0.00    -0.000 C 
ENDBRANCH   9  10
ENDBRANCH   7   9
ENDBRANCH   4   7
BRANCH   1  16
ATOM     16  O   UNL     1      35.470 -19.005 -21.601  0.00  0.00    -0.478 OA
BRANCH  16  17
ATOM     17  C   UNL     1      35.539 -17.714 -21.017  0.00  0.00    +0.184 C 
BRANCH  17  19
ATOM     18  N   UNL     1      35.330 -16.399 -23.109  0.00  0.00    +0.388 N 
ATOM     19  C   UNL     1      34.687 -16.759 -21.837  0.00  0.00    -0.017 C 
ATOM     20  C   UNL     1      34.483 -15.413 -21.159  0.00  0.00    -0.020 C 
ATOM     21  C   UNL     1      34.179 -14.464 -22.309  0.00  0.00    -0.025 C 
ATOM     22  C   UNL     1      34.609 -15.206 -23.566  0.00  0.00    -0.082 C 
ATOM     23  H   UNL     1      35.240 -17.157 -23.785  0.00  0.00    -0.084 HD
ATOM     24  H   UNL     1      36.331 -16.227 -23.001  0.00  0.00    -0.084 HD
ENDBRANCH  17  19
ENDBRANCH  16  17
ENDBRANCH   1  16
TORSDOF 6
ENDMDL
