MODEL 1
REMARK VINA RESULT:      -8.0      0.000      0.000
REMARK  Name = 736681
REMARK  6 active torsions:
REMARK  status: ('A' for Active; 'I' for Inactive)
REMARK    1  A    between atoms: C_1  and  C_11
REMARK    2  A    between atoms: C_3  and  O_7
REMARK    3  A    between atoms: C_5  and  O_9
REMARK    4  A    between atoms: C_12  and  C_14
REMARK    5  A    between atoms: C_14  and  O_15
REMARK    6  A    between atoms: O_15  and  C_16
REMARK                            x       y       z     vdW  Elec       q    Type
REMARK                         _______ _______ _______ _____ _____    ______ ____
ROOT
ATOM      1  C   UNL     1      34.352 -19.095 -21.506  0.00  0.00    +0.003 C 
ATOM      2  C   UNL     1      34.334 -17.785 -21.027  0.00  0.00    +0.040 C 
ATOM      3  C   UNL     1      34.761 -16.738 -21.844  0.00  0.00    +0.172 C 
ATOM      4  C   UNL     1      34.796 -19.358 -22.802  0.00  0.00    +0.003 C 
ATOM      5  C   UNL     1      35.205 -17.002 -23.140  0.00  0.00    +0.168 C 
ATOM      6  C   UNL     1      35.223 -18.312 -23.619  0.00  0.00    +0.040 C 
ENDROOT
BRANCH   3   7
ATOM      7  O   UNL     1      34.739 -15.463 -21.365  0.00  0.00    -0.468 OA
ATOM      8  C   UNL     1      33.577 -15.060 -20.645  0.00  0.00    +0.253 C 
ENDBRANCH   3   7
BRANCH   5   9
ATOM      9  O   UNL     1      35.626 -15.988 -23.947  0.00  0.00    -0.503 OA
ATOM     10  H   UNL     1      35.636 -15.107 -23.626  0.00  0.00    +0.292 HD
ENDBRANCH   5   9
BRANCH   1  11
ATOM     11  C   UNL     1      33.906 -20.187 -20.655  0.00  0.00    +0.007 C 
ATOM     12  C   UNL     1      34.714 -20.983 -19.920  0.00  0.00    +0.082 C 
BRANCH  12  14
ATOM     13  O   UNL     1      32.990 -22.472 -19.151  0.00  0.00    -0.245 OA
ATOM     14  C   UNL     1      34.137 -22.059 -19.081  0.00  0.00    +0.341 C 
BRANCH  14  15
ATOM     15  O   UNL     1      35.112 -22.490 -18.237  0.00  0.00    -0.445 OA
BRANCH  15  16
ATOM     16  C   UNL     1      36.348 -21.771 -18.308  0.00  0.00    +0.209 C 
ATOM     17  C   UNL     1      37.019 -21.811 -16.952  0.00  0.00    +0.051 C 
ENDBRANCH  15  16
ENDBRANCH  14  15
ENDBRANCH  12  14
ENDBRANCH   1  11
TORSDOF 6
ENDMDL
MODEL 2
REMARK VINA RESULT:      -7.8      1.537      2.210
REMARK  Name = 736681
REMARK  6 active torsions:
REMARK  status: ('A' for Active; 'I' for Inactive)
REMARK    1  A    between atoms: C_1  and  C_11
REMARK    2  A    between atoms: C_3  and  O_7
REMARK    3  A    between atoms: C_5  and  O_9
REMARK    4  A    between atoms: C_12  and  C_14
REMARK    5  A    between atoms: C_14  and  O_15
REMARK    6  A    between atoms: O_15  and  C_16
REMARK                            x       y       z     vdW  Elec       q    Type
REMARK                         _______ _______ _______ _____ _____    ______ ____
ROOT
ATOM      1  C   UNL     1      35.347 -18.643 -22.249  0.00  0.00    +0.003 C 
ATOM      2  C   UNL     1      35.381 -17.250 -22.313  0.00  0.00    +0.040 C 
ATOM      3  C   UNL     1      35.034 -16.597 -23.497  0.00  0.00    +0.172 C 
ATOM      4  C   UNL     1      34.966 -19.383 -23.367  0.00  0.00    +0.003 C 
ATOM      5  C   UNL     1      34.653 -17.339 -24.615  0.00  0.00    +0.168 C 
ATOM      6  C   UNL     1      34.619 -18.732 -24.551  0.00  0.00    +0.040 C 
ENDROOT
BRANCH   3   7
ATOM      7  O   UNL     1      35.072 -15.236 -23.548  0.00  0.00    -0.468 OA
ATOM      8  C   UNL     1      34.339 -14.530 -22.550  0.00  0.00    +0.253 C 
ENDBRANCH   3   7
BRANCH   5   9
ATOM      9  O   UNL     1      34.314 -16.714 -25.778  0.00  0.00    -0.503 OA
ATOM     10  H   UNL     1      33.524 -16.211 -25.826  0.00  0.00    +0.292 HD
ENDBRANCH   5   9
BRANCH   1  11
ATOM     11  C   UNL     1      35.706 -19.323 -21.015  0.00  0.00    +0.007 C 
ATOM     12  C   UNL     1      35.443 -20.619 -20.733  0.00  0.00    +0.082 C 
BRANCH  12  14
ATOM     13  O   UNL     1      36.690 -20.709 -18.679  0.00  0.00    -0.245 OA
ATOM     14  C   UNL     1      35.872 -21.201 -19.440  0.00  0.00    +0.341 C 
BRANCH  14  15
ATOM     15  O   UNL     1      35.190 -22.366 -19.268  0.00  0.00    -0.445 OA
BRANCH  15  16
ATOM     16  C   UNL     1      33.767 -22.238 -19.186  0.00  0.00    +0.209 C 
ATOM     17  C   UNL     1      33.285 -22.906 -17.917  0.00  0.00    +0.051 C 
ENDBRANCH  15  16
ENDBRANCH  14  15
ENDBRANCH  12  14
ENDBRANCH   1  11
TORSDOF 6
ENDMDL
MODEL 3
REMARK VINA RESULT:      -7.8      1.363      1.689
REMARK  Name = 736681
REMARK  6 active torsions:
REMARK  status: ('A' for Active; 'I' for Inactive)
REMARK    1  A    between atoms: C_1  and  C_11
REMARK    2  A    between atoms: C_3  and  O_7
REMARK    3  A    between atoms: C_5  and  O_9
REMARK    4  A    between atoms: C_12  and  C_14
REMARK    5  A    between atoms: C_14  and  O_15
REMARK    6  A    between atoms: O_15  and  C_16
REMARK                            x       y       z     vdW  Elec       q    Type
REMARK                         _______ _______ _______ _____ _____    ______ ____
ROOT
ATOM      1  C   UNL     1      34.645 -18.686 -22.741  0.00  0.00    +0.003 C 
ATOM      2  C   UNL     1      34.849 -17.322 -22.532  0.00  0.00    +0.040 C 
ATOM      3  C   UNL     1      34.862 -16.445 -23.617  0.00  0.00    +0.172 C 
ATOM      4  C   UNL     1      34.455 -19.174 -24.033  0.00  0.00    +0.003 C 
ATOM      5  C   UNL     1      34.672 -16.933 -24.910  0.00  0.00    +0.168 C 
ATOM      6  C   UNL     1      34.468 -18.297 -25.119  0.00  0.00    +0.040 C 
ENDROOT
BRANCH   3   7
ATOM      7  O   UNL     1      35.063 -15.115 -23.402  0.00  0.00    -0.468 OA
ATOM      8  C   UNL     1      33.964 -14.369 -22.884  0.00  0.00    +0.253 C 
ENDBRANCH   3   7
BRANCH   5   9
ATOM      9  O   UNL     1      34.684 -16.087 -25.979  0.00  0.00    -0.503 OA
ATOM     10  H   UNL     1      34.035 -16.171 -26.650  0.00  0.00    +0.292 HD
ENDBRANCH   5   9
BRANCH   1  11
ATOM     11  C   UNL     1      34.630 -19.600 -21.610  0.00  0.00    +0.007 C 
ATOM     12  C   UNL     1      33.523 -19.997 -20.942  0.00  0.00    +0.082 C 
BRANCH  12  14
ATOM     13  O   UNL     1      32.713 -21.316 -19.103  0.00  0.00    -0.245 OA
ATOM     14  C   UNL     1      33.637 -20.944 -19.809  0.00  0.00    +0.341 C 
BRANCH  14  15
ATOM     15  O   UNL     1      34.943 -21.313 -19.711  0.00  0.00    -0.445 OA
BRANCH  15  16
ATOM     16  C   UNL     1      35.285 -22.052 -18.534  0.00  0.00    +0.209 C 
ATOM     17  C   UNL     1      36.664 -21.631 -18.073  0.00  0.00    +0.051 C 
ENDBRANCH  15  16
ENDBRANCH  14  15
ENDBRANCH  12  14
ENDBRANCH   1  11
TORSDOF 6
ENDMDL
MODEL 4
REMARK VINA RESULT:      -7.6      1.272      6.419
REMARK  Name = 736681
REMARK  6 active torsions:
REMARK  status: ('A' for Active; 'I' for Inactive)
REMARK    1  A    between atoms: C_1  and  C_11
REMARK    2  A    between atoms: C_3  and  O_7
REMARK    3  A    between atoms: C_5  and  O_9
REMARK    4  A    between atoms: C_12  and  C_14
REMARK    5  A    between atoms: C_14  and  O_15
REMARK    6  A    between atoms: O_15  and  C_16
REMARK                            x       y       z     vdW  Elec       q    Type
REMARK                         _______ _______ _______ _____ _____    ______ ____
ROOT
ATOM      1  C   UNL     1      34.529 -19.869 -20.985  0.00  0.00    +0.003 C 
ATOM      2  C   UNL     1      35.642 -20.438 -20.366  0.00  0.00    +0.040 C 
ATOM      3  C   UNL     1      35.473 -21.465 -19.437  0.00  0.00    +0.172 C 
ATOM      4  C   UNL     1      33.248 -20.326 -20.676  0.00  0.00    +0.003 C 
ATOM      5  C   UNL     1      34.192 -21.922 -19.127  0.00  0.00    +0.168 C 
ATOM      6  C   UNL     1      33.079 -21.353 -19.746  0.00  0.00    +0.040 C 
ENDROOT
BRANCH   3   7
ATOM      7  O   UNL     1      36.567 -22.014 -18.838  0.00  0.00    -0.468 OA
ATOM      8  C   UNL     1      36.914 -21.521 -17.546  0.00  0.00    +0.253 C 
ENDBRANCH   3   7
BRANCH   5   9
ATOM      9  O   UNL     1      34.014 -22.923 -18.220  0.00  0.00    -0.503 OA
ATOM     10  H   UNL     1      33.468 -23.655 -18.431  0.00  0.00    +0.292 HD
ENDBRANCH   5   9
BRANCH   1  11
ATOM     11  C   UNL     1      34.704 -18.800 -21.955  0.00  0.00    +0.007 C 
ATOM     12  C   UNL     1      34.674 -18.952 -23.298  0.00  0.00    +0.082 C 
BRANCH  12  14
ATOM     13  O   UNL     1      34.680 -17.772 -25.393  0.00  0.00    -0.245 OA
ATOM     14  C   UNL     1      34.856 -17.780 -24.184  0.00  0.00    +0.341 C 
BRANCH  14  15
ATOM     15  O   UNL     1      35.247 -16.734 -23.408  0.00  0.00    -0.445 OA
BRANCH  15  16
ATOM     16  C   UNL     1      34.544 -15.507 -23.629  0.00  0.00    +0.209 C 
ATOM     17  C   UNL     1      33.702 -15.195 -22.410  0.00  0.00    +0.051 C 
ENDBRANCH  15  16
ENDBRANCH  14  15
ENDBRANCH  12  14
ENDBRANCH   1  11
TORSDOF 6
ENDMDL
MODEL 5
REMARK VINA RESULT:      -7.4      4.471      8.725
REMARK  Name = 736681
REMARK  6 active torsions:
REMARK  status: ('A' for Active; 'I' for Inactive)
REMARK    1  A    between atoms: C_1  and  C_11
REMARK    2  A    between atoms: C_3  and  O_7
REMARK    3  A    between atoms: C_5  and  O_9
REMARK    4  A    between atoms: C_12  and  C_14
REMARK    5  A    between atoms: C_14  and  O_15
REMARK    6  A    between atoms: O_15  and  C_16
REMARK                            x       y       z     vdW  Elec       q    Type
REMARK                         _______ _______ _______ _____ _____    ______ ____
ROOT
ATOM      1  C   UNL     1      31.860 -23.253 -16.025  0.00  0.00    +0.003 C 
ATOM      2  C   UNL     1      32.758 -23.599 -15.015  0.00  0.00    +0.040 C 
ATOM      3  C   UNL     1      32.291 -24.175 -13.833  0.00  0.00    +0.172 C 
ATOM      4  C   UNL     1      30.495 -23.483 -15.853  0.00  0.00    +0.003 C 
ATOM      5  C   UNL     1      30.925 -24.405 -13.662  0.00  0.00    +0.168 C 
ATOM      6  C   UNL     1      30.027 -24.059 -14.672  0.00  0.00    +0.040 C 
ENDROOT
BRANCH   3   7
ATOM      7  O   UNL     1      33.177 -24.508 -12.853  0.00  0.00    -0.468 OA
ATOM      8  C   UNL     1      34.533 -24.114 -13.045  0.00  0.00    +0.253 C 
ENDBRANCH   3   7
BRANCH   5   9
ATOM      9  O   UNL     1      30.456 -24.964 -12.512  0.00  0.00    -0.503 OA
ATOM     10  H   UNL     1      29.543 -24.916 -12.306  0.00  0.00    +0.292 HD
ENDBRANCH   5   9
BRANCH   1  11
ATOM     11  C   UNL     1      32.347 -22.654 -17.257  0.00  0.00    +0.007 C 
ATOM     12  C   UNL     1      33.390 -23.110 -17.987  0.00  0.00    +0.082 C 
BRANCH  12  14
ATOM     13  O   UNL     1      33.037 -21.769 -19.951  0.00  0.00    -0.245 OA
ATOM     14  C   UNL     1      33.784 -22.416 -19.235  0.00  0.00    +0.341 C 
BRANCH  14  15
ATOM     15  O   UNL     1      35.114 -22.634 -19.424  0.00  0.00    -0.445 OA
BRANCH  15  16
ATOM     16  C   UNL     1      35.983 -21.635 -18.879  0.00  0.00    +0.209 C 
ATOM     17  C   UNL     1      36.448 -20.726 -19.996  0.00  0.00    +0.051 C 
ENDBRANCH  15  16
ENDBRANCH  14  15
ENDBRANCH  12  14
ENDBRANCH   1  11
TORSDOF 6
ENDMDL
MODEL 6
REMARK VINA RESULT:      -7.2      2.557      4.414
REMARK  Name = 736681
REMARK  6 active torsions:
REMARK  status: ('A' for Active; 'I' for Inactive)
REMARK    1  A    between atoms: C_1  and  C_11
REMARK    2  A    between atoms: C_3  and  O_7
REMARK    3  A    between atoms: C_5  and  O_9
REMARK    4  A    between atoms: C_12  and  C_14
REMARK    5  A    between atoms: C_14  and  O_15
REMARK    6  A    between atoms: O_15  and  C_16
REMARK                            x       y       z     vdW  Elec       q    Type
REMARK                         _______ _______ _______ _____ _____    ______ ____
ROOT
ATOM      1  C   UNL     1      34.126 -15.530 -21.378  0.00  0.00    +0.003 C 
ATOM      2  C   UNL     1      34.175 -15.024 -22.677  0.00  0.00    +0.040 C 
ATOM      3  C   UNL     1      33.335 -13.974 -23.049  0.00  0.00    +0.172 C 
ATOM      4  C   UNL     1      33.236 -14.988 -20.451  0.00  0.00    +0.003 C 
ATOM      5  C   UNL     1      32.445 -13.432 -22.121  0.00  0.00    +0.168 C 
ATOM      6  C   UNL     1      32.395 -13.939 -20.822  0.00  0.00    +0.040 C 
ENDROOT
BRANCH   3   7
ATOM      7  O   UNL     1      33.391 -13.488 -24.320  0.00  0.00    -0.468 OA
ATOM      8  C   UNL     1      33.055 -14.388 -25.373  0.00  0.00    +0.253 C 
ENDBRANCH   3   7
BRANCH   5   9
ATOM      9  O   UNL     1      31.617 -12.409 -22.473  0.00  0.00    -0.503 OA
ATOM     10  H   UNL     1      31.976 -11.610 -22.809  0.00  0.00    +0.292 HD
ENDBRANCH   5   9
BRANCH   1  11
ATOM     11  C   UNL     1      35.003 -16.623 -20.989  0.00  0.00    +0.007 C 
ATOM     12  C   UNL     1      35.006 -17.856 -21.543  0.00  0.00    +0.082 C 
BRANCH  12  14
ATOM     13  O   UNL     1      37.139 -18.954 -21.373  0.00  0.00    -0.245 OA
ATOM     14  C   UNL     1      35.959 -18.885 -21.066  0.00  0.00    +0.341 C 
BRANCH  14  15
ATOM     15  O   UNL     1      35.280 -19.720 -20.234  0.00  0.00    -0.445 OA
BRANCH  15  16
ATOM     16  C   UNL     1      33.959 -20.070 -20.659  0.00  0.00    +0.209 C 
ATOM     17  C   UNL     1      33.428 -21.169 -19.764  0.00  0.00    +0.051 C 
ENDBRANCH  15  16
ENDBRANCH  14  15
ENDBRANCH  12  14
ENDBRANCH   1  11
TORSDOF 6
ENDMDL
MODEL 7
REMARK VINA RESULT:      -7.2      1.595      2.709
REMARK  Name = 736681
REMARK  6 active torsions:
REMARK  status: ('A' for Active; 'I' for Inactive)
REMARK    1  A    between atoms: C_1  and  C_11
REMARK    2  A    between atoms: C_3  and  O_7
REMARK    3  A    between atoms: C_5  and  O_9
REMARK    4  A    between atoms: C_12  and  C_14
REMARK    5  A    between atoms: C_14  and  O_15
REMARK    6  A    between atoms: O_15  and  C_16
REMARK                            x       y       z     vdW  Elec       q    Type
REMARK                         _______ _______ _______ _____ _____    ______ ____
ROOT
ATOM      1  C   UNL     1      34.508 -17.272 -21.565  0.00  0.00    +0.003 C 
ATOM      2  C   UNL     1      34.622 -17.119 -22.947  0.00  0.00    +0.040 C 
ATOM      3  C   UNL     1      34.592 -15.844 -23.512  0.00  0.00    +0.172 C 
ATOM      4  C   UNL     1      34.362 -16.151 -20.749  0.00  0.00    +0.003 C 
ATOM      5  C   UNL     1      34.446 -14.723 -22.695  0.00  0.00    +0.168 C 
ATOM      6  C   UNL     1      34.331 -14.876 -21.314  0.00  0.00    +0.040 C 
ENDROOT
BRANCH   3   7
ATOM      7  O   UNL     1      34.704 -15.707 -24.863  0.00  0.00    -0.468 OA
ATOM      8  C   UNL     1      33.495 -15.722 -25.619  0.00  0.00    +0.253 C 
ENDBRANCH   3   7
BRANCH   5   9
ATOM      9  O   UNL     1      34.412 -13.472 -23.236  0.00  0.00    -0.503 OA
ATOM     10  H   UNL     1      35.206 -12.985 -23.340  0.00  0.00    +0.292 HD
ENDBRANCH   5   9
BRANCH   1  11
ATOM     11  C   UNL     1      34.542 -18.601 -20.975  0.00  0.00    +0.007 C 
ATOM     12  C   UNL     1      33.479 -19.427 -20.851  0.00  0.00    +0.082 C 
BRANCH  12  14
ATOM     13  O   UNL     1      32.745 -21.569 -20.042  0.00  0.00    -0.245 OA
ATOM     14  C   UNL     1      33.644 -20.766 -20.239  0.00  0.00    +0.341 C 
BRANCH  14  15
ATOM     15  O   UNL     1      34.963 -20.925 -19.948  0.00  0.00    -0.445 OA
BRANCH  15  16
ATOM     16  C   UNL     1      35.264 -21.967 -19.013  0.00  0.00    +0.209 C 
ATOM     17  C   UNL     1      36.547 -21.622 -18.288  0.00  0.00    +0.051 C 
ENDBRANCH  15  16
ENDBRANCH  14  15
ENDBRANCH  12  14
ENDBRANCH   1  11
TORSDOF 6
ENDMDL
MODEL 8
REMARK VINA RESULT:      -7.1      1.295      6.374
REMARK  Name = 736681
REMARK  6 active torsions:
REMARK  status: ('A' for Active; 'I' for Inactive)
REMARK    1  A    between atoms: C_1  and  C_11
REMARK    2  A    between atoms: C_3  and  O_7
REMARK    3  A    between atoms: C_5  and  O_9
REMARK    4  A    between atoms: C_12  and  C_14
REMARK    5  A    between atoms: C_14  and  O_15
REMARK    6  A    between atoms: O_15  and  C_16
REMARK                            x       y       z     vdW  Elec       q    Type
REMARK                         _______ _______ _______ _____ _____    ______ ____
ROOT
ATOM      1  C   UNL     1      34.748 -19.563 -21.004  0.00  0.00    +0.003 C 
ATOM      2  C   UNL     1      33.679 -20.345 -20.568  0.00  0.00    +0.040 C 
ATOM      3  C   UNL     1      33.904 -21.411 -19.696  0.00  0.00    +0.172 C 
ATOM      4  C   UNL     1      36.042 -19.846 -20.569  0.00  0.00    +0.003 C 
ATOM      5  C   UNL     1      35.199 -21.694 -19.261  0.00  0.00    +0.168 C 
ATOM      6  C   UNL     1      36.268 -20.912 -19.698  0.00  0.00    +0.040 C 
ENDROOT
BRANCH   3   7
ATOM      7  O   UNL     1      32.852 -22.168 -19.277  0.00  0.00    -0.468 OA
ATOM      8  C   UNL     1      32.773 -22.453 -17.883  0.00  0.00    +0.253 C 
ENDBRANCH   3   7
BRANCH   5   9
ATOM      9  O   UNL     1      35.432 -22.733 -18.412  0.00  0.00    -0.503 OA
ATOM     10  H   UNL     1      35.732 -22.567 -17.539  0.00  0.00    +0.292 HD
ENDBRANCH   5   9
BRANCH   1  11
ATOM     11  C   UNL     1      34.514 -18.450 -21.911  0.00  0.00    +0.007 C 
ATOM     12  C   UNL     1      35.212 -18.205 -23.042  0.00  0.00    +0.082 C 
BRANCH  12  14
ATOM     13  O   UNL     1      34.219 -17.086 -24.924  0.00  0.00    -0.245 OA
ATOM     14  C   UNL     1      34.869 -17.042 -23.892  0.00  0.00    +0.341 C 
BRANCH  14  15
ATOM     15  O   UNL     1      35.407 -15.936 -23.310  0.00  0.00    -0.445 OA
BRANCH  15  16
ATOM     16  C   UNL     1      34.486 -14.874 -23.041  0.00  0.00    +0.209 C 
ATOM     17  C   UNL     1      34.300 -14.751 -21.544  0.00  0.00    +0.051 C 
ENDBRANCH  15  16
ENDBRANCH  14  15
ENDBRANCH  12  14
ENDBRANCH   1  11
TORSDOF 6
ENDMDL
MODEL 9
REMARK VINA RESULT:      -7.1      3.125      8.377
REMARK  Name = 736681
REMARK  6 active torsions:
REMARK  status: ('A' for Active; 'I' for Inactive)
REMARK    1  A    between atoms: C_1  and  C_11
REMARK    2  A    between atoms: C_3  and  O_7
REMARK    3  A    between atoms: C_5  and  O_9
REMARK    4  A    between atoms: C_12  and  C_14
REMARK    5  A    between atoms: C_14  and  O_15
REMARK    6  A    between atoms: O_15  and  C_16
REMARK                            x       y       z     vdW  Elec       q    Type
REMARK                         _______ _______ _______ _____ _____    ______ ____
ROOT
ATOM      1  C   UNL     1      36.450 -22.549 -16.588  0.00  0.00    +0.003 C 
ATOM      2  C   UNL     1      37.573 -22.958 -15.869  0.00  0.00    +0.040 C 
ATOM      3  C   UNL     1      37.438 -23.872 -14.823  0.00  0.00    +0.172 C 
ATOM      4  C   UNL     1      35.191 -23.053 -16.261  0.00  0.00    +0.003 C 
ATOM      5  C   UNL     1      36.178 -24.375 -14.496  0.00  0.00    +0.168 C 
ATOM      6  C   UNL     1      35.055 -23.966 -15.215  0.00  0.00    +0.040 C 
ENDROOT
BRANCH   3   7
ATOM      7  O   UNL     1      38.542 -24.263 -14.128  0.00  0.00    -0.468 OA
ATOM      8  C   UNL     1      39.390 -25.226 -14.749  0.00  0.00    +0.253 C 
ENDBRANCH   3   7
BRANCH   5   9
ATOM      9  O   UNL     1      36.033 -25.266 -13.476  0.00  0.00    -0.503 OA
ATOM     10  H   UNL     1      36.656 -25.958 -13.365  0.00  0.00    +0.292 HD
ENDBRANCH   5   9
BRANCH   1  11
ATOM     11  C   UNL     1      36.590 -21.599 -17.679  0.00  0.00    +0.007 C 
ATOM     12  C   UNL     1      35.934 -21.663 -18.859  0.00  0.00    +0.082 C 
BRANCH  12  14
ATOM     13  O   UNL     1      37.068 -19.812 -19.895  0.00  0.00    -0.245 OA
ATOM     14  C   UNL     1      36.156 -20.624 -19.892  0.00  0.00    +0.341 C 
BRANCH  14  15
ATOM     15  O   UNL     1      35.168 -20.749 -20.819  0.00  0.00    -0.445 OA
BRANCH  15  16
ATOM     16  C   UNL     1      34.247 -19.655 -20.885  0.00  0.00    +0.209 C 
ATOM     17  C   UNL     1      32.875 -20.140 -20.467  0.00  0.00    +0.051 C 
ENDBRANCH  15  16
ENDBRANCH  14  15
ENDBRANCH  12  14
ENDBRANCH   1  11
TORSDOF 6
ENDMDL
