MODEL 1
REMARK VINA RESULT:     -11.5      0.000      0.000
REMARK  Name = 5287979
REMARK  6 active torsions:
REMARK  status: ('A' for Active; 'I' for Inactive)
REMARK    1  A    between atoms: C_1  and  C_7
REMARK    2  A    between atoms: C_2  and  C_21
REMARK    3  A    between atoms: C_3  and  N_25
REMARK    4  A    between atoms: C_10  and  C_15
REMARK    5  A    between atoms: N_14  and  O_17
REMARK    6  A    between atoms: C_26  and  C_28
REMARK                            x       y       z     vdW  Elec       q    Type
REMARK                         _______ _______ _______ _____ _____    ______ ____
ROOT
ATOM      1  C   UNL     1      34.619 -23.415 -16.540  0.00  0.00    +0.001 C 
ATOM      2  C   UNL     1      32.244 -23.054 -16.806  0.00  0.00    +0.055 C 
ATOM      3  C   UNL     1      33.801 -22.028 -18.342  0.00  0.00    +0.051 C 
ATOM      4  C   UNL     1      33.308 -23.637 -16.117  0.00  0.00    +0.005 C 
ATOM      5  C   UNL     1      34.865 -22.611 -17.653  0.00  0.00    +0.015 C 
ATOM      6  C   UNL     1      32.491 -22.250 -17.919  0.00  0.00    +0.019 C 
ENDROOT
BRANCH   1   7
ATOM      7  C   UNL     1      35.722 -24.019 -15.826  0.00  0.00    +0.000 C 
ATOM      8  C   UNL     1      35.573 -25.280 -15.249  0.00  0.00    +0.000 C 
ATOM      9  C   UNL     1      36.937 -23.341 -15.714  0.00  0.00    +0.000 C 
ATOM     10  C   UNL     1      37.850 -25.186 -14.448  0.00  0.00    +0.055 C 
ATOM     11  C   UNL     1      36.636 -25.863 -14.561  0.00  0.00    +0.005 C 
ATOM     12  C   UNL     1      38.000 -23.924 -15.025  0.00  0.00    +0.005 C 
BRANCH  10  15
ATOM     13  O   UNL     1      38.891 -25.985 -12.502  0.00  0.00    -0.268 OA
ATOM     14  N   UNL     1      40.084 -26.129 -14.469  0.00  0.00    -0.193 N 
ATOM     15  C   UNL     1      38.958 -25.793 -13.729  0.00  0.00    +0.268 C 
ATOM     16  H   UNL     1      40.128 -25.974 -15.441  0.00  0.00    +0.183 HD
BRANCH  14  17
ATOM     17  O   UNL     1      41.154 -26.701 -13.767  0.00  0.00    -0.295 OA
ATOM     18  H   UNL     1      40.810 -27.250 -13.044  0.00  0.00    +0.241 HD
ENDBRANCH  14  17
ENDBRANCH  10  15
ENDBRANCH   1   7
BRANCH   2  21
ATOM     19  O   UNL     1      29.977 -22.742 -17.018  0.00  0.00    -0.270 OA
ATOM     20  N   UNL     1      30.655 -24.086 -15.230  0.00  0.00    -0.273 N 
ATOM     21  C   UNL     1      30.878 -23.285 -16.364  0.00  0.00    +0.249 C 
ATOM     22  C   UNL     1      31.751 -24.707 -14.489  0.00  0.00    +0.115 C 
ATOM     23  C   UNL     1      29.318 -24.350 -14.718  0.00  0.00    +0.115 C 
ENDBRANCH   2  21
BRANCH   3  25
ATOM     24  O   UNL     1      36.304 -20.616 -19.195  0.00  0.00    -0.270 OA
ATOM     25  N   UNL     1      34.048 -21.224 -19.455  0.00  0.00    -0.280 N 
ATOM     26  C   UNL     1      35.243 -20.584 -19.809  0.00  0.00    +0.249 C 
ATOM     27  H   UNL     1      33.289 -21.090 -20.069  0.00  0.00    +0.155 HD
BRANCH  26  28
ATOM     28  C   UNL     1      35.185 -19.768 -21.050  0.00  0.00    +0.054 C 
ATOM     29  C   UNL     1      34.035 -19.793 -21.810  0.00  0.00    +0.004 C 
ATOM     30  C   UNL     1      36.285 -19.013 -21.401  0.00  0.00    +0.004 C 
ATOM     31  C   UNL     1      35.078 -18.255 -23.353  0.00  0.00    -0.022 C 
ATOM     32  C   UNL     1      33.981 -19.028 -22.975  0.00  0.00    -0.004 C 
ATOM     33  C   UNL     1      36.231 -18.248 -22.566  0.00  0.00    -0.004 C 
ATOM     34  C   UNL     1      35.021 -17.436 -24.598  0.00  0.00    +0.031 C 
ENDBRANCH  26  28
ENDBRANCH   3  25
TORSDOF 6
ENDMDL
MODEL 2
REMARK VINA RESULT:     -11.1      2.329      8.476
REMARK  Name = 5287979
REMARK  6 active torsions:
REMARK  status: ('A' for Active; 'I' for Inactive)
REMARK    1  A    between atoms: C_1  and  C_7
REMARK    2  A    between atoms: C_2  and  C_21
REMARK    3  A    between atoms: C_3  and  N_25
REMARK    4  A    between atoms: C_10  and  C_15
REMARK    5  A    between atoms: N_14  and  O_17
REMARK    6  A    between atoms: C_26  and  C_28
REMARK                            x       y       z     vdW  Elec       q    Type
REMARK                         _______ _______ _______ _____ _____    ______ ____
ROOT
ATOM      1  C   UNL     1      34.007 -21.807 -18.620  0.00  0.00    +0.001 C 
ATOM      2  C   UNL     1      32.530 -22.886 -17.041  0.00  0.00    +0.055 C 
ATOM      3  C   UNL     1      34.914 -23.259 -16.914  0.00  0.00    +0.051 C 
ATOM      4  C   UNL     1      32.720 -22.042 -18.135  0.00  0.00    +0.005 C 
ATOM      5  C   UNL     1      35.104 -22.415 -18.008  0.00  0.00    +0.015 C 
ATOM      6  C   UNL     1      33.628 -23.494 -16.430  0.00  0.00    +0.019 C 
ENDROOT
BRANCH   1   7
ATOM      7  C   UNL     1      34.205 -20.931 -19.754  0.00  0.00    +0.000 C 
ATOM      8  C   UNL     1      35.489 -20.713 -20.251  0.00  0.00    +0.000 C 
ATOM      9  C   UNL     1      33.110 -20.304 -20.351  0.00  0.00    +0.000 C 
ATOM     10  C   UNL     1      34.587 -19.242 -21.942  0.00  0.00    +0.055 C 
ATOM     11  C   UNL     1      35.680 -19.869 -21.345  0.00  0.00    +0.005 C 
ATOM     12  C   UNL     1      33.302 -19.460 -21.445  0.00  0.00    +0.005 C 
BRANCH  10  15
ATOM     13  O   UNL     1      34.346 -18.666 -24.205  0.00  0.00    -0.268 OA
ATOM     14  N   UNL     1      35.495 -17.189 -22.860  0.00  0.00    -0.193 N 
ATOM     15  C   UNL     1      34.786 -18.362 -23.082  0.00  0.00    +0.268 C 
ATOM     16  H   UNL     1      35.840 -16.957 -21.966  0.00  0.00    +0.183 HD
BRANCH  14  17
ATOM     17  O   UNL     1      35.696 -16.353 -23.966  0.00  0.00    -0.295 OA
ATOM     18  H   UNL     1      36.103 -16.861 -24.686  0.00  0.00    +0.241 HD
ENDBRANCH  14  17
ENDBRANCH  10  15
ENDBRANCH   1   7
BRANCH   2  21
ATOM     19  O   UNL     1      30.247 -22.683 -17.203  0.00  0.00    -0.270 OA
ATOM     20  N   UNL     1      31.033 -23.839 -15.331  0.00  0.00    -0.273 N 
ATOM     21  C   UNL     1      31.188 -23.132 -16.536  0.00  0.00    +0.249 C 
ATOM     22  C   UNL     1      32.175 -24.350 -14.576  0.00  0.00    +0.115 C 
ATOM     23  C   UNL     1      29.724 -24.110 -14.754  0.00  0.00    +0.115 C 
ENDBRANCH   2  21
BRANCH   3  25
ATOM     24  O   UNL     1      36.108 -22.821 -14.199  0.00  0.00    -0.270 OA
ATOM     25  N   UNL     1      36.011 -23.867 -16.303  0.00  0.00    -0.280 N 
ATOM     26  C   UNL     1      36.530 -23.624 -15.025  0.00  0.00    +0.249 C 
ATOM     27  H   UNL     1      36.478 -24.551 -16.835  0.00  0.00    +0.155 HD
BRANCH  26  28
ATOM     28  C   UNL     1      37.735 -24.418 -14.665  0.00  0.00    +0.054 C 
ATOM     29  C   UNL     1      37.712 -25.177 -13.514  0.00  0.00    +0.004 C 
ATOM     30  C   UNL     1      38.835 -24.368 -15.495  0.00  0.00    +0.004 C 
ATOM     31  C   UNL     1      39.970 -25.889 -13.998  0.00  0.00    -0.022 C 
ATOM     32  C   UNL     1      38.842 -25.921 -13.177  0.00  0.00    -0.004 C 
ATOM     33  C   UNL     1      39.966 -25.112 -15.157  0.00  0.00    -0.004 C 
ATOM     34  C   UNL     1      41.178 -26.685 -13.638  0.00  0.00    +0.031 C 
ENDBRANCH  26  28
ENDBRANCH   3  25
TORSDOF 6
ENDMDL
MODEL 3
REMARK VINA RESULT:      -9.6     11.435     15.351
REMARK  Name = 5287979
REMARK  6 active torsions:
REMARK  status: ('A' for Active; 'I' for Inactive)
REMARK    1  A    between atoms: C_1  and  C_7
REMARK    2  A    between atoms: C_2  and  C_21
REMARK    3  A    between atoms: C_3  and  N_25
REMARK    4  A    between atoms: C_10  and  C_15
REMARK    5  A    between atoms: N_14  and  O_17
REMARK    6  A    between atoms: C_26  and  C_28
REMARK                            x       y       z     vdW  Elec       q    Type
REMARK                         _______ _______ _______ _____ _____    ______ ____
ROOT
ATOM      1  C   UNL     1      32.842 -10.666 -23.268  0.00  0.00    +0.001 C 
ATOM      2  C   UNL     1      32.336  -9.334 -21.317  0.00  0.00    +0.055 C 
ATOM      3  C   UNL     1      32.835  -8.254 -23.419  0.00  0.00    +0.051 C 
ATOM      4  C   UNL     1      32.507 -10.582 -21.917  0.00  0.00    +0.005 C 
ATOM      5  C   UNL     1      33.006  -9.502 -24.019  0.00  0.00    +0.015 C 
ATOM      6  C   UNL     1      32.499  -8.170 -22.068  0.00  0.00    +0.019 C 
ENDROOT
BRANCH   1   7
ATOM      7  C   UNL     1      33.019 -11.960 -23.892  0.00  0.00    +0.000 C 
ATOM      8  C   UNL     1      33.362 -12.043 -25.241  0.00  0.00    +0.000 C 
ATOM      9  C   UNL     1      32.847 -13.124 -23.143  0.00  0.00    +0.000 C 
ATOM     10  C   UNL     1      33.360 -14.454 -25.094  0.00  0.00    +0.055 C 
ATOM     11  C   UNL     1      33.532 -13.290 -25.842  0.00  0.00    +0.005 C 
ATOM     12  C   UNL     1      33.018 -14.371 -23.744  0.00  0.00    +0.005 C 
BRANCH  10  15
ATOM     13  O   UNL     1      32.819 -16.102 -26.676  0.00  0.00    -0.268 OA
ATOM     14  N   UNL     1      34.522 -16.580 -25.198  0.00  0.00    -0.193 N 
ATOM     15  C   UNL     1      33.537 -15.754 -25.721  0.00  0.00    +0.268 C 
ATOM     16  H   UNL     1      35.085 -16.296 -24.441  0.00  0.00    +0.183 HD
BRANCH  14  17
ATOM     17  O   UNL     1      34.677 -17.838 -25.798  0.00  0.00    -0.295 OA
ATOM     18  H   UNL     1      33.803 -18.211 -25.996  0.00  0.00    +0.241 HD
ENDBRANCH  14  17
ENDBRANCH  10  15
ENDBRANCH   1   7
BRANCH   2  21
ATOM     19  O   UNL     1      32.013  -8.122 -19.391  0.00  0.00    -0.270 OA
ATOM     20  N   UNL     1      31.657 -10.425 -19.213  0.00  0.00    -0.273 N 
ATOM     21  C   UNL     1      31.986  -9.247 -19.907  0.00  0.00    +0.249 C 
ATOM     22  C   UNL     1      31.640 -11.733 -19.865  0.00  0.00    +0.115 C 
ATOM     23  C   UNL     1      31.312 -10.421 -17.799  0.00  0.00    +0.115 C 
ENDBRANCH   2  21
BRANCH   3  25
ATOM     24  O   UNL     1      30.811  -6.245 -24.343  0.00  0.00    -0.270 OA
ATOM     25  N   UNL     1      32.998  -7.090 -24.171  0.00  0.00    -0.280 N 
ATOM     26  C   UNL     1      32.013  -6.181 -24.577  0.00  0.00    +0.249 C 
ATOM     27  H   UNL     1      33.920  -6.881 -24.449  0.00  0.00    +0.155 HD
BRANCH  26  28
ATOM     28  C   UNL     1      32.499  -5.041 -25.400  0.00  0.00    +0.054 C 
ATOM     29  C   UNL     1      31.878  -3.817 -25.273  0.00  0.00    +0.004 C 
ATOM     30  C   UNL     1      33.555  -5.247 -26.263  0.00  0.00    +0.004 C 
ATOM     31  C   UNL     1      33.399  -2.928 -26.926  0.00  0.00    -0.022 C 
ATOM     32  C   UNL     1      32.333  -2.749 -26.045  0.00  0.00    -0.004 C 
ATOM     33  C   UNL     1      34.010  -4.179 -27.035  0.00  0.00    -0.004 C 
ATOM     34  C   UNL     1      33.887  -1.786 -27.750  0.00  0.00    +0.031 C 
ENDBRANCH  26  28
ENDBRANCH   3  25
TORSDOF 6
ENDMDL
MODEL 4
REMARK VINA RESULT:      -9.2      6.903     12.957
REMARK  Name = 5287979
REMARK  6 active torsions:
REMARK  status: ('A' for Active; 'I' for Inactive)
REMARK    1  A    between atoms: C_1  and  C_7
REMARK    2  A    between atoms: C_2  and  C_21
REMARK    3  A    between atoms: C_3  and  N_25
REMARK    4  A    between atoms: C_10  and  C_15
REMARK    5  A    between atoms: N_14  and  O_17
REMARK    6  A    between atoms: C_26  and  C_28
REMARK                            x       y       z     vdW  Elec       q    Type
REMARK                         _______ _______ _______ _____ _____    ______ ____
ROOT
ATOM      1  C   UNL     1      32.906 -13.505 -22.448  0.00  0.00    +0.001 C 
ATOM      2  C   UNL     1      33.255 -14.663 -24.540  0.00  0.00    +0.055 C 
ATOM      3  C   UNL     1      33.323 -15.886 -22.458  0.00  0.00    +0.051 C 
ATOM      4  C   UNL     1      32.999 -13.484 -23.840  0.00  0.00    +0.005 C 
ATOM      5  C   UNL     1      33.067 -14.706 -21.758  0.00  0.00    +0.015 C 
ATOM      6  C   UNL     1      33.416 -15.864 -23.849  0.00  0.00    +0.019 C 
ENDROOT
BRANCH   1   7
ATOM      7  C   UNL     1      32.640 -12.283 -21.721  0.00  0.00    +0.000 C 
ATOM      8  C   UNL     1      32.735 -11.052 -22.369  0.00  0.00    +0.000 C 
ATOM      9  C   UNL     1      32.290 -12.335 -20.372  0.00  0.00    +0.000 C 
ATOM     10  C   UNL     1      32.129  -9.925 -20.320  0.00  0.00    +0.055 C 
ATOM     11  C   UNL     1      32.480  -9.873 -21.669  0.00  0.00    +0.005 C 
ATOM     12  C   UNL     1      32.034 -11.156 -19.672  0.00  0.00    +0.005 C 
BRANCH  10  15
ATOM     13  O   UNL     1      30.863  -8.596 -18.858  0.00  0.00    -0.268 OA
ATOM     14  N   UNL     1      32.761  -7.651 -19.761  0.00  0.00    -0.193 N 
ATOM     15  C   UNL     1      31.863  -8.696 -19.590  0.00  0.00    +0.268 C 
ATOM     16  H   UNL     1      33.550  -7.740 -20.344  0.00  0.00    +0.183 HD
BRANCH  14  17
ATOM     17  O   UNL     1      32.490  -6.464 -19.066  0.00  0.00    -0.295 OA
ATOM     18  H   UNL     1      31.935  -5.887 -19.615  0.00  0.00    +0.241 HD
ENDBRANCH  14  17
ENDBRANCH  10  15
ENDBRANCH   1   7
BRANCH   2  21
ATOM     19  O   UNL     1      33.226 -15.722 -26.579  0.00  0.00    -0.270 OA
ATOM     20  N   UNL     1      33.597 -13.416 -26.638  0.00  0.00    -0.273 N 
ATOM     21  C   UNL     1      33.353 -14.640 -25.992  0.00  0.00    +0.249 C 
ATOM     22  C   UNL     1      33.741 -12.162 -25.902  0.00  0.00    +0.115 C 
ATOM     23  C   UNL     1      33.724 -13.315 -28.086  0.00  0.00    +0.115 C 
ENDBRANCH   2  21
BRANCH   3  25
ATOM     24  O   UNL     1      35.554 -17.886 -22.543  0.00  0.00    -0.270 OA
ATOM     25  N   UNL     1      33.484 -17.087 -21.766  0.00  0.00    -0.280 N 
ATOM     26  C   UNL     1      34.552 -17.989 -21.844  0.00  0.00    +0.249 C 
ATOM     27  H   UNL     1      32.758 -17.330 -21.147  0.00  0.00    +0.155 HD
BRANCH  26  28
ATOM     28  C   UNL     1      34.422 -19.205 -20.997  0.00  0.00    +0.054 C 
ATOM     29  C   UNL     1      35.564 -19.870 -20.608  0.00  0.00    +0.004 C 
ATOM     30  C   UNL     1      33.160 -19.626 -20.629  0.00  0.00    +0.004 C 
ATOM     31  C   UNL     1      34.178 -21.459 -19.428  0.00  0.00    -0.022 C 
ATOM     32  C   UNL     1      35.441 -21.011 -19.814  0.00  0.00    -0.004 C 
ATOM     33  C   UNL     1      33.037 -20.766 -19.836  0.00  0.00    -0.004 C 
ATOM     34  C   UNL     1      34.046 -22.677 -18.578  0.00  0.00    +0.031 C 
ENDBRANCH  26  28
ENDBRANCH   3  25
TORSDOF 6
ENDMDL
MODEL 5
REMARK VINA RESULT:      -8.9     10.266     14.281
REMARK  Name = 5287979
REMARK  6 active torsions:
REMARK  status: ('A' for Active; 'I' for Inactive)
REMARK    1  A    between atoms: C_1  and  C_7
REMARK    2  A    between atoms: C_2  and  C_21
REMARK    3  A    between atoms: C_3  and  N_25
REMARK    4  A    between atoms: C_10  and  C_15
REMARK    5  A    between atoms: N_14  and  O_17
REMARK    6  A    between atoms: C_26  and  C_28
REMARK                            x       y       z     vdW  Elec       q    Type
REMARK                         _______ _______ _______ _____ _____    ______ ____
ROOT
ATOM      1  C   UNL     1      33.069 -11.556 -23.071  0.00  0.00    +0.001 C 
ATOM      2  C   UNL     1      32.249 -10.085 -21.339  0.00  0.00    +0.055 C 
ATOM      3  C   UNL     1      32.870  -9.185 -23.493  0.00  0.00    +0.051 C 
ATOM      4  C   UNL     1      32.588 -11.366 -21.775  0.00  0.00    +0.005 C 
ATOM      5  C   UNL     1      33.209 -10.466 -23.930  0.00  0.00    +0.015 C 
ATOM      6  C   UNL     1      32.389  -8.994 -22.198  0.00  0.00    +0.019 C 
ENDROOT
BRANCH   1   7
ATOM      7  C   UNL     1      33.421 -12.884 -23.525  0.00  0.00    +0.000 C 
ATOM      8  C   UNL     1      33.113 -13.281 -24.825  0.00  0.00    +0.000 C 
ATOM      9  C   UNL     1      34.068 -13.768 -22.660  0.00  0.00    +0.000 C 
ATOM     10  C   UNL     1      34.099 -15.445 -24.400  0.00  0.00    +0.055 C 
ATOM     11  C   UNL     1      33.452 -14.561 -25.263  0.00  0.00    +0.005 C 
ATOM     12  C   UNL     1      34.407 -15.048 -23.098  0.00  0.00    +0.005 C 
BRANCH  10  15
ATOM     13  O   UNL     1      34.619 -17.014 -26.066  0.00  0.00    -0.268 OA
ATOM     14  N   UNL     1      34.574 -17.768 -23.889  0.00  0.00    -0.193 N 
ATOM     15  C   UNL     1      34.451 -16.780 -24.856  0.00  0.00    +0.268 C 
ATOM     16  H   UNL     1      34.439 -17.573 -22.932  0.00  0.00    +0.183 HD
BRANCH  14  17
ATOM     17  O   UNL     1      34.900 -19.055 -24.337  0.00  0.00    -0.295 OA
ATOM     18  H   UNL     1      35.766 -19.036 -24.774  0.00  0.00    +0.241 HD
ENDBRANCH  14  17
ENDBRANCH  10  15
ENDBRANCH   1   7
BRANCH   2  21
ATOM     19  O   UNL     1      31.516  -8.721 -19.641  0.00  0.00    -0.270 OA
ATOM     20  N   UNL     1      31.570 -11.006 -19.156  0.00  0.00    -0.273 N 
ATOM     21  C   UNL     1      31.748  -9.886 -19.987  0.00  0.00    +0.249 C 
ATOM     22  C   UNL     1      31.858 -12.365 -19.609  0.00  0.00    +0.115 C 
ATOM     23  C   UNL     1      31.088 -10.886 -17.787  0.00  0.00    +0.115 C 
ENDBRANCH   2  21
BRANCH   3  25
ATOM     24  O   UNL     1      35.010  -7.089 -23.630  0.00  0.00    -0.270 OA
ATOM     25  N   UNL     1      33.010  -8.094 -24.352  0.00  0.00    -0.280 N 
ATOM     26  C   UNL     1      34.036  -7.140 -24.374  0.00  0.00    +0.249 C 
ATOM     27  H   UNL     1      32.302  -7.982 -25.027  0.00  0.00    +0.155 HD
BRANCH  26  28
ATOM     28  C   UNL     1      33.891  -6.073 -25.399  0.00  0.00    +0.054 C 
ATOM     29  C   UNL     1      34.945  -5.822 -26.251  0.00  0.00    +0.004 C 
ATOM     30  C   UNL     1      32.706  -5.370 -25.463  0.00  0.00    +0.004 C 
ATOM     31  C   UNL     1      33.622  -4.094 -27.300  0.00  0.00    -0.022 C 
ATOM     32  C   UNL     1      34.809  -4.821 -27.213  0.00  0.00    -0.004 C 
ATOM     33  C   UNL     1      32.570  -4.368 -26.425  0.00  0.00    -0.004 C 
ATOM     34  C   UNL     1      33.475  -3.024 -28.328  0.00  0.00    +0.031 C 
ENDBRANCH  26  28
ENDBRANCH   3  25
TORSDOF 6
ENDMDL
MODEL 6
REMARK VINA RESULT:      -8.8      2.372      8.546
REMARK  Name = 5287979
REMARK  6 active torsions:
REMARK  status: ('A' for Active; 'I' for Inactive)
REMARK    1  A    between atoms: C_1  and  C_7
REMARK    2  A    between atoms: C_2  and  C_21
REMARK    3  A    between atoms: C_3  and  N_25
REMARK    4  A    between atoms: C_10  and  C_15
REMARK    5  A    between atoms: N_14  and  O_17
REMARK    6  A    between atoms: C_26  and  C_28
REMARK                            x       y       z     vdW  Elec       q    Type
REMARK                         _______ _______ _______ _____ _____    ______ ____
ROOT
ATOM      1  C   UNL     1      33.690 -21.707 -18.605  0.00  0.00    +0.001 C 
ATOM      2  C   UNL     1      32.208 -22.730 -16.993  0.00  0.00    +0.055 C 
ATOM      3  C   UNL     1      34.594 -23.079 -16.833  0.00  0.00    +0.051 C 
ATOM      4  C   UNL     1      32.401 -21.931 -18.121  0.00  0.00    +0.005 C 
ATOM      5  C   UNL     1      34.786 -22.280 -17.961  0.00  0.00    +0.015 C 
ATOM      6  C   UNL     1      33.306 -23.303 -16.349  0.00  0.00    +0.019 C 
ENDROOT
BRANCH   1   7
ATOM      7  C   UNL     1      33.890 -20.878 -19.774  0.00  0.00    +0.000 C 
ATOM      8  C   UNL     1      32.793 -20.320 -20.429  0.00  0.00    +0.000 C 
ATOM      9  C   UNL     1      35.180 -20.638 -20.247  0.00  0.00    +0.000 C 
ATOM     10  C   UNL     1      34.274 -19.281 -22.030  0.00  0.00    +0.055 C 
ATOM     11  C   UNL     1      32.985 -19.521 -21.556  0.00  0.00    +0.005 C 
ATOM     12  C   UNL     1      35.372 -19.840 -21.374  0.00  0.00    +0.005 C 
BRANCH  10  15
ATOM     13  O   UNL     1      33.732 -18.562 -24.197  0.00  0.00    -0.268 OA
ATOM     14  N   UNL     1      35.529 -17.548 -23.171  0.00  0.00    -0.193 N 
ATOM     15  C   UNL     1      34.475 -18.449 -23.205  0.00  0.00    +0.268 C 
ATOM     16  H   UNL     1      36.112 -17.466 -22.380  0.00  0.00    +0.183 HD
BRANCH  14  17
ATOM     17  O   UNL     1      35.725 -16.760 -24.313  0.00  0.00    -0.295 OA
ATOM     18  H   UNL     1      35.687 -15.821 -24.069  0.00  0.00    +0.241 HD
ENDBRANCH  14  17
ENDBRANCH  10  15
ENDBRANCH   1   7
BRANCH   2  21
ATOM     19  O   UNL     1      29.934 -22.851 -17.298  0.00  0.00    -0.270 OA
ATOM     20  N   UNL     1      30.694 -23.286 -15.130  0.00  0.00    -0.273 N 
ATOM     21  C   UNL     1      30.864 -22.964 -16.489  0.00  0.00    +0.249 C 
ATOM     22  C   UNL     1      31.823 -23.408 -14.212  0.00  0.00    +0.115 C 
ATOM     23  C   UNL     1      29.379 -23.519 -14.548  0.00  0.00    +0.115 C 
ENDBRANCH   2  21
BRANCH   3  25
ATOM     24  O   UNL     1      34.711 -24.875 -14.436  0.00  0.00    -0.270 OA
ATOM     25  N   UNL     1      35.691 -23.652 -16.189  0.00  0.00    -0.280 N 
ATOM     26  C   UNL     1      35.690 -24.489 -15.066  0.00  0.00    +0.249 C 
ATOM     27  H   UNL     1      36.574 -23.443 -16.571  0.00  0.00    +0.155 HD
BRANCH  26  28
ATOM     28  C   UNL     1      37.032 -24.920 -14.593  0.00  0.00    +0.054 C 
ATOM     29  C   UNL     1      38.011 -25.189 -15.525  0.00  0.00    +0.004 C 
ATOM     30  C   UNL     1      37.253 -25.037 -13.236  0.00  0.00    +0.004 C 
ATOM     31  C   UNL     1      39.521 -25.721 -13.714  0.00  0.00    -0.022 C 
ATOM     32  C   UNL     1      39.270 -25.595 -15.081  0.00  0.00    -0.004 C 
ATOM     33  C   UNL     1      38.511 -25.442 -12.792  0.00  0.00    -0.004 C 
ATOM     34  C   UNL     1      40.866 -26.153 -13.239  0.00  0.00    +0.031 C 
ENDBRANCH  26  28
ENDBRANCH   3  25
TORSDOF 6
ENDMDL
MODEL 7
REMARK VINA RESULT:      -8.6     11.499     16.774
REMARK  Name = 5287979
REMARK  6 active torsions:
REMARK  status: ('A' for Active; 'I' for Inactive)
REMARK    1  A    between atoms: C_1  and  C_7
REMARK    2  A    between atoms: C_2  and  C_21
REMARK    3  A    between atoms: C_3  and  N_25
REMARK    4  A    between atoms: C_10  and  C_15
REMARK    5  A    between atoms: N_14  and  O_17
REMARK    6  A    between atoms: C_26  and  C_28
REMARK                            x       y       z     vdW  Elec       q    Type
REMARK                         _______ _______ _______ _____ _____    ______ ____
ROOT
ATOM      1  C   UNL     1      33.462  -9.252 -23.908  0.00  0.00    +0.001 C 
ATOM      2  C   UNL     1      32.657  -7.271 -22.784  0.00  0.00    +0.055 C 
ATOM      3  C   UNL     1      34.166  -7.066 -24.659  0.00  0.00    +0.051 C 
ATOM      4  C   UNL     1      32.690  -8.660 -22.909  0.00  0.00    +0.005 C 
ATOM      5  C   UNL     1      34.199  -8.455 -24.784  0.00  0.00    +0.015 C 
ATOM      6  C   UNL     1      33.394  -6.474 -23.660  0.00  0.00    +0.019 C 
ENDROOT
BRANCH   1   7
ATOM      7  C   UNL     1      33.496 -10.693 -24.038  0.00  0.00    +0.000 C 
ATOM      8  C   UNL     1      32.922 -11.496 -23.053  0.00  0.00    +0.000 C 
ATOM      9  C   UNL     1      34.104 -11.279 -25.149  0.00  0.00    +0.000 C 
ATOM     10  C   UNL     1      33.563 -13.471 -24.287  0.00  0.00    +0.055 C 
ATOM     11  C   UNL     1      32.955 -12.884 -23.177  0.00  0.00    +0.005 C 
ATOM     12  C   UNL     1      34.137 -12.668 -25.273  0.00  0.00    +0.005 C 
BRANCH  10  15
ATOM     13  O   UNL     1      33.708 -15.644 -23.412  0.00  0.00    -0.268 OA
ATOM     14  N   UNL     1      33.519 -15.442 -25.699  0.00  0.00    -0.193 N 
ATOM     15  C   UNL     1      33.598 -14.919 -24.416  0.00  0.00    +0.268 C 
ATOM     16  H   UNL     1      33.432 -14.859 -26.489  0.00  0.00    +0.183 HD
BRANCH  14  17
ATOM     17  O   UNL     1      33.568 -16.838 -25.818  0.00  0.00    -0.295 OA
ATOM     18  H   UNL     1      32.892 -17.133 -26.448  0.00  0.00    +0.241 HD
ENDBRANCH  14  17
ENDBRANCH  10  15
ENDBRANCH   1   7
BRANCH   2  21
ATOM     19  O   UNL     1      32.028  -7.057 -20.584  0.00  0.00    -0.270 OA
ATOM     20  N   UNL     1      30.924  -5.658 -22.097  0.00  0.00    -0.273 N 
ATOM     21  C   UNL     1      31.852  -6.653 -21.741  0.00  0.00    +0.249 C 
ATOM     22  C   UNL     1      30.751  -5.213 -23.478  0.00  0.00    +0.115 C 
ATOM     23  C   UNL     1      30.072  -5.005 -21.112  0.00  0.00    +0.115 C 
ENDBRANCH   2  21
BRANCH   3  25
ATOM     24  O   UNL     1      33.247  -5.142 -26.767  0.00  0.00    -0.270 OA
ATOM     25  N   UNL     1      34.903  -6.269 -25.536  0.00  0.00    -0.280 N 
ATOM     26  C   UNL     1      34.421  -5.383 -26.507  0.00  0.00    +0.249 C 
ATOM     27  H   UNL     1      35.883  -6.338 -25.462  0.00  0.00    +0.155 HD
BRANCH  26  28
ATOM     28  C   UNL     1      35.464  -4.691 -27.311  0.00  0.00    +0.054 C 
ATOM     29  C   UNL     1      36.634  -5.361 -27.600  0.00  0.00    +0.004 C 
ATOM     30  C   UNL     1      35.227  -3.401 -27.739  0.00  0.00    +0.004 C 
ATOM     31  C   UNL     1      37.398  -3.407 -28.799  0.00  0.00    -0.022 C 
ATOM     32  C   UNL     1      37.612  -4.711 -28.353  0.00  0.00    -0.004 C 
ATOM     33  C   UNL     1      36.205  -2.752 -28.492  0.00  0.00    -0.004 C 
ATOM     34  C   UNL     1      38.443  -2.713 -29.605  0.00  0.00    +0.031 C 
ENDBRANCH  26  28
ENDBRANCH   3  25
TORSDOF 6
ENDMDL
