MODEL 1
REMARK VINA RESULT:      -8.4      0.000      0.000
REMARK  Name = 6435808
REMARK  4 active torsions:
REMARK  status: ('A' for Active; 'I' for Inactive)
REMARK    1  A    between atoms: C_3  and  C_20
REMARK    2  A    between atoms: C_4  and  O_18
REMARK    3  A    between atoms: C_5  and  N_9
REMARK    4  A    between atoms: C_20  and  O_21
REMARK                            x       y       z     vdW  Elec       q    Type
REMARK                         _______ _______ _______ _____ _____    ______ ____
ROOT
ATOM      1  F   UNL     1      34.900 -17.925 -25.214  0.00  0.00    -0.202 F 
ATOM      2  O   UNL     1      34.965 -16.637 -20.754  0.00  0.00    -0.331 OA
ATOM      3  C   UNL     1      34.531 -15.645 -21.698  0.00  0.00    +0.177 C 
ATOM      4  C   UNL     1      33.945 -16.424 -22.866  0.00  0.00    +0.165 C 
ATOM      5  C   UNL     1      35.401 -17.780 -21.509  0.00  0.00    +0.231 C 
ATOM      6  C   UNL     1      34.892 -17.580 -22.902  0.00  0.00    +0.061 C 
ATOM      7  C   UNL     1      35.314 -18.249 -23.980  0.00  0.00    +0.165 C 
ENDROOT
BRANCH   5   9
ATOM      8  O   UNL     1      36.849 -19.849 -20.259  0.00  0.00    -0.193 OA
ATOM      9  N   UNL     1      34.826 -18.961 -20.928  0.00  0.00    -0.177 N 
ATOM     10  N   UNL     1      35.000 -21.073 -19.775  0.00  0.00    -0.306 NA
ATOM     11  N   UNL     1      33.102 -22.324 -19.283  0.00  0.00    -0.332 N 
ATOM     12  C   UNL     1      33.449 -19.123 -20.973  0.00  0.00    +0.084 C 
ATOM     13  C   UNL     1      35.622 -19.961 -20.314  0.00  0.00    +0.276 C 
ATOM     14  C   UNL     1      32.832 -20.186 -20.461  0.00  0.00    +0.065 C 
ATOM     15  C   UNL     1      33.701 -21.211 -19.825  0.00  0.00    +0.193 C 
ATOM     16  H   UNL     1      33.652 -23.020 -18.855  0.00  0.00    +0.145 HD
ATOM     17  H   UNL     1      32.124 -22.426 -19.322  0.00  0.00    +0.145 HD
ENDBRANCH   5   9
BRANCH   4  18
ATOM     18  O   UNL     1      33.944 -15.640 -24.041  0.00  0.00    -0.378 OA
ATOM     19  H   UNL     1      34.626 -15.967 -24.648  0.00  0.00    +0.211 HD
ENDBRANCH   4  18
BRANCH   3  20
ATOM     20  C   UNL     1      33.528 -14.716 -21.035  0.00  0.00    +0.170 C 
BRANCH  20  21
ATOM     21  O   UNL     1      32.266 -14.904 -21.649  0.00  0.00    -0.379 OA
ATOM     22  H   UNL     1      31.572 -14.894 -20.972  0.00  0.00    +0.211 HD
ENDBRANCH  20  21
ENDBRANCH   3  20
TORSDOF 4
ENDMDL
MODEL 2
REMARK VINA RESULT:      -8.1      7.251     10.110
REMARK  Name = 6435808
REMARK  4 active torsions:
REMARK  status: ('A' for Active; 'I' for Inactive)
REMARK    1  A    between atoms: C_3  and  C_20
REMARK    2  A    between atoms: C_4  and  O_18
REMARK    3  A    between atoms: C_5  and  N_9
REMARK    4  A    between atoms: C_20  and  O_21
REMARK                            x       y       z     vdW  Elec       q    Type
REMARK                         _______ _______ _______ _____ _____    ______ ____
ROOT
ATOM      1  F   UNL     1      37.511 -27.230 -14.914  0.00  0.00    -0.202 F 
ATOM      2  O   UNL     1      35.706 -23.217 -13.433  0.00  0.00    -0.331 OA
ATOM      3  C   UNL     1      36.519 -23.936 -12.492  0.00  0.00    +0.177 C 
ATOM      4  C   UNL     1      37.496 -24.743 -13.333  0.00  0.00    +0.165 C 
ATOM      5  C   UNL     1      35.568 -24.048 -14.598  0.00  0.00    +0.231 C 
ATOM      6  C   UNL     1      36.601 -25.122 -14.469  0.00  0.00    +0.061 C 
ATOM      7  C   UNL     1      36.624 -26.258 -15.175  0.00  0.00    +0.165 C 
ENDROOT
BRANCH   5   9
ATOM      8  O   UNL     1      33.885 -23.891 -16.852  0.00  0.00    -0.193 OA
ATOM      9  N   UNL     1      35.817 -23.248 -15.764  0.00  0.00    -0.177 N 
ATOM     10  N   UNL     1      35.224 -22.426 -17.954  0.00  0.00    -0.306 NA
ATOM     11  N   UNL     1      36.601 -20.927 -19.079  0.00  0.00    -0.332 N 
ATOM     12  C   UNL     1      36.972 -22.482 -15.813  0.00  0.00    +0.084 C 
ATOM     13  C   UNL     1      34.920 -23.220 -16.862  0.00  0.00    +0.276 C 
ATOM     14  C   UNL     1      37.283 -21.712 -16.854  0.00  0.00    +0.065 C 
ATOM     15  C   UNL     1      36.317 -21.709 -17.984  0.00  0.00    +0.193 C 
ATOM     16  H   UNL     1      35.979 -20.905 -19.842  0.00  0.00    +0.145 HD
ATOM     17  H   UNL     1      37.424 -20.388 -19.099  0.00  0.00    +0.145 HD
ENDBRANCH   5   9
BRANCH   4  18
ATOM     18  O   UNL     1      37.998 -25.843 -12.601  0.00  0.00    -0.378 OA
ATOM     19  H   UNL     1      37.864 -26.658 -13.109  0.00  0.00    +0.211 HD
ENDBRANCH   4  18
BRANCH   3  20
ATOM     20  C   UNL     1      37.204 -22.954 -11.557  0.00  0.00    +0.170 C 
BRANCH  20  21
ATOM     21  O   UNL     1      38.604 -23.135 -11.662  0.00  0.00    -0.379 OA
ATOM     22  H   UNL     1      38.815 -24.079 -11.582  0.00  0.00    +0.211 HD
ENDBRANCH  20  21
ENDBRANCH   3  20
TORSDOF 4
ENDMDL
MODEL 3
REMARK VINA RESULT:      -7.8      7.242      9.200
REMARK  Name = 6435808
REMARK  4 active torsions:
REMARK  status: ('A' for Active; 'I' for Inactive)
REMARK    1  A    between atoms: C_3  and  C_20
REMARK    2  A    between atoms: C_4  and  O_18
REMARK    3  A    between atoms: C_5  and  N_9
REMARK    4  A    between atoms: C_20  and  O_21
REMARK                            x       y       z     vdW  Elec       q    Type
REMARK                         _______ _______ _______ _____ _____    ______ ____
ROOT
ATOM      1  F   UNL     1      37.539 -21.368 -16.082  0.00  0.00    -0.202 F 
ATOM      2  O   UNL     1      35.124 -25.029 -14.560  0.00  0.00    -0.331 OA
ATOM      3  C   UNL     1      36.221 -24.602 -13.736  0.00  0.00    +0.177 C 
ATOM      4  C   UNL     1      36.379 -23.114 -14.011  0.00  0.00    +0.165 C 
ATOM      5  C   UNL     1      35.158 -24.235 -15.758  0.00  0.00    +0.231 C 
ATOM      6  C   UNL     1      36.082 -23.093 -15.476  0.00  0.00    +0.061 C 
ATOM      7  C   UNL     1      36.620 -22.290 -16.401  0.00  0.00    +0.165 C 
ENDROOT
BRANCH   5   9
ATOM      8  O   UNL     1      34.157 -23.560 -18.304  0.00  0.00    -0.193 OA
ATOM      9  N   UNL     1      33.832 -23.755 -16.027  0.00  0.00    -0.177 N 
ATOM     10  N   UNL     1      32.107 -22.976 -17.525  0.00  0.00    -0.306 NA
ATOM     11  N   UNL     1      30.008 -22.378 -16.720  0.00  0.00    -0.332 N 
ATOM     12  C   UNL     1      32.951 -23.599 -14.967  0.00  0.00    +0.084 C 
ATOM     13  C   UNL     1      33.399 -23.435 -17.339  0.00  0.00    +0.276 C 
ATOM     14  C   UNL     1      31.704 -23.158 -15.124  0.00  0.00    +0.065 C 
ATOM     15  C   UNL     1      31.289 -22.836 -16.514  0.00  0.00    +0.193 C 
ATOM     16  H   UNL     1      29.705 -22.157 -17.630  0.00  0.00    +0.145 HD
ATOM     17  H   UNL     1      29.394 -22.273 -15.958  0.00  0.00    +0.145 HD
ENDBRANCH   5   9
BRANCH   4  18
ATOM     18  O   UNL     1      37.683 -22.680 -13.679  0.00  0.00    -0.378 OA
ATOM     19  H   UNL     1      38.332 -23.198 -14.179  0.00  0.00    +0.211 HD
ENDBRANCH   4  18
BRANCH   3  20
ATOM     20  C   UNL     1      35.914 -24.912 -12.281  0.00  0.00    +0.170 C 
BRANCH  20  21
ATOM     21  O   UNL     1      34.509 -24.922 -12.109  0.00  0.00    -0.379 OA
ATOM     22  H   UNL     1      34.165 -24.020 -12.210  0.00  0.00    +0.211 HD
ENDBRANCH  20  21
ENDBRANCH   3  20
TORSDOF 4
ENDMDL
MODEL 4
REMARK VINA RESULT:      -7.5      2.947      5.500
REMARK  Name = 6435808
REMARK  4 active torsions:
REMARK  status: ('A' for Active; 'I' for Inactive)
REMARK    1  A    between atoms: C_3  and  C_20
REMARK    2  A    between atoms: C_4  and  O_18
REMARK    3  A    between atoms: C_5  and  N_9
REMARK    4  A    between atoms: C_20  and  O_21
REMARK                            x       y       z     vdW  Elec       q    Type
REMARK                         _______ _______ _______ _____ _____    ______ ____
ROOT
ATOM      1  F   UNL     1      38.052 -19.033 -21.181  0.00  0.00    -0.202 F 
ATOM      2  O   UNL     1      33.587 -19.093 -22.454  0.00  0.00    -0.331 OA
ATOM      3  C   UNL     1      33.948 -19.943 -21.353  0.00  0.00    +0.177 C 
ATOM      4  C   UNL     1      35.154 -19.280 -20.706  0.00  0.00    +0.165 C 
ATOM      5  C   UNL     1      34.803 -18.520 -22.964  0.00  0.00    +0.231 C 
ATOM      6  C   UNL     1      35.851 -18.772 -21.927  0.00  0.00    +0.061 C 
ATOM      7  C   UNL     1      37.170 -18.668 -22.123  0.00  0.00    +0.165 C 
ENDROOT
BRANCH   5   9
ATOM      8  O   UNL     1      34.403 -17.239 -25.442  0.00  0.00    -0.193 OA
ATOM      9  N   UNL     1      34.604 -17.109 -23.146  0.00  0.00    -0.177 N 
ATOM     10  N   UNL     1      34.224 -15.168 -24.529  0.00  0.00    -0.306 NA
ATOM     11  N   UNL     1      34.043 -13.050 -23.587  0.00  0.00    -0.332 N 
ATOM     12  C   UNL     1      34.607 -16.287 -22.029  0.00  0.00    +0.084 C 
ATOM     13  C   UNL     1      34.409 -16.536 -24.428  0.00  0.00    +0.276 C 
ATOM     14  C   UNL     1      34.432 -14.969 -22.105  0.00  0.00    +0.065 C 
ATOM     15  C   UNL     1      34.227 -14.407 -23.465  0.00  0.00    +0.193 C 
ATOM     16  H   UNL     1      33.905 -12.649 -24.476  0.00  0.00    +0.145 HD
ATOM     17  H   UNL     1      34.046 -12.478 -22.786  0.00  0.00    +0.145 HD
ENDBRANCH   5   9
BRANCH   4  18
ATOM     18  O   UNL     1      35.902 -20.219 -19.961  0.00  0.00    -0.378 OA
ATOM     19  H   UNL     1      36.064 -19.870 -19.071  0.00  0.00    +0.211 HD
ENDBRANCH   4  18
BRANCH   3  20
ATOM     20  C   UNL     1      32.765 -20.083 -20.410  0.00  0.00    +0.170 C 
BRANCH  20  21
ATOM     21  O   UNL     1      33.047 -21.117 -19.484  0.00  0.00    -0.379 OA
ATOM     22  H   UNL     1      33.487 -20.741 -18.706  0.00  0.00    +0.211 HD
ENDBRANCH  20  21
ENDBRANCH   3  20
TORSDOF 4
ENDMDL
MODEL 5
REMARK VINA RESULT:      -7.5      4.675      6.210
REMARK  Name = 6435808
REMARK  4 active torsions:
REMARK  status: ('A' for Active; 'I' for Inactive)
REMARK    1  A    between atoms: C_3  and  C_20
REMARK    2  A    between atoms: C_4  and  O_18
REMARK    3  A    between atoms: C_5  and  N_9
REMARK    4  A    between atoms: C_20  and  O_21
REMARK                            x       y       z     vdW  Elec       q    Type
REMARK                         _______ _______ _______ _____ _____    ______ ____
ROOT
ATOM      1  F   UNL     1      31.809 -12.217 -21.534  0.00  0.00    -0.202 F 
ATOM      2  O   UNL     1      33.773 -12.756 -25.706  0.00  0.00    -0.331 OA
ATOM      3  C   UNL     1      33.808 -11.431 -25.151  0.00  0.00    +0.177 C 
ATOM      4  C   UNL     1      33.780 -11.622 -23.642  0.00  0.00    +0.165 C 
ATOM      5  C   UNL     1      32.985 -13.568 -24.819  0.00  0.00    +0.231 C 
ATOM      6  C   UNL     1      32.846 -12.786 -23.551  0.00  0.00    +0.061 C 
ATOM      7  C   UNL     1      31.957 -13.038 -22.583  0.00  0.00    +0.165 C 
ENDROOT
BRANCH   5   9
ATOM      8  O   UNL     1      33.191 -15.707 -26.640  0.00  0.00    -0.193 OA
ATOM      9  N   UNL     1      33.686 -14.797 -24.578  0.00  0.00    -0.177 N 
ATOM     10  N   UNL     1      34.439 -16.990 -25.246  0.00  0.00    -0.306 NA
ATOM     11  N   UNL     1      35.717 -18.301 -23.811  0.00  0.00    -0.332 N 
ATOM     12  C   UNL     1      34.321 -14.974 -23.357  0.00  0.00    +0.084 C 
ATOM     13  C   UNL     1      33.746 -15.831 -25.546  0.00  0.00    +0.276 C 
ATOM     14  C   UNL     1      34.993 -16.082 -23.048  0.00  0.00    +0.065 C 
ATOM     15  C   UNL     1      35.034 -17.141 -24.091  0.00  0.00    +0.193 C 
ATOM     16  H   UNL     1      35.762 -19.020 -24.482  0.00  0.00    +0.145 HD
ATOM     17  H   UNL     1      36.164 -18.412 -22.941  0.00  0.00    +0.145 HD
ENDBRANCH   5   9
BRANCH   4  18
ATOM     18  O   UNL     1      33.312 -10.454 -22.999  0.00  0.00    -0.378 OA
ATOM     19  H   UNL     1      33.123 -10.652 -22.068  0.00  0.00    +0.211 HD
ENDBRANCH   4  18
BRANCH   3  20
ATOM     20  C   UNL     1      35.052 -10.708 -25.639  0.00  0.00    +0.170 C 
BRANCH  20  21
ATOM     21  O   UNL     1      35.680 -10.093 -24.529  0.00  0.00    -0.379 OA
ATOM     22  H   UNL     1      35.438  -9.154 -24.501  0.00  0.00    +0.211 HD
ENDBRANCH  20  21
ENDBRANCH   3  20
TORSDOF 4
ENDMDL
MODEL 6
REMARK VINA RESULT:      -7.5      7.545     10.525
REMARK  Name = 6435808
REMARK  4 active torsions:
REMARK  status: ('A' for Active; 'I' for Inactive)
REMARK    1  A    between atoms: C_3  and  C_20
REMARK    2  A    between atoms: C_4  and  O_18
REMARK    3  A    between atoms: C_5  and  N_9
REMARK    4  A    between atoms: C_20  and  O_21
REMARK                            x       y       z     vdW  Elec       q    Type
REMARK                         _______ _______ _______ _____ _____    ______ ____
ROOT
ATOM      1  F   UNL     1      34.940 -24.825 -11.326  0.00  0.00    -0.202 F 
ATOM      2  O   UNL     1      38.077 -23.901 -14.622  0.00  0.00    -0.331 OA
ATOM      3  C   UNL     1      38.411 -24.951 -13.700  0.00  0.00    +0.177 C 
ATOM      4  C   UNL     1      37.080 -25.518 -13.230  0.00  0.00    +0.165 C 
ATOM      5  C   UNL     1      36.848 -23.311 -14.166  0.00  0.00    +0.231 C 
ATOM      6  C   UNL     1      36.279 -24.258 -13.157  0.00  0.00    +0.061 C 
ATOM      7  C   UNL     1      35.310 -23.962 -12.284  0.00  0.00    +0.165 C 
ENDROOT
BRANCH   5   9
ATOM      8  O   UNL     1      37.476 -22.026 -16.594  0.00  0.00    -0.193 OA
ATOM      9  N   UNL     1      35.960 -23.177 -15.287  0.00  0.00    -0.177 N 
ATOM     10  N   UNL     1      35.442 -22.422 -17.520  0.00  0.00    -0.306 NA
ATOM     11  N   UNL     1      33.355 -22.829 -18.462  0.00  0.00    -0.332 N 
ATOM     12  C   UNL     1      34.684 -23.711 -15.194  0.00  0.00    +0.084 C 
ATOM     13  C   UNL     1      36.349 -22.515 -16.479  0.00  0.00    +0.276 C 
ATOM     14  C   UNL     1      33.795 -23.632 -16.183  0.00  0.00    +0.065 C 
ATOM     15  C   UNL     1      34.242 -22.933 -17.417  0.00  0.00    +0.193 C 
ATOM     16  H   UNL     1      33.622 -22.371 -19.292  0.00  0.00    +0.145 HD
ATOM     17  H   UNL     1      32.452 -23.214 -18.382  0.00  0.00    +0.145 HD
ENDBRANCH   5   9
BRANCH   4  18
ATOM     18  O   UNL     1      37.228 -26.181 -11.991  0.00  0.00    -0.378 OA
ATOM     19  H   UNL     1      37.268 -27.138 -12.140  0.00  0.00    +0.211 HD
ENDBRANCH   4  18
BRANCH   3  20
ATOM     20  C   UNL     1      39.286 -25.980 -14.396  0.00  0.00    +0.170 C 
BRANCH  20  21
ATOM     21  O   UNL     1      38.517 -27.148 -14.618  0.00  0.00    -0.379 OA
ATOM     22  H   UNL     1      37.575 -26.917 -14.629  0.00  0.00    +0.211 HD
ENDBRANCH  20  21
ENDBRANCH   3  20
TORSDOF 4
ENDMDL
MODEL 7
REMARK VINA RESULT:      -7.3      2.219      3.299
REMARK  Name = 6435808
REMARK  4 active torsions:
REMARK  status: ('A' for Active; 'I' for Inactive)
REMARK    1  A    between atoms: C_3  and  C_20
REMARK    2  A    between atoms: C_4  and  O_18
REMARK    3  A    between atoms: C_5  and  N_9
REMARK    4  A    between atoms: C_20  and  O_21
REMARK                            x       y       z     vdW  Elec       q    Type
REMARK                         _______ _______ _______ _____ _____    ______ ____
ROOT
ATOM      1  F   UNL     1      34.927 -14.870 -20.600  0.00  0.00    -0.202 F 
ATOM      2  O   UNL     1      33.946 -18.684 -23.060  0.00  0.00    -0.331 OA
ATOM      3  C   UNL     1      34.268 -17.504 -23.814  0.00  0.00    +0.177 C 
ATOM      4  C   UNL     1      35.175 -16.680 -22.912  0.00  0.00    +0.165 C 
ATOM      5  C   UNL     1      33.893 -18.302 -21.675  0.00  0.00    +0.231 C 
ATOM      6  C   UNL     1      34.532 -16.952 -21.590  0.00  0.00    +0.061 C 
ATOM      7  C   UNL     1      34.430 -16.115 -20.551  0.00  0.00    +0.165 C 
ENDROOT
BRANCH   5   9
ATOM      8  O   UNL     1      32.775 -20.440 -20.220  0.00  0.00    -0.193 OA
ATOM      9  N   UNL     1      34.636 -19.260 -20.906  0.00  0.00    -0.177 N 
ATOM     10  N   UNL     1      34.780 -21.199 -19.477  0.00  0.00    -0.306 NA
ATOM     11  N   UNL     1      36.838 -21.972 -18.718  0.00  0.00    -0.332 N 
ATOM     12  C   UNL     1      36.018 -19.147 -20.856  0.00  0.00    +0.084 C 
ATOM     13  C   UNL     1      34.001 -20.312 -20.198  0.00  0.00    +0.276 C 
ATOM     14  C   UNL     1      36.785 -19.989 -20.167  0.00  0.00    +0.065 C 
ATOM     15  C   UNL     1      36.082 -21.080 -19.441  0.00  0.00    +0.193 C 
ATOM     16  H   UNL     1      36.400 -22.704 -18.227  0.00  0.00    +0.145 HD
ATOM     17  H   UNL     1      37.818 -21.879 -18.692  0.00  0.00    +0.145 HD
ENDBRANCH   5   9
BRANCH   4  18
ATOM     18  O   UNL     1      35.159 -15.320 -23.294  0.00  0.00    -0.378 OA
ATOM     19  H   UNL     1      35.482 -15.237 -24.205  0.00  0.00    +0.211 HD
ENDBRANCH   4  18
BRANCH   3  20
ATOM     20  C   UNL     1      34.929 -17.902 -25.123  0.00  0.00    +0.170 C 
BRANCH  20  21
ATOM     21  O   UNL     1      35.205 -16.727 -25.863  0.00  0.00    -0.379 OA
ATOM     22  H   UNL     1      36.148 -16.510 -25.784  0.00  0.00    +0.211 HD
ENDBRANCH  20  21
ENDBRANCH   3  20
TORSDOF 4
ENDMDL
MODEL 8
REMARK VINA RESULT:      -7.3      6.552      8.329
REMARK  Name = 6435808
REMARK  4 active torsions:
REMARK  status: ('A' for Active; 'I' for Inactive)
REMARK    1  A    between atoms: C_3  and  C_20
REMARK    2  A    between atoms: C_4  and  O_18
REMARK    3  A    between atoms: C_5  and  N_9
REMARK    4  A    between atoms: C_20  and  O_21
REMARK                            x       y       z     vdW  Elec       q    Type
REMARK                         _______ _______ _______ _____ _____    ______ ____
ROOT
ATOM      1  F   UNL     1      35.138 -22.103 -19.296  0.00  0.00    -0.202 F 
ATOM      2  O   UNL     1      33.804 -23.135 -14.970  0.00  0.00    -0.331 OA
ATOM      3  C   UNL     1      32.759 -23.016 -15.948  0.00  0.00    +0.177 C 
ATOM      4  C   UNL     1      33.405 -23.372 -17.278  0.00  0.00    +0.165 C 
ATOM      5  C   UNL     1      35.033 -22.758 -15.614  0.00  0.00    +0.231 C 
ATOM      6  C   UNL     1      34.750 -22.750 -17.082  0.00  0.00    +0.061 C 
ATOM      7  C   UNL     1      35.522 -22.178 -18.013  0.00  0.00    +0.165 C 
ENDROOT
BRANCH   5   9
ATOM      8  O   UNL     1      37.789 -22.237 -15.339  0.00  0.00    -0.193 OA
ATOM      9  N   UNL     1      36.035 -23.737 -15.299  0.00  0.00    -0.177 N 
ATOM     10  N   UNL     1      38.317 -24.394 -14.872  0.00  0.00    -0.306 NA
ATOM     11  N   UNL     1      38.853 -26.607 -14.396  0.00  0.00    -0.332 N 
ATOM     12  C   UNL     1      35.643 -25.055 -15.112  0.00  0.00    +0.084 C 
ATOM     13  C   UNL     1      37.406 -23.399 -15.177  0.00  0.00    +0.276 C 
ATOM     14  C   UNL     1      36.504 -26.028 -14.820  0.00  0.00    +0.065 C 
ATOM     15  C   UNL     1      37.931 -25.632 -14.698  0.00  0.00    +0.193 C 
ATOM     16  H   UNL     1      39.806 -26.374 -14.309  0.00  0.00    +0.145 HD
ATOM     17  H   UNL     1      38.560 -27.538 -14.266  0.00  0.00    +0.145 HD
ENDBRANCH   5   9
BRANCH   4  18
ATOM     18  O   UNL     1      32.668 -22.829 -18.355  0.00  0.00    -0.378 OA
ATOM     19  H   UNL     1      32.123 -23.524 -18.756  0.00  0.00    +0.211 HD
ENDBRANCH   4  18
BRANCH   3  20
ATOM     20  C   UNL     1      31.608 -23.937 -15.577  0.00  0.00    +0.170 C 
BRANCH  20  21
ATOM     21  O   UNL     1      30.445 -23.498 -16.255  0.00  0.00    -0.379 OA
ATOM     22  H   UNL     1      30.681 -22.796 -16.881  0.00  0.00    +0.211 HD
ENDBRANCH  20  21
ENDBRANCH   3  20
TORSDOF 4
ENDMDL
MODEL 9
REMARK VINA RESULT:      -7.3      8.857     10.505
REMARK  Name = 6435808
REMARK  4 active torsions:
REMARK  status: ('A' for Active; 'I' for Inactive)
REMARK    1  A    between atoms: C_3  and  C_20
REMARK    2  A    between atoms: C_4  and  O_18
REMARK    3  A    between atoms: C_5  and  N_9
REMARK    4  A    between atoms: C_20  and  O_21
REMARK                            x       y       z     vdW  Elec       q    Type
REMARK                         _______ _______ _______ _____ _____    ______ ____
ROOT
ATOM      1  F   UNL     1      37.822 -26.605 -15.450  0.00  0.00    -0.202 F 
ATOM      2  O   UNL     1      35.381 -24.022 -12.462  0.00  0.00    -0.331 OA
ATOM      3  C   UNL     1      36.809 -24.007 -12.299  0.00  0.00    +0.177 C 
ATOM      4  C   UNL     1      37.378 -24.290 -13.681  0.00  0.00    +0.165 C 
ATOM      5  C   UNL     1      35.080 -24.985 -13.486  0.00  0.00    +0.231 C 
ATOM      6  C   UNL     1      36.376 -25.286 -14.170  0.00  0.00    +0.061 C 
ATOM      7  C   UNL     1      36.599 -26.332 -14.975  0.00  0.00    +0.165 C 
ENDROOT
BRANCH   5   9
ATOM      8  O   UNL     1      32.283 -24.925 -13.156  0.00  0.00    -0.193 OA
ATOM      9  N   UNL     1      34.149 -24.398 -14.408  0.00  0.00    -0.177 N 
ATOM     10  N   UNL     1      31.911 -23.822 -15.105  0.00  0.00    -0.306 NA
ATOM     11  N   UNL     1      31.537 -22.694 -17.104  0.00  0.00    -0.332 N 
ATOM     12  C   UNL     1      34.638 -23.808 -15.564  0.00  0.00    +0.084 C 
ATOM     13  C   UNL     1      32.751 -24.406 -14.173  0.00  0.00    +0.276 C 
ATOM     14  C   UNL     1      33.847 -23.242 -16.474  0.00  0.00    +0.065 C 
ATOM     15  C   UNL     1      32.389 -23.269 -16.189  0.00  0.00    +0.193 C 
ATOM     16  H   UNL     1      30.566 -22.697 -16.942  0.00  0.00    +0.145 HD
ATOM     17  H   UNL     1      31.899 -22.278 -17.920  0.00  0.00    +0.145 HD
ENDBRANCH   5   9
BRANCH   4  18
ATOM     18  O   UNL     1      38.695 -24.793 -13.587  0.00  0.00    -0.378 OA
ATOM     19  H   UNL     1      39.298 -24.213 -14.078  0.00  0.00    +0.211 HD
ENDBRANCH   4  18
BRANCH   3  20
ATOM     20  C   UNL     1      37.243 -22.664 -11.737  0.00  0.00    +0.170 C 
BRANCH  20  21
ATOM     21  O   UNL     1      38.655 -22.655 -11.633  0.00  0.00    -0.379 OA
ATOM     22  H   UNL     1      38.970 -21.738 -11.603  0.00  0.00    +0.211 HD
ENDBRANCH  20  21
ENDBRANCH   3  20
TORSDOF 4
ENDMDL
