MODEL 1
REMARK VINA RESULT:     -10.1      0.000      0.000
REMARK  Name = 1786
REMARK  8 active torsions:
REMARK  status: ('A' for Active; 'I' for Inactive)
REMARK    1  A    between atoms: O_1  and  C_2
REMARK    2  A    between atoms: O_1  and  C_13
REMARK    3  A    between atoms: C_3  and  C_10
REMARK    4  A    between atoms: C_13  and  C_14
REMARK    5  A    between atoms: C_14  and  C_15
REMARK    6  A    between atoms: C_15  and  C_16
REMARK    7  A    between atoms: C_16  and  C_17
REMARK    8  A    between atoms: C_17  and  C_20
REMARK                            x       y       z     vdW  Elec       q    Type
REMARK                         _______ _______ _______ _____ _____    ______ ____
ROOT
ATOM      1  O   UNL     1      33.773 -23.454 -18.255  0.00  0.00    -0.475 OA
ENDROOT
BRANCH   1   2
ATOM      2  C   UNL     1      34.031 -22.339 -19.009  0.00  0.00    +0.139 C 
ATOM      3  C   UNL     1      34.556 -20.075 -20.535  0.00  0.00    +0.053 C 
ATOM      4  C   UNL     1      35.347 -21.960 -19.248  0.00  0.00    +0.037 C 
ATOM      5  C   UNL     1      32.975 -21.597 -19.524  0.00  0.00    +0.037 C 
ATOM      6  C   UNL     1      35.611 -20.824 -20.014  0.00  0.00    +0.008 C 
ATOM      7  C   UNL     1      33.238 -20.460 -20.290  0.00  0.00    +0.008 C 
BRANCH   3  10
ATOM      8  O   UNL     1      34.627 -19.029 -22.671  0.00  0.00    -0.458 OA
ATOM      9  N   UNL     1      35.248 -17.734 -20.892  0.00  0.00    -0.234 NA
ATOM     10  C   UNL     1      34.834 -18.877 -21.341  0.00  0.00    +0.220 C 
ATOM     11  C   UNL     1      35.154 -17.847 -23.251  0.00  0.00    +0.233 C 
ATOM     12  C   UNL     1      35.286 -16.890 -22.090  0.00  0.00    +0.176 C 
ENDBRANCH   3  10
ENDBRANCH   1   2
BRANCH   1  13
ATOM     13  C   UNL     1      33.699 -23.274 -16.848  0.00  0.00    +0.205 C 
BRANCH  13  14
ATOM     14  C   UNL     1      32.237 -23.162 -16.442  0.00  0.00    +0.047 C 
BRANCH  14  15
ATOM     15  C   UNL     1      32.058 -23.291 -14.931  0.00  0.00    +0.004 C 
BRANCH  15  16
ATOM     16  C   UNL     1      30.594 -23.119 -14.527  0.00  0.00    +0.008 C 
BRANCH  16  17
ATOM     17  C   UNL     1      29.697 -24.140 -15.234  0.00  0.00    +0.067 C 
BRANCH  17  20
ATOM     18  O   UNL     1      28.322 -24.119 -17.204  0.00  0.00    -0.358 OA
ATOM     19  N   UNL     1      27.358 -23.369 -17.867  0.00  0.00    -0.082 NA
ATOM     20  C   UNL     1      28.653 -23.463 -16.084  0.00  0.00    +0.154 C 
ATOM     21  C   UNL     1      27.974 -22.313 -15.946  0.00  0.00    +0.054 C 
ATOM     22  C   UNL     1      27.167 -22.294 -17.096  0.00  0.00    +0.101 C 
ATOM     23  C   UNL     1      26.196 -21.265 -17.502  0.00  0.00    +0.056 C 
ENDBRANCH  17  20
ENDBRANCH  16  17
ENDBRANCH  15  16
ENDBRANCH  14  15
ENDBRANCH  13  14
ENDBRANCH   1  13
TORSDOF 8
ENDMDL
MODEL 2
REMARK VINA RESULT:      -9.7      3.931      6.286
REMARK  Name = 1786
REMARK  8 active torsions:
REMARK  status: ('A' for Active; 'I' for Inactive)
REMARK    1  A    between atoms: O_1  and  C_2
REMARK    2  A    between atoms: O_1  and  C_13
REMARK    3  A    between atoms: C_3  and  C_10
REMARK    4  A    between atoms: C_13  and  C_14
REMARK    5  A    between atoms: C_14  and  C_15
REMARK    6  A    between atoms: C_15  and  C_16
REMARK    7  A    between atoms: C_16  and  C_17
REMARK    8  A    between atoms: C_17  and  C_20
REMARK                            x       y       z     vdW  Elec       q    Type
REMARK                         _______ _______ _______ _____ _____    ______ ____
ROOT
ATOM      1  O   UNL     1      33.826 -23.339 -18.624  0.00  0.00    -0.475 OA
ENDROOT
BRANCH   1   2
ATOM      2  C   UNL     1      34.065 -22.183 -19.321  0.00  0.00    +0.139 C 
ATOM      3  C   UNL     1      34.549 -19.836 -20.732  0.00  0.00    +0.053 C 
ATOM      4  C   UNL     1      35.370 -21.829 -19.640  0.00  0.00    +0.037 C 
ATOM      5  C   UNL     1      32.998 -21.376 -19.699  0.00  0.00    +0.037 C 
ATOM      6  C   UNL     1      35.613 -20.651 -20.348  0.00  0.00    +0.008 C 
ATOM      7  C   UNL     1      33.241 -20.198 -20.407  0.00  0.00    +0.008 C 
BRANCH   3  10
ATOM      8  O   UNL     1      34.962 -17.494 -20.705  0.00  0.00    -0.458 OA
ATOM      9  N   UNL     1      34.884 -18.481 -22.766  0.00  0.00    -0.234 NA
ATOM     10  C   UNL     1      34.804 -18.595 -21.477  0.00  0.00    +0.220 C 
ATOM     11  C   UNL     1      34.979 -16.414 -21.624  0.00  0.00    +0.233 C 
ATOM     12  C   UNL     1      35.223 -17.068 -22.963  0.00  0.00    +0.176 C 
ENDBRANCH   3  10
ENDBRANCH   1   2
BRANCH   1  13
ATOM     13  C   UNL     1      33.355 -23.198 -17.291  0.00  0.00    +0.205 C 
BRANCH  13  14
ATOM     14  C   UNL     1      34.548 -23.178 -16.347  0.00  0.00    +0.047 C 
BRANCH  14  15
ATOM     15  C   UNL     1      34.121 -23.356 -14.892  0.00  0.00    +0.004 C 
BRANCH  15  16
ATOM     16  C   UNL     1      34.926 -24.460 -14.206  0.00  0.00    +0.008 C 
BRANCH  16  17
ATOM     17  C   UNL     1      35.535 -25.422 -15.230  0.00  0.00    +0.067 C 
BRANCH  17  20
ATOM     18  O   UNL     1      37.365 -26.960 -14.973  0.00  0.00    -0.358 OA
ATOM     19  N   UNL     1      38.726 -27.016 -14.702  0.00  0.00    -0.082 NA
ATOM     20  C   UNL     1      36.996 -25.672 -14.954  0.00  0.00    +0.154 C 
ATOM     21  C   UNL     1      38.023 -24.850 -14.685  0.00  0.00    +0.054 C 
ATOM     22  C   UNL     1      39.097 -25.743 -14.533  0.00  0.00    +0.101 C 
ATOM     23  C   UNL     1      40.501 -25.425 -14.225  0.00  0.00    +0.056 C 
ENDBRANCH  17  20
ENDBRANCH  16  17
ENDBRANCH  15  16
ENDBRANCH  14  15
ENDBRANCH  13  14
ENDBRANCH   1  13
TORSDOF 8
ENDMDL
MODEL 3
REMARK VINA RESULT:      -9.5      1.451      2.017
REMARK  Name = 1786
REMARK  8 active torsions:
REMARK  status: ('A' for Active; 'I' for Inactive)
REMARK    1  A    between atoms: O_1  and  C_2
REMARK    2  A    between atoms: O_1  and  C_13
REMARK    3  A    between atoms: C_3  and  C_10
REMARK    4  A    between atoms: C_13  and  C_14
REMARK    5  A    between atoms: C_14  and  C_15
REMARK    6  A    between atoms: C_15  and  C_16
REMARK    7  A    between atoms: C_16  and  C_17
REMARK    8  A    between atoms: C_17  and  C_20
REMARK                            x       y       z     vdW  Elec       q    Type
REMARK                         _______ _______ _______ _____ _____    ______ ____
ROOT
ATOM      1  O   UNL     1      34.175 -23.332 -18.601  0.00  0.00    -0.475 OA
ENDROOT
BRANCH   1   2
ATOM      2  C   UNL     1      34.329 -22.164 -19.302  0.00  0.00    +0.139 C 
ATOM      3  C   UNL     1      34.642 -19.794 -20.722  0.00  0.00    +0.053 C 
ATOM      4  C   UNL     1      35.606 -21.714 -19.617  0.00  0.00    +0.037 C 
ATOM      5  C   UNL     1      33.207 -21.441 -19.688  0.00  0.00    +0.037 C 
ATOM      6  C   UNL     1      35.763 -20.525 -20.330  0.00  0.00    +0.008 C 
ATOM      7  C   UNL     1      33.363 -20.251 -20.400  0.00  0.00    +0.008 C 
BRANCH   3  10
ATOM      8  O   UNL     1      35.026 -17.446 -20.704  0.00  0.00    -0.458 OA
ATOM      9  N   UNL     1      34.757 -18.409 -22.760  0.00  0.00    -0.234 NA
ATOM     10  C   UNL     1      34.807 -18.540 -21.471  0.00  0.00    +0.220 C 
ATOM     11  C   UNL     1      34.938 -16.355 -21.606  0.00  0.00    +0.233 C 
ATOM     12  C   UNL     1      35.057 -16.989 -22.971  0.00  0.00    +0.176 C 
ENDBRANCH   3  10
ENDBRANCH   1   2
BRANCH   1  13
ATOM     13  C   UNL     1      33.596 -23.231 -17.307  0.00  0.00    +0.205 C 
BRANCH  13  14
ATOM     14  C   UNL     1      34.710 -23.188 -16.272  0.00  0.00    +0.047 C 
BRANCH  14  15
ATOM     15  C   UNL     1      34.410 -24.097 -15.081  0.00  0.00    +0.004 C 
BRANCH  15  16
ATOM     16  C   UNL     1      33.222 -23.579 -14.271  0.00  0.00    +0.008 C 
BRANCH  16  17
ATOM     17  C   UNL     1      32.167 -24.672 -14.070  0.00  0.00    +0.067 C 
BRANCH  17  20
ATOM     18  O   UNL     1      30.037 -25.285 -14.998  0.00  0.00    -0.358 OA
ATOM     19  N   UNL     1      28.862 -24.747 -15.509  0.00  0.00    -0.082 NA
ATOM     20  C   UNL     1      30.835 -24.268 -14.649  0.00  0.00    +0.154 C 
ATOM     21  C   UNL     1      30.275 -23.072 -14.892  0.00  0.00    +0.054 C 
ATOM     22  C   UNL     1      29.028 -23.423 -15.436  0.00  0.00    +0.101 C 
ATOM     23  C   UNL     1      27.959 -22.525 -15.901  0.00  0.00    +0.056 C 
ENDBRANCH  17  20
ENDBRANCH  16  17
ENDBRANCH  15  16
ENDBRANCH  14  15
ENDBRANCH  13  14
ENDBRANCH   1  13
TORSDOF 8
ENDMDL
MODEL 4
REMARK VINA RESULT:      -9.4      6.029     10.935
REMARK  Name = 1786
REMARK  8 active torsions:
REMARK  status: ('A' for Active; 'I' for Inactive)
REMARK    1  A    between atoms: O_1  and  C_2
REMARK    2  A    between atoms: O_1  and  C_13
REMARK    3  A    between atoms: C_3  and  C_10
REMARK    4  A    between atoms: C_13  and  C_14
REMARK    5  A    between atoms: C_14  and  C_15
REMARK    6  A    between atoms: C_15  and  C_16
REMARK    7  A    between atoms: C_16  and  C_17
REMARK    8  A    between atoms: C_17  and  C_20
REMARK                            x       y       z     vdW  Elec       q    Type
REMARK                         _______ _______ _______ _____ _____    ______ ____
ROOT
ATOM      1  O   UNL     1      34.223 -13.996 -23.472  0.00  0.00    -0.475 OA
ENDROOT
BRANCH   1   2
ATOM      2  C   UNL     1      34.516 -15.193 -22.873  0.00  0.00    +0.139 C 
ATOM      3  C   UNL     1      35.113 -17.621 -21.656  0.00  0.00    +0.053 C 
ATOM      4  C   UNL     1      34.476 -15.297 -21.487  0.00  0.00    +0.037 C 
ATOM      5  C   UNL     1      34.851 -16.291 -23.657  0.00  0.00    +0.037 C 
ATOM      6  C   UNL     1      34.776 -16.515 -20.877  0.00  0.00    +0.008 C 
ATOM      7  C   UNL     1      35.151 -17.509 -23.046  0.00  0.00    +0.008 C 
BRANCH   3  10
ATOM      8  O   UNL     1      34.373 -19.739 -20.866  0.00  0.00    -0.458 OA
ATOM      9  N   UNL     1      36.596 -19.280 -20.591  0.00  0.00    -0.234 NA
ATOM     10  C   UNL     1      35.429 -18.905 -21.013  0.00  0.00    +0.220 C 
ATOM     11  C   UNL     1      34.862 -20.792 -20.049  0.00  0.00    +0.233 C 
ATOM     12  C   UNL     1      36.364 -20.647 -20.115  0.00  0.00    +0.176 C 
ENDBRANCH   3  10
ENDBRANCH   1   2
BRANCH   1  13
ATOM     13  C   UNL     1      32.847 -13.671 -23.618  0.00  0.00    +0.205 C 
BRANCH  13  14
ATOM     14  C   UNL     1      32.552 -12.413 -22.816  0.00  0.00    +0.047 C 
BRANCH  14  15
ATOM     15  C   UNL     1      31.919 -12.739 -21.465  0.00  0.00    +0.004 C 
BRANCH  15  16
ATOM     16  C   UNL     1      30.982 -11.622 -21.004  0.00  0.00    +0.008 C 
BRANCH  16  17
ATOM     17  C   UNL     1      31.597 -10.819 -19.855  0.00  0.00    +0.067 C 
BRANCH  17  20
ATOM     18  O   UNL     1      32.349  -8.606 -19.291  0.00  0.00    -0.358 OA
ATOM     19  N   UNL     1      32.593  -7.353 -19.839  0.00  0.00    -0.082 NA
ATOM     20  C   UNL     1      31.914  -9.406 -20.275  0.00  0.00    +0.154 C 
ATOM     21  C   UNL     1      31.847  -8.773 -21.457  0.00  0.00    +0.054 C 
ATOM     22  C   UNL     1      32.285  -7.477 -21.134  0.00  0.00    +0.101 C 
ATOM     23  C   UNL     1      32.426  -6.321 -22.034  0.00  0.00    +0.056 C 
ENDBRANCH  17  20
ENDBRANCH  16  17
ENDBRANCH  15  16
ENDBRANCH  14  15
ENDBRANCH  13  14
ENDBRANCH   1  13
TORSDOF 8
ENDMDL
MODEL 5
REMARK VINA RESULT:      -9.3      3.834      5.963
REMARK  Name = 1786
REMARK  8 active torsions:
REMARK  status: ('A' for Active; 'I' for Inactive)
REMARK    1  A    between atoms: O_1  and  C_2
REMARK    2  A    between atoms: O_1  and  C_13
REMARK    3  A    between atoms: C_3  and  C_10
REMARK    4  A    between atoms: C_13  and  C_14
REMARK    5  A    between atoms: C_14  and  C_15
REMARK    6  A    between atoms: C_15  and  C_16
REMARK    7  A    between atoms: C_16  and  C_17
REMARK    8  A    between atoms: C_17  and  C_20
REMARK                            x       y       z     vdW  Elec       q    Type
REMARK                         _______ _______ _______ _____ _____    ______ ____
ROOT
ATOM      1  O   UNL     1      34.355 -23.305 -18.373  0.00  0.00    -0.475 OA
ENDROOT
BRANCH   1   2
ATOM      2  C   UNL     1      34.469 -22.173 -19.137  0.00  0.00    +0.139 C 
ATOM      3  C   UNL     1      34.701 -19.875 -20.686  0.00  0.00    +0.053 C 
ATOM      4  C   UNL     1      35.730 -21.701 -19.483  0.00  0.00    +0.037 C 
ATOM      5  C   UNL     1      33.323 -21.509 -19.558  0.00  0.00    +0.037 C 
ATOM      6  C   UNL     1      35.846 -20.547 -20.260  0.00  0.00    +0.008 C 
ATOM      7  C   UNL     1      33.439 -20.355 -20.334  0.00  0.00    +0.008 C 
BRANCH   3  10
ATOM      8  O   UNL     1      35.096 -17.533 -20.804  0.00  0.00    -0.458 OA
ATOM      9  N   UNL     1      34.692 -18.589 -22.791  0.00  0.00    -0.234 NA
ATOM     10  C   UNL     1      34.824 -18.660 -21.504  0.00  0.00    +0.220 C 
ATOM     11  C   UNL     1      34.956 -16.484 -21.750  0.00  0.00    +0.233 C 
ATOM     12  C   UNL     1      34.984 -17.183 -23.088  0.00  0.00    +0.176 C 
ENDBRANCH   3  10
ENDBRANCH   1   2
BRANCH   1  13
ATOM     13  C   UNL     1      33.276 -23.349 -17.450  0.00  0.00    +0.205 C 
BRANCH  13  14
ATOM     14  C   UNL     1      33.831 -23.244 -16.038  0.00  0.00    +0.047 C 
BRANCH  14  15
ATOM     15  C   UNL     1      35.178 -23.952 -15.906  0.00  0.00    +0.004 C 
BRANCH  15  16
ATOM     16  C   UNL     1      36.317 -22.950 -15.715  0.00  0.00    +0.008 C 
BRANCH  16  17
ATOM     17  C   UNL     1      37.455 -23.554 -14.885  0.00  0.00    +0.067 C 
BRANCH  17  20
ATOM     18  O   UNL     1      37.825 -22.766 -12.645  0.00  0.00    -0.358 OA
ATOM     19  N   UNL     1      37.387 -22.924 -11.335  0.00  0.00    -0.082 NA
ATOM     20  C   UNL     1      37.108 -23.593 -13.419  0.00  0.00    +0.154 C 
ATOM     21  C   UNL     1      36.211 -24.303 -12.716  0.00  0.00    +0.054 C 
ATOM     22  C   UNL     1      36.423 -23.847 -11.403  0.00  0.00    +0.101 C 
ATOM     23  C   UNL     1      35.725 -24.268 -10.177  0.00  0.00    +0.056 C 
ENDBRANCH  17  20
ENDBRANCH  16  17
ENDBRANCH  15  16
ENDBRANCH  14  15
ENDBRANCH  13  14
ENDBRANCH   1  13
TORSDOF 8
ENDMDL
MODEL 6
REMARK VINA RESULT:      -9.3      4.010      8.858
REMARK  Name = 1786
REMARK  8 active torsions:
REMARK  status: ('A' for Active; 'I' for Inactive)
REMARK    1  A    between atoms: O_1  and  C_2
REMARK    2  A    between atoms: O_1  and  C_13
REMARK    3  A    between atoms: C_3  and  C_10
REMARK    4  A    between atoms: C_13  and  C_14
REMARK    5  A    between atoms: C_14  and  C_15
REMARK    6  A    between atoms: C_15  and  C_16
REMARK    7  A    between atoms: C_16  and  C_17
REMARK    8  A    between atoms: C_17  and  C_20
REMARK                            x       y       z     vdW  Elec       q    Type
REMARK                         _______ _______ _______ _____ _____    ______ ____
ROOT
ATOM      1  O   UNL     1      35.044 -18.882 -22.413  0.00  0.00    -0.475 OA
ENDROOT
BRANCH   1   2
ATOM      2  C   UNL     1      34.722 -19.730 -21.386  0.00  0.00    +0.139 C 
ATOM      3  C   UNL     1      34.067 -21.453 -19.304  0.00  0.00    +0.053 C 
ATOM      4  C   UNL     1      35.725 -20.443 -20.741  0.00  0.00    +0.037 C 
ATOM      5  C   UNL     1      33.393 -19.869 -21.001  0.00  0.00    +0.037 C 
ATOM      6  C   UNL     1      35.397 -21.308 -19.696  0.00  0.00    +0.008 C 
ATOM      7  C   UNL     1      33.064 -20.734 -19.956  0.00  0.00    +0.008 C 
BRANCH   3  10
ATOM      8  O   UNL     1      32.392 -22.561 -18.029  0.00  0.00    -0.458 OA
ATOM      9  N   UNL     1      34.557 -22.967 -17.419  0.00  0.00    -0.234 NA
ATOM     10  C   UNL     1      33.720 -22.365 -18.204  0.00  0.00    +0.220 C 
ATOM     11  C   UNL     1      32.295 -23.282 -16.811  0.00  0.00    +0.233 C 
ATOM     12  C   UNL     1      33.695 -23.796 -16.571  0.00  0.00    +0.176 C 
ENDBRANCH   3  10
ENDBRANCH   1   2
BRANCH   1  13
ATOM     13  C   UNL     1      35.679 -17.660 -22.060  0.00  0.00    +0.205 C 
BRANCH  13  14
ATOM     14  C   UNL     1      34.818 -16.502 -22.541  0.00  0.00    +0.047 C 
BRANCH  14  15
ATOM     15  C   UNL     1      34.491 -15.532 -21.407  0.00  0.00    +0.004 C 
BRANCH  15  16
ATOM     16  C   UNL     1      32.985 -15.295 -21.294  0.00  0.00    +0.008 C 
BRANCH  16  17
ATOM     17  C   UNL     1      32.512 -14.238 -22.296  0.00  0.00    +0.067 C 
BRANCH  17  20
ATOM     18  O   UNL     1      31.737 -11.966 -22.416  0.00  0.00    -0.358 OA
ATOM     19  N   UNL     1      31.360 -10.888 -21.625  0.00  0.00    -0.082 NA
ATOM     20  C   UNL     1      32.072 -12.975 -21.600  0.00  0.00    +0.154 C 
ATOM     21  C   UNL     1      31.946 -12.649 -20.304  0.00  0.00    +0.054 C 
ATOM     22  C   UNL     1      31.494 -11.319 -20.367  0.00  0.00    +0.101 C 
ATOM     23  C   UNL     1      31.175 -10.419 -19.247  0.00  0.00    +0.056 C 
ENDBRANCH  17  20
ENDBRANCH  16  17
ENDBRANCH  15  16
ENDBRANCH  14  15
ENDBRANCH  13  14
ENDBRANCH   1  13
TORSDOF 8
ENDMDL
MODEL 7
REMARK VINA RESULT:      -9.3      5.420     11.462
REMARK  Name = 1786
REMARK  8 active torsions:
REMARK  status: ('A' for Active; 'I' for Inactive)
REMARK    1  A    between atoms: O_1  and  C_2
REMARK    2  A    between atoms: O_1  and  C_13
REMARK    3  A    between atoms: C_3  and  C_10
REMARK    4  A    between atoms: C_13  and  C_14
REMARK    5  A    between atoms: C_14  and  C_15
REMARK    6  A    between atoms: C_15  and  C_16
REMARK    7  A    between atoms: C_16  and  C_17
REMARK    8  A    between atoms: C_17  and  C_20
REMARK                            x       y       z     vdW  Elec       q    Type
REMARK                         _______ _______ _______ _____ _____    ______ ____
ROOT
ATOM      1  O   UNL     1      34.410 -16.098 -25.898  0.00  0.00    -0.475 OA
ENDROOT
BRANCH   1   2
ATOM      2  C   UNL     1      34.650 -16.910 -24.820  0.00  0.00    +0.139 C 
ATOM      3  C   UNL     1      35.136 -18.558 -22.634  0.00  0.00    +0.053 C 
ATOM      4  C   UNL     1      34.532 -18.288 -24.958  0.00  0.00    +0.037 C 
ATOM      5  C   UNL     1      35.009 -16.347 -23.601  0.00  0.00    +0.037 C 
ATOM      6  C   UNL     1      34.776 -19.116 -23.861  0.00  0.00    +0.008 C 
ATOM      7  C   UNL     1      35.252 -17.174 -22.504  0.00  0.00    +0.008 C 
BRANCH   3  10
ATOM      8  O   UNL     1      34.390 -20.293 -21.188  0.00  0.00    -0.458 OA
ATOM      9  N   UNL     1      36.459 -19.430 -20.743  0.00  0.00    -0.234 NA
ATOM     10  C   UNL     1      35.391 -19.429 -21.478  0.00  0.00    +0.220 C 
ATOM     11  C   UNL     1      34.758 -20.861 -19.941  0.00  0.00    +0.233 C 
ATOM     12  C   UNL     1      36.224 -20.525 -19.798  0.00  0.00    +0.176 C 
ENDBRANCH   3  10
ENDBRANCH   1   2
BRANCH   1  13
ATOM     13  C   UNL     1      33.086 -15.602 -26.044  0.00  0.00    +0.205 C 
BRANCH  13  14
ATOM     14  C   UNL     1      33.106 -14.090 -25.878  0.00  0.00    +0.047 C 
BRANCH  14  15
ATOM     15  C   UNL     1      32.781 -13.675 -24.445  0.00  0.00    +0.004 C 
BRANCH  15  16
ATOM     16  C   UNL     1      33.825 -12.704 -23.895  0.00  0.00    +0.008 C 
BRANCH  16  17
ATOM     17  C   UNL     1      34.089 -11.557 -24.876  0.00  0.00    +0.067 C 
BRANCH  17  20
ATOM     18  O   UNL     1      35.168  -9.545 -24.124  0.00  0.00    -0.358 OA
ATOM     19  N   UNL     1      34.924  -8.343 -23.471  0.00  0.00    -0.082 NA
ATOM     20  C   UNL     1      34.010 -10.216 -24.193  0.00  0.00    +0.154 C 
ATOM     21  C   UNL     1      32.995  -9.544 -23.627  0.00  0.00    +0.054 C 
ATOM     22  C   UNL     1      33.619  -8.365 -23.183  0.00  0.00    +0.101 C 
ATOM     23  C   UNL     1      33.006  -7.228 -22.478  0.00  0.00    +0.056 C 
ENDBRANCH  17  20
ENDBRANCH  16  17
ENDBRANCH  15  16
ENDBRANCH  14  15
ENDBRANCH  13  14
ENDBRANCH   1  13
TORSDOF 8
ENDMDL
MODEL 8
REMARK VINA RESULT:      -9.3      4.521      8.930
REMARK  Name = 1786
REMARK  8 active torsions:
REMARK  status: ('A' for Active; 'I' for Inactive)
REMARK    1  A    between atoms: O_1  and  C_2
REMARK    2  A    between atoms: O_1  and  C_13
REMARK    3  A    between atoms: C_3  and  C_10
REMARK    4  A    between atoms: C_13  and  C_14
REMARK    5  A    between atoms: C_14  and  C_15
REMARK    6  A    between atoms: C_15  and  C_16
REMARK    7  A    between atoms: C_16  and  C_17
REMARK    8  A    between atoms: C_17  and  C_20
REMARK                            x       y       z     vdW  Elec       q    Type
REMARK                         _______ _______ _______ _____ _____    ______ ____
ROOT
ATOM      1  O   UNL     1      34.652 -21.595 -19.721  0.00  0.00    -0.475 OA
ENDROOT
BRANCH   1   2
ATOM      2  C   UNL     1      35.134 -22.002 -18.505  0.00  0.00    +0.139 C 
ATOM      3  C   UNL     1      36.111 -22.824 -16.035  0.00  0.00    +0.053 C 
ATOM      4  C   UNL     1      34.307 -22.706 -17.637  0.00  0.00    +0.037 C 
ATOM      5  C   UNL     1      36.445 -21.704 -18.150  0.00  0.00    +0.037 C 
ATOM      6  C   UNL     1      34.798 -23.119 -16.398  0.00  0.00    +0.008 C 
ATOM      7  C   UNL     1      36.935 -22.116 -16.910  0.00  0.00    +0.008 C 
BRANCH   3  10
ATOM      8  O   UNL     1      35.708 -23.280 -13.735  0.00  0.00    -0.458 OA
ATOM      9  N   UNL     1      37.849 -23.604 -14.467  0.00  0.00    -0.234 NA
ATOM     10  C   UNL     1      36.628 -23.258 -14.728  0.00  0.00    +0.220 C 
ATOM     11  C   UNL     1      36.462 -23.512 -12.556  0.00  0.00    +0.233 C 
ATOM     12  C   UNL     1      37.796 -24.010 -13.059  0.00  0.00    +0.176 C 
ENDBRANCH   3  10
ENDBRANCH   1   2
BRANCH   1  13
ATOM     13  C   UNL     1      33.291 -21.189 -19.769  0.00  0.00    +0.205 C 
BRANCH  13  14
ATOM     14  C   UNL     1      33.149 -20.062 -20.780  0.00  0.00    +0.047 C 
BRANCH  14  15
ATOM     15  C   UNL     1      34.462 -19.306 -20.972  0.00  0.00    +0.004 C 
BRANCH  15  16
ATOM     16  C   UNL     1      34.957 -19.405 -22.414  0.00  0.00    +0.008 C 
BRANCH  16  17
ATOM     17  C   UNL     1      35.711 -18.139 -22.833  0.00  0.00    +0.067 C 
BRANCH  17  20
ATOM     18  O   UNL     1      34.597 -18.045 -24.961  0.00  0.00    -0.358 OA
ATOM     19  N   UNL     1      33.903 -17.186 -25.804  0.00  0.00    -0.082 NA
ATOM     20  C   UNL     1      34.942 -17.355 -23.866  0.00  0.00    +0.154 C 
ATOM     21  C   UNL     1      34.526 -16.079 -23.913  0.00  0.00    +0.054 C 
ATOM     22  C   UNL     1      33.874 -16.017 -25.156  0.00  0.00    +0.101 C 
ATOM     23  C   UNL     1      33.205 -14.857 -25.769  0.00  0.00    +0.056 C 
ENDBRANCH  17  20
ENDBRANCH  16  17
ENDBRANCH  15  16
ENDBRANCH  14  15
ENDBRANCH  13  14
ENDBRANCH   1  13
TORSDOF 8
ENDMDL
MODEL 9
REMARK VINA RESULT:      -9.2      3.909      5.984
REMARK  Name = 1786
REMARK  8 active torsions:
REMARK  status: ('A' for Active; 'I' for Inactive)
REMARK    1  A    between atoms: O_1  and  C_2
REMARK    2  A    between atoms: O_1  and  C_13
REMARK    3  A    between atoms: C_3  and  C_10
REMARK    4  A    between atoms: C_13  and  C_14
REMARK    5  A    between atoms: C_14  and  C_15
REMARK    6  A    between atoms: C_15  and  C_16
REMARK    7  A    between atoms: C_16  and  C_17
REMARK    8  A    between atoms: C_17  and  C_20
REMARK                            x       y       z     vdW  Elec       q    Type
REMARK                         _______ _______ _______ _____ _____    ______ ____
ROOT
ATOM      1  O   UNL     1      35.868 -18.906 -20.632  0.00  0.00    -0.475 OA
ENDROOT
BRANCH   1   2
ATOM      2  C   UNL     1      35.394 -18.104 -21.638  0.00  0.00    +0.139 C 
ATOM      3  C   UNL     1      34.436 -16.476 -23.679  0.00  0.00    +0.053 C 
ATOM      4  C   UNL     1      35.495 -18.525 -22.959  0.00  0.00    +0.037 C 
ATOM      5  C   UNL     1      34.820 -16.877 -21.326  0.00  0.00    +0.037 C 
ATOM      6  C   UNL     1      35.014 -17.708 -23.983  0.00  0.00    +0.008 C 
ATOM      7  C   UNL     1      34.339 -16.060 -22.350  0.00  0.00    +0.008 C 
BRANCH   3  10
ATOM      8  O   UNL     1      33.622 -14.353 -24.376  0.00  0.00    -0.458 OA
ATOM      9  N   UNL     1      33.762 -15.961 -25.995  0.00  0.00    -0.234 NA
ATOM     10  C   UNL     1      33.930 -15.615 -24.757  0.00  0.00    +0.220 C 
ATOM     11  C   UNL     1      32.968 -13.790 -25.503  0.00  0.00    +0.233 C 
ATOM     12  C   UNL     1      33.317 -14.722 -26.639  0.00  0.00    +0.176 C 
ENDBRANCH   3  10
ENDBRANCH   1   2
BRANCH   1  13
ATOM     13  C   UNL     1      35.319 -20.213 -20.542  0.00  0.00    +0.205 C 
BRANCH  13  14
ATOM     14  C   UNL     1      33.812 -20.102 -20.361  0.00  0.00    +0.047 C 
BRANCH  14  15
ATOM     15  C   UNL     1      33.191 -21.438 -19.961  0.00  0.00    +0.004 C 
BRANCH  15  16
ATOM     16  C   UNL     1      34.047 -22.162 -18.922  0.00  0.00    +0.008 C 
BRANCH  16  17
ATOM     17  C   UNL     1      33.178 -22.817 -17.844  0.00  0.00    +0.067 C 
BRANCH  17  20
ATOM     18  O   UNL     1      35.318 -23.364 -16.898  0.00  0.00    -0.358 OA
ATOM     19  N   UNL     1      35.928 -23.782 -15.722  0.00  0.00    -0.082 NA
ATOM     20  C   UNL     1      34.003 -23.263 -16.664  0.00  0.00    +0.154 C 
ATOM     21  C   UNL     1      33.682 -23.588 -15.402  0.00  0.00    +0.054 C 
ATOM     22  C   UNL     1      34.930 -23.910 -14.842  0.00  0.00    +0.101 C 
ATOM     23  C   UNL     1      35.218 -24.345 -13.466  0.00  0.00    +0.056 C 
ENDBRANCH  17  20
ENDBRANCH  16  17
ENDBRANCH  15  16
ENDBRANCH  14  15
ENDBRANCH  13  14
ENDBRANCH   1  13
TORSDOF 8
ENDMDL
