MODEL 1
REMARK VINA RESULT:      -9.7      0.000      0.000
REMARK  Name = 23653502
REMARK  14 active torsions:
REMARK  status: ('A' for Active; 'I' for Inactive)
REMARK    1  A    between atoms: P_1  and  O_3
REMARK    2  A    between atoms: P_1  and  O_5
REMARK    3  A    between atoms: P_1  and  C_22
REMARK    4  A    between atoms: O_5  and  C_6
REMARK    5  A    between atoms: C_6  and  C_7
REMARK    6  A    between atoms: C_6  and  C_19
REMARK    7  A    between atoms: C_10  and  C_13
REMARK    8  A    between atoms: C_13  and  N_14
REMARK    9  A    between atoms: C_19  and  O_20
REMARK   10  A    between atoms: C_22  and  N_24
REMARK   11  A    between atoms: C_22  and  C_35
REMARK   12  A    between atoms: C_25  and  O_27
REMARK   13  A    between atoms: O_27  and  C_28
REMARK   14  A    between atoms: C_28  and  C_29
REMARK                            x       y       z     vdW  Elec       q    Type
REMARK                         _______ _______ _______ _____ _____    ______ ____
ROOT
ATOM      1  P   UNL     1      34.687 -16.768 -23.570  0.00  0.00    +0.358 P 
ATOM      2  O   UNL     1      34.193 -17.729 -24.611  0.00  0.00    -0.256 OA
ENDROOT
BRANCH   1   3
ATOM      3  O   UNL     1      36.272 -16.888 -23.264  0.00  0.00    -0.322 OA
ATOM      4  H   UNL     1      36.686 -17.465 -23.925  0.00  0.00    +0.220 HD
ENDBRANCH   1   3
BRANCH   1   5
ATOM      5  O   UNL     1      34.534 -15.205 -23.969  0.00  0.00    -0.280 OA
BRANCH   5   6
ATOM      6  C   UNL     1      33.272 -14.720 -24.391  0.00  0.00    +0.244 C 
BRANCH   6   7
ATOM      7  C   UNL     1      33.073 -13.319 -23.857  0.00  0.00    +0.015 C 
ATOM      8  C   UNL     1      33.853 -12.288 -24.353  0.00  0.00    -0.008 C 
ATOM      9  C   UNL     1      32.114 -13.096 -22.884  0.00  0.00    -0.001 C 
ATOM     10  C   UNL     1      33.670 -10.997 -23.861  0.00  0.00    -0.044 C 
ATOM     11  C   UNL     1      31.930 -11.804 -22.391  0.00  0.00    -0.001 C 
ATOM     12  C   UNL     1      32.707 -10.754 -22.880  0.00  0.00    -0.006 C 
BRANCH  10  13
ATOM     13  C   UNL     1      34.501  -9.874 -24.382  0.00  0.00    -0.059 C 
BRANCH  13  14
ATOM     14  N   UNL     1      35.596 -10.359 -25.224  0.00  0.00    +0.383 N 
ATOM     15  H   UNL     1      36.377 -10.647 -24.635  0.00  0.00    -0.089 HD
ATOM     16  H   UNL     1      35.900  -9.613 -25.850  0.00  0.00    -0.089 HD
ATOM     17  H   UNL     1      35.275 -11.154 -25.775  0.00  0.00    -0.089 HD
ENDBRANCH  13  14
ENDBRANCH  10  13
ENDBRANCH   6   7
BRANCH   6  19
ATOM     18  O   UNL     1      34.034 -15.258 -26.645  0.00  0.00    -0.247 OA
ATOM     19  C   UNL     1      33.181 -14.785 -25.905  0.00  0.00    +0.346 C 
BRANCH  19  20
ATOM     20  O   UNL     1      32.037 -14.221 -26.374  0.00  0.00    -0.478 OA
ATOM     21  H   UNL     1      31.218 -14.409 -25.959  0.00  0.00    +0.295 HD
ENDBRANCH  19  20
ENDBRANCH   6  19
ENDBRANCH   5   6
ENDBRANCH   1   5
BRANCH   1  22
ATOM     22  C   UNL     1      33.902 -16.906 -21.961  0.00  0.00    +0.179 C 
BRANCH  22  24
ATOM     23  O   UNL     1      33.806 -19.789 -21.586  0.00  0.00    -0.226 OA
ATOM     24  N   UNL     1      34.800 -17.737 -21.167  0.00  0.00    -0.262 N 
ATOM     25  C   UNL     1      34.672 -19.104 -21.050  0.00  0.00    +0.402 C 
ATOM     26  H   UNL     1      35.540 -17.297 -20.689  0.00  0.00    +0.153 HD
BRANCH  25  27
ATOM     27  O   UNL     1      35.660 -19.593 -20.244  0.00  0.00    -0.430 OA
BRANCH  27  28
ATOM     28  C   UNL     1      35.880 -21.007 -20.313  0.00  0.00    +0.237 C 
BRANCH  28  29
ATOM     29  C   UNL     1      35.482 -21.694 -19.051  0.00  0.00    +0.021 C 
ATOM     30  C   UNL     1      36.382 -21.778 -17.990  0.00  0.00    -0.001 C 
ATOM     31  C   UNL     1      34.210 -22.252 -18.933  0.00  0.00    -0.001 C 
ATOM     32  C   UNL     1      36.009 -22.422 -16.808  0.00  0.00    -0.000 C 
ATOM     33  C   UNL     1      33.837 -22.896 -17.753  0.00  0.00    -0.000 C 
ATOM     34  C   UNL     1      34.737 -22.981 -16.691  0.00  0.00    -0.000 C 
ENDBRANCH  28  29
ENDBRANCH  27  28
ENDBRANCH  25  27
ENDBRANCH  22  24
BRANCH  22  35
ATOM     35  C   UNL     1      33.541 -15.607 -21.212  0.00  0.00    +0.030 C 
ATOM     36  C   UNL     1      32.245 -15.759 -20.414  0.00  0.00    +0.002 C 
ATOM     37  C   UNL     1      34.658 -15.099 -20.299  0.00  0.00    +0.002 C 
ENDBRANCH  22  35
ENDBRANCH   1  22
TORSDOF 14
ENDMDL
MODEL 2
REMARK VINA RESULT:      -9.7      2.457      8.914
REMARK  Name = 23653502
REMARK  14 active torsions:
REMARK  status: ('A' for Active; 'I' for Inactive)
REMARK    1  A    between atoms: P_1  and  O_3
REMARK    2  A    between atoms: P_1  and  O_5
REMARK    3  A    between atoms: P_1  and  C_22
REMARK    4  A    between atoms: O_5  and  C_6
REMARK    5  A    between atoms: C_6  and  C_7
REMARK    6  A    between atoms: C_6  and  C_19
REMARK    7  A    between atoms: C_10  and  C_13
REMARK    8  A    between atoms: C_13  and  N_14
REMARK    9  A    between atoms: C_19  and  O_20
REMARK   10  A    between atoms: C_22  and  N_24
REMARK   11  A    between atoms: C_22  and  C_35
REMARK   12  A    between atoms: C_25  and  O_27
REMARK   13  A    between atoms: O_27  and  C_28
REMARK   14  A    between atoms: C_28  and  C_29
REMARK                            x       y       z     vdW  Elec       q    Type
REMARK                         _______ _______ _______ _____ _____    ______ ____
ROOT
ATOM      1  P   UNL     1      34.641 -15.755 -22.465  0.00  0.00    +0.358 P 
ATOM      2  O   UNL     1      35.091 -15.282 -21.115  0.00  0.00    -0.256 OA
ENDROOT
BRANCH   1   3
ATOM      3  O   UNL     1      35.838 -15.889 -23.548  0.00  0.00    -0.322 OA
ATOM      4  H   UNL     1      36.604 -16.315 -23.132  0.00  0.00    +0.220 HD
ENDBRANCH   1   3
BRANCH   1   5
ATOM      5  O   UNL     1      34.002 -17.244 -22.479  0.00  0.00    -0.280 OA
BRANCH   5   6
ATOM      6  C   UNL     1      34.858 -18.362 -22.629  0.00  0.00    +0.244 C 
BRANCH   6   7
ATOM      7  C   UNL     1      34.559 -19.369 -21.541  0.00  0.00    +0.015 C 
ATOM      8  C   UNL     1      35.607 -20.011 -20.905  0.00  0.00    -0.008 C 
ATOM      9  C   UNL     1      33.240 -19.626 -21.203  0.00  0.00    -0.001 C 
ATOM     10  C   UNL     1      35.330 -20.939 -19.902  0.00  0.00    -0.044 C 
ATOM     11  C   UNL     1      32.963 -20.555 -20.199  0.00  0.00    -0.001 C 
ATOM     12  C   UNL     1      34.008 -21.211 -19.548  0.00  0.00    -0.006 C 
BRANCH  10  13
ATOM     13  C   UNL     1      36.446 -21.642 -19.206  0.00  0.00    -0.059 C 
BRANCH  13  14
ATOM     14  N   UNL     1      36.837 -20.948 -17.977  0.00  0.00    +0.383 N 
ATOM     15  H   UNL     1      37.218 -20.031 -18.210  0.00  0.00    -0.089 HD
ATOM     16  H   UNL     1      37.546 -21.495 -17.488  0.00  0.00    -0.089 HD
ATOM     17  H   UNL     1      36.022 -20.836 -17.376  0.00  0.00    -0.089 HD
ENDBRANCH  13  14
ENDBRANCH  10  13
ENDBRANCH   6   7
BRANCH   6  19
ATOM     18  O   UNL     1      35.012 -20.081 -24.354  0.00  0.00    -0.247 OA
ATOM     19  C   UNL     1      34.696 -18.945 -24.021  0.00  0.00    +0.346 C 
BRANCH  19  20
ATOM     20  O   UNL     1      34.179 -18.043 -24.897  0.00  0.00    -0.478 OA
ATOM     21  H   UNL     1      33.315 -18.164 -25.237  0.00  0.00    +0.295 HD
ENDBRANCH  19  20
ENDBRANCH   6  19
ENDBRANCH   5   6
ENDBRANCH   1   5
BRANCH   1  22
ATOM     22  C   UNL     1      33.412 -14.724 -23.272  0.00  0.00    +0.179 C 
BRANCH  22  24
ATOM     23  O   UNL     1      31.766 -14.978 -20.887  0.00  0.00    -0.226 OA
ATOM     24  N   UNL     1      33.081 -13.691 -22.297  0.00  0.00    -0.262 N 
ATOM     25  C   UNL     1      32.287 -13.910 -21.191  0.00  0.00    +0.402 C 
ATOM     26  H   UNL     1      33.445 -12.786 -22.436  0.00  0.00    +0.153 HD
BRANCH  25  27
ATOM     27  O   UNL     1      32.164 -12.754 -20.476  0.00  0.00    -0.430 OA
BRANCH  27  28
ATOM     28  C   UNL     1      31.163 -11.838 -20.936  0.00  0.00    +0.237 C 
BRANCH  28  29
ATOM     29  C   UNL     1      31.699 -10.453 -21.079  0.00  0.00    +0.021 C 
ATOM     30  C   UNL     1      32.081  -9.981 -22.335  0.00  0.00    -0.001 C 
ATOM     31  C   UNL     1      31.819  -9.632 -19.959  0.00  0.00    -0.001 C 
ATOM     32  C   UNL     1      32.583  -8.685 -22.469  0.00  0.00    -0.000 C 
ATOM     33  C   UNL     1      32.320  -8.338 -20.093  0.00  0.00    -0.000 C 
ATOM     34  C   UNL     1      32.703  -7.865 -21.348  0.00  0.00    -0.000 C 
ENDBRANCH  28  29
ENDBRANCH  27  28
ENDBRANCH  25  27
ENDBRANCH  22  24
BRANCH  22  35
ATOM     35  C   UNL     1      33.764 -14.104 -24.639  0.00  0.00    +0.030 C 
ATOM     36  C   UNL     1      32.945 -14.731 -25.769  0.00  0.00    +0.002 C 
ATOM     37  C   UNL     1      33.619 -12.583 -24.675  0.00  0.00    +0.002 C 
ENDBRANCH  22  35
ENDBRANCH   1  22
TORSDOF 14
ENDMDL
MODEL 3
REMARK VINA RESULT:      -9.6      6.955     10.122
REMARK  Name = 23653502
REMARK  14 active torsions:
REMARK  status: ('A' for Active; 'I' for Inactive)
REMARK    1  A    between atoms: P_1  and  O_3
REMARK    2  A    between atoms: P_1  and  O_5
REMARK    3  A    between atoms: P_1  and  C_22
REMARK    4  A    between atoms: O_5  and  C_6
REMARK    5  A    between atoms: C_6  and  C_7
REMARK    6  A    between atoms: C_6  and  C_19
REMARK    7  A    between atoms: C_10  and  C_13
REMARK    8  A    between atoms: C_13  and  N_14
REMARK    9  A    between atoms: C_19  and  O_20
REMARK   10  A    between atoms: C_22  and  N_24
REMARK   11  A    between atoms: C_22  and  C_35
REMARK   12  A    between atoms: C_25  and  O_27
REMARK   13  A    between atoms: O_27  and  C_28
REMARK   14  A    between atoms: C_28  and  C_29
REMARK                            x       y       z     vdW  Elec       q    Type
REMARK                         _______ _______ _______ _____ _____    ______ ____
ROOT
ATOM      1  P   UNL     1      36.295 -22.953 -15.344  0.00  0.00    +0.358 P 
ATOM      2  O   UNL     1      37.654 -22.317 -15.317  0.00  0.00    -0.256 OA
ENDROOT
BRANCH   1   3
ATOM      3  O   UNL     1      35.112 -22.000 -14.786  0.00  0.00    -0.322 OA
ATOM      4  H   UNL     1      34.627 -21.615 -15.533  0.00  0.00    +0.220 HD
ENDBRANCH   1   3
BRANCH   1   5
ATOM      5  O   UNL     1      35.758 -23.332 -16.825  0.00  0.00    -0.280 OA
BRANCH   5   6
ATOM      6  C   UNL     1      34.660 -22.617 -17.365  0.00  0.00    +0.244 C 
BRANCH   6   7
ATOM      7  C   UNL     1      35.139 -21.772 -18.524  0.00  0.00    +0.015 C 
ATOM      8  C   UNL     1      34.208 -21.178 -19.359  0.00  0.00    -0.008 C 
ATOM      9  C   UNL     1      36.499 -21.609 -18.726  0.00  0.00    -0.001 C 
ATOM     10  C   UNL     1      34.649 -20.399 -20.428  0.00  0.00    -0.044 C 
ATOM     11  C   UNL     1      36.941 -20.829 -19.795  0.00  0.00    -0.001 C 
ATOM     12  C   UNL     1      36.017 -20.224 -20.646  0.00  0.00    -0.006 C 
BRANCH  10  13
ATOM     13  C   UNL     1      33.661 -19.752 -21.338  0.00  0.00    -0.059 C 
BRANCH  13  14
ATOM     14  N   UNL     1      34.322 -19.075 -22.457  0.00  0.00    +0.383 N 
ATOM     15  H   UNL     1      34.722 -19.770 -23.087  0.00  0.00    -0.089 HD
ATOM     16  H   UNL     1      35.064 -18.473 -22.099  0.00  0.00    -0.089 HD
ATOM     17  H   UNL     1      33.640 -18.510 -22.962  0.00  0.00    -0.089 HD
ENDBRANCH  13  14
ENDBRANCH  10  13
ENDBRANCH   6   7
BRANCH   6  19
ATOM     18  O   UNL     1      33.629 -24.377 -18.703  0.00  0.00    -0.247 OA
ATOM     19  C   UNL     1      33.567 -23.590 -17.766  0.00  0.00    +0.346 C 
BRANCH  19  20
ATOM     20  O   UNL     1      32.466 -23.477 -16.978  0.00  0.00    -0.478 OA
ATOM     21  H   UNL     1      31.753 -22.932 -17.245  0.00  0.00    +0.295 HD
ENDBRANCH  19  20
ENDBRANCH   6  19
ENDBRANCH   5   6
ENDBRANCH   1   5
BRANCH   1  22
ATOM     22  C   UNL     1      36.138 -24.473 -14.400  0.00  0.00    +0.179 C 
BRANCH  22  24
ATOM     23  O   UNL     1      33.746 -23.911 -12.843  0.00  0.00    -0.226 OA
ATOM     24  N   UNL     1      34.778 -24.938 -14.648  0.00  0.00    -0.262 N 
ATOM     25  C   UNL     1      33.703 -24.616 -13.847  0.00  0.00    +0.402 C 
ATOM     26  H   UNL     1      34.618 -25.513 -15.431  0.00  0.00    +0.153 HD
BRANCH  25  27
ATOM     27  O   UNL     1      32.571 -25.199 -14.338  0.00  0.00    -0.430 OA
BRANCH  27  28
ATOM     28  C   UNL     1      31.357 -24.891 -13.643  0.00  0.00    +0.237 C 
BRANCH  28  29
ATOM     29  C   UNL     1      30.343 -24.269 -14.542  0.00  0.00    +0.021 C 
ATOM     30  C   UNL     1      30.127 -22.892 -14.501  0.00  0.00    -0.001 C 
ATOM     31  C   UNL     1      29.611 -25.064 -15.423  0.00  0.00    -0.001 C 
ATOM     32  C   UNL     1      29.178 -22.309 -15.343  0.00  0.00    -0.000 C 
ATOM     33  C   UNL     1      28.663 -24.482 -16.264  0.00  0.00    -0.000 C 
ATOM     34  C   UNL     1      28.446 -23.105 -16.223  0.00  0.00    -0.000 C 
ENDBRANCH  28  29
ENDBRANCH  27  28
ENDBRANCH  25  27
ENDBRANCH  22  24
BRANCH  22  35
ATOM     35  C   UNL     1      37.163 -25.597 -14.653  0.00  0.00    +0.030 C 
ATOM     36  C   UNL     1      37.854 -26.030 -13.358  0.00  0.00    +0.002 C 
ATOM     37  C   UNL     1      36.569 -26.817 -15.358  0.00  0.00    +0.002 C 
ENDBRANCH  22  35
ENDBRANCH   1  22
TORSDOF 14
ENDMDL
MODEL 4
REMARK VINA RESULT:      -9.5      7.571     12.179
REMARK  Name = 23653502
REMARK  14 active torsions:
REMARK  status: ('A' for Active; 'I' for Inactive)
REMARK    1  A    between atoms: P_1  and  O_3
REMARK    2  A    between atoms: P_1  and  O_5
REMARK    3  A    between atoms: P_1  and  C_22
REMARK    4  A    between atoms: O_5  and  C_6
REMARK    5  A    between atoms: C_6  and  C_7
REMARK    6  A    between atoms: C_6  and  C_19
REMARK    7  A    between atoms: C_10  and  C_13
REMARK    8  A    between atoms: C_13  and  N_14
REMARK    9  A    between atoms: C_19  and  O_20
REMARK   10  A    between atoms: C_22  and  N_24
REMARK   11  A    between atoms: C_22  and  C_35
REMARK   12  A    between atoms: C_25  and  O_27
REMARK   13  A    between atoms: O_27  and  C_28
REMARK   14  A    between atoms: C_28  and  C_29
REMARK                            x       y       z     vdW  Elec       q    Type
REMARK                         _______ _______ _______ _____ _____    ______ ____
ROOT
ATOM      1  P   UNL     1      32.405 -23.785 -13.569  0.00  0.00    +0.358 P 
ATOM      2  O   UNL     1      32.188 -25.194 -13.105  0.00  0.00    -0.256 OA
ENDROOT
BRANCH   1   3
ATOM      3  O   UNL     1      32.231 -22.674 -12.404  0.00  0.00    -0.322 OA
ATOM      4  H   UNL     1      31.412 -22.176 -12.552  0.00  0.00    +0.220 HD
ENDBRANCH   1   3
BRANCH   1   5
ATOM      5  O   UNL     1      33.900 -23.476 -14.113  0.00  0.00    -0.280 OA
BRANCH   5   6
ATOM      6  C   UNL     1      34.971 -24.304 -13.695  0.00  0.00    +0.244 C 
BRANCH   6   7
ATOM      7  C   UNL     1      36.204 -23.968 -14.503  0.00  0.00    +0.015 C 
ATOM      8  C   UNL     1      37.342 -24.744 -14.358  0.00  0.00    -0.008 C 
ATOM      9  C   UNL     1      36.170 -22.891 -15.373  0.00  0.00    -0.001 C 
ATOM     10  C   UNL     1      38.478 -24.434 -15.103  0.00  0.00    -0.044 C 
ATOM     11  C   UNL     1      37.307 -22.581 -16.119  0.00  0.00    -0.001 C 
ATOM     12  C   UNL     1      38.461 -23.352 -15.985  0.00  0.00    -0.006 C 
BRANCH  10  13
ATOM     13  C   UNL     1      39.713 -25.258 -14.960  0.00  0.00    -0.059 C 
BRANCH  13  14
ATOM     14  N   UNL     1      39.686 -26.062 -13.736  0.00  0.00    +0.383 N 
ATOM     15  H   UNL     1      39.257 -26.967 -13.932  0.00  0.00    -0.089 HD
ATOM     16  H   UNL     1      39.143 -25.576 -13.022  0.00  0.00    -0.089 HD
ATOM     17  H   UNL     1      40.638 -26.202 -13.400  0.00  0.00    -0.089 HD
ENDBRANCH  13  14
ENDBRANCH  10  13
ENDBRANCH   6   7
BRANCH   6  19
ATOM     18  O   UNL     1      34.906 -24.970 -11.349  0.00  0.00    -0.247 OA
ATOM     19  C   UNL     1      35.190 -24.138 -12.202  0.00  0.00    +0.346 C 
BRANCH  19  20
ATOM     20  O   UNL     1      35.721 -22.926 -11.894  0.00  0.00    -0.478 OA
ATOM     21  H   UNL     1      35.616 -22.574 -11.032  0.00  0.00    +0.295 HD
ENDBRANCH  19  20
ENDBRANCH   6  19
ENDBRANCH   5   6
ENDBRANCH   1   5
BRANCH   1  22
ATOM     22  C   UNL     1      31.318 -23.233 -14.888  0.00  0.00    +0.179 C 
BRANCH  22  24
ATOM     23  O   UNL     1      31.039 -21.862 -17.438  0.00  0.00    -0.226 OA
ATOM     24  N   UNL     1      32.061 -23.474 -16.121  0.00  0.00    -0.262 N 
ATOM     25  C   UNL     1      31.855 -22.767 -17.286  0.00  0.00    +0.402 C 
ATOM     26  H   UNL     1      32.747 -24.180 -16.120  0.00  0.00    +0.153 HD
BRANCH  25  27
ATOM     27  O   UNL     1      32.699 -23.223 -18.257  0.00  0.00    -0.430 OA
BRANCH  27  28
ATOM     28  C   UNL     1      34.066 -22.808 -18.142  0.00  0.00    +0.237 C 
BRANCH  28  29
ATOM     29  C   UNL     1      34.410 -21.747 -19.132  0.00  0.00    +0.021 C 
ATOM     30  C   UNL     1      33.396 -21.061 -19.799  0.00  0.00    -0.001 C 
ATOM     31  C   UNL     1      35.746 -21.441 -19.389  0.00  0.00    -0.001 C 
ATOM     32  C   UNL     1      33.718 -20.068 -20.726  0.00  0.00    -0.000 C 
ATOM     33  C   UNL     1      36.068 -20.449 -20.315  0.00  0.00    -0.000 C 
ATOM     34  C   UNL     1      35.054 -19.763 -20.983  0.00  0.00    -0.000 C 
ENDBRANCH  28  29
ENDBRANCH  27  28
ENDBRANCH  25  27
ENDBRANCH  22  24
BRANCH  22  35
ATOM     35  C   UNL     1      29.902 -23.840 -14.967  0.00  0.00    +0.030 C 
ATOM     36  C   UNL     1      28.867 -22.796 -15.394  0.00  0.00    +0.002 C 
ATOM     37  C   UNL     1      29.812 -25.064 -15.878  0.00  0.00    +0.002 C 
ENDBRANCH  22  35
ENDBRANCH   1  22
TORSDOF 14
ENDMDL
MODEL 5
REMARK VINA RESULT:      -9.4      1.943      3.129
REMARK  Name = 23653502
REMARK  14 active torsions:
REMARK  status: ('A' for Active; 'I' for Inactive)
REMARK    1  A    between atoms: P_1  and  O_3
REMARK    2  A    between atoms: P_1  and  O_5
REMARK    3  A    between atoms: P_1  and  C_22
REMARK    4  A    between atoms: O_5  and  C_6
REMARK    5  A    between atoms: C_6  and  C_7
REMARK    6  A    between atoms: C_6  and  C_19
REMARK    7  A    between atoms: C_10  and  C_13
REMARK    8  A    between atoms: C_13  and  N_14
REMARK    9  A    between atoms: C_19  and  O_20
REMARK   10  A    between atoms: C_22  and  N_24
REMARK   11  A    between atoms: C_22  and  C_35
REMARK   12  A    between atoms: C_25  and  O_27
REMARK   13  A    between atoms: O_27  and  C_28
REMARK   14  A    between atoms: C_28  and  C_29
REMARK                            x       y       z     vdW  Elec       q    Type
REMARK                         _______ _______ _______ _____ _____    ______ ____
ROOT
ATOM      1  P   UNL     1      34.049 -16.382 -21.541  0.00  0.00    +0.358 P 
ATOM      2  O   UNL     1      34.970 -15.667 -20.596  0.00  0.00    -0.256 OA
ENDROOT
BRANCH   1   3
ATOM      3  O   UNL     1      32.851 -17.188 -20.808  0.00  0.00    -0.322 OA
ATOM      4  H   UNL     1      33.083 -18.128 -20.749  0.00  0.00    +0.220 HD
ENDBRANCH   1   3
BRANCH   1   5
ATOM      5  O   UNL     1      33.236 -15.411 -22.553  0.00  0.00    -0.280 OA
BRANCH   5   6
ATOM      6  C   UNL     1      33.464 -14.014 -22.502  0.00  0.00    +0.244 C 
BRANCH   6   7
ATOM      7  C   UNL     1      33.508 -13.465 -23.911  0.00  0.00    +0.015 C 
ATOM      8  C   UNL     1      34.145 -12.259 -24.148  0.00  0.00    -0.008 C 
ATOM      9  C   UNL     1      32.912 -14.183 -24.935  0.00  0.00    -0.001 C 
ATOM     10  C   UNL     1      34.185 -11.753 -25.446  0.00  0.00    -0.044 C 
ATOM     11  C   UNL     1      32.953 -13.676 -26.234  0.00  0.00    -0.001 C 
ATOM     12  C   UNL     1      33.590 -12.463 -26.491  0.00  0.00    -0.006 C 
BRANCH  10  13
ATOM     13  C   UNL     1      34.865 -10.455 -25.721  0.00  0.00    -0.059 C 
BRANCH  13  14
ATOM     14  N   UNL     1      35.315  -9.809 -24.485  0.00  0.00    +0.383 N 
ATOM     15  H   UNL     1      35.458  -8.814 -24.654  0.00  0.00    -0.089 HD
ATOM     16  H   UNL     1      36.191 -10.232 -24.181  0.00  0.00    -0.089 HD
ATOM     17  H   UNL     1      34.608  -9.933 -23.761  0.00  0.00    -0.089 HD
ENDBRANCH  13  14
ENDBRANCH  10  13
ENDBRANCH   6   7
BRANCH   6  19
ATOM     18  O   UNL     1      32.332 -13.395 -20.431  0.00  0.00    -0.247 OA
ATOM     19  C   UNL     1      32.392 -13.354 -21.654  0.00  0.00    +0.346 C 
BRANCH  19  20
ATOM     20  O   UNL     1      31.458 -12.720 -22.410  0.00  0.00    -0.478 OA
ATOM     21  H   UNL     1      31.294 -11.806 -22.282  0.00  0.00    +0.295 HD
ENDBRANCH  19  20
ENDBRANCH   6  19
ENDBRANCH   5   6
ENDBRANCH   1   5
BRANCH   1  22
ATOM     22  C   UNL     1      34.831 -17.598 -22.605  0.00  0.00    +0.179 C 
BRANCH  22  24
ATOM     23  O   UNL     1      36.607 -18.828 -20.657  0.00  0.00    -0.226 OA
ATOM     24  N   UNL     1      34.661 -18.873 -21.918  0.00  0.00    -0.262 N 
ATOM     25  C   UNL     1      35.564 -19.375 -21.005  0.00  0.00    +0.402 C 
ATOM     26  H   UNL     1      33.856 -19.406 -22.116  0.00  0.00    +0.153 HD
BRANCH  25  27
ATOM     27  O   UNL     1      35.126 -20.581 -20.538  0.00  0.00    -0.430 OA
BRANCH  27  28
ATOM     28  C   UNL     1      36.080 -21.344 -19.790  0.00  0.00    +0.237 C 
BRANCH  28  29
ATOM     29  C   UNL     1      35.461 -21.995 -18.599  0.00  0.00    +0.021 C 
ATOM     30  C   UNL     1      34.153 -22.473 -18.668  0.00  0.00    -0.001 C 
ATOM     31  C   UNL     1      36.190 -22.125 -17.418  0.00  0.00    -0.001 C 
ATOM     32  C   UNL     1      33.573 -23.082 -17.554  0.00  0.00    -0.000 C 
ATOM     33  C   UNL     1      35.610 -22.733 -16.305  0.00  0.00    -0.000 C 
ATOM     34  C   UNL     1      34.302 -23.211 -16.373  0.00  0.00    -0.000 C 
ENDBRANCH  28  29
ENDBRANCH  27  28
ENDBRANCH  25  27
ENDBRANCH  22  24
BRANCH  22  35
ATOM     35  C   UNL     1      34.362 -17.692 -24.072  0.00  0.00    +0.030 C 
ATOM     36  C   UNL     1      35.137 -16.729 -24.973  0.00  0.00    +0.002 C 
ATOM     37  C   UNL     1      34.430 -19.108 -24.644  0.00  0.00    +0.002 C 
ENDBRANCH  22  35
ENDBRANCH   1  22
TORSDOF 14
ENDMDL
MODEL 6
REMARK VINA RESULT:      -9.4      2.820      9.628
REMARK  Name = 23653502
REMARK  14 active torsions:
REMARK  status: ('A' for Active; 'I' for Inactive)
REMARK    1  A    between atoms: P_1  and  O_3
REMARK    2  A    between atoms: P_1  and  O_5
REMARK    3  A    between atoms: P_1  and  C_22
REMARK    4  A    between atoms: O_5  and  C_6
REMARK    5  A    between atoms: C_6  and  C_7
REMARK    6  A    between atoms: C_6  and  C_19
REMARK    7  A    between atoms: C_10  and  C_13
REMARK    8  A    between atoms: C_13  and  N_14
REMARK    9  A    between atoms: C_19  and  O_20
REMARK   10  A    between atoms: C_22  and  N_24
REMARK   11  A    between atoms: C_22  and  C_35
REMARK   12  A    between atoms: C_25  and  O_27
REMARK   13  A    between atoms: O_27  and  C_28
REMARK   14  A    between atoms: C_28  and  C_29
REMARK                            x       y       z     vdW  Elec       q    Type
REMARK                         _______ _______ _______ _____ _____    ______ ____
ROOT
ATOM      1  P   UNL     1      33.471 -14.580 -22.379  0.00  0.00    +0.358 P 
ATOM      2  O   UNL     1      32.757 -14.578 -21.059  0.00  0.00    -0.256 OA
ENDROOT
BRANCH   1   3
ATOM      3  O   UNL     1      35.055 -14.265 -22.271  0.00  0.00    -0.322 OA
ATOM      4  H   UNL     1      35.267 -13.487 -22.809  0.00  0.00    +0.220 HD
ENDBRANCH   1   3
BRANCH   1   5
ATOM      5  O   UNL     1      33.459 -16.006 -23.149  0.00  0.00    -0.280 OA
BRANCH   5   6
ATOM      6  C   UNL     1      34.689 -16.652 -23.425  0.00  0.00    +0.244 C 
BRANCH   6   7
ATOM      7  C   UNL     1      34.900 -17.769 -22.428  0.00  0.00    +0.015 C 
ATOM      8  C   UNL     1      33.800 -18.394 -21.867  0.00  0.00    -0.008 C 
ATOM      9  C   UNL     1      36.192 -18.144 -22.097  0.00  0.00    -0.001 C 
ATOM     10  C   UNL     1      33.995 -19.423 -20.948  0.00  0.00    -0.044 C 
ATOM     11  C   UNL     1      36.387 -19.174 -21.177  0.00  0.00    -0.001 C 
ATOM     12  C   UNL     1      35.290 -19.815 -20.603  0.00  0.00    -0.006 C 
BRANCH  10  13
ATOM     13  C   UNL     1      32.822 -20.108 -20.333  0.00  0.00    -0.059 C 
BRANCH  13  14
ATOM     14  N   UNL     1      33.196 -21.396 -19.745  0.00  0.00    +0.383 N 
ATOM     15  H   UNL     1      33.872 -21.863 -20.350  0.00  0.00    -0.089 HD
ATOM     16  H   UNL     1      32.365 -21.980 -19.649  0.00  0.00    -0.089 HD
ATOM     17  H   UNL     1      33.611 -21.243 -18.826  0.00  0.00    -0.089 HD
ENDBRANCH  13  14
ENDBRANCH  10  13
ENDBRANCH   6   7
BRANCH   6  19
ATOM     18  O   UNL     1      35.028 -16.481 -25.835  0.00  0.00    -0.247 OA
ATOM     19  C   UNL     1      34.695 -17.145 -24.861  0.00  0.00    +0.346 C 
BRANCH  19  20
ATOM     20  O   UNL     1      34.250 -18.424 -24.965  0.00  0.00    -0.478 OA
ATOM     21  H   UNL     1      34.617 -19.093 -24.422  0.00  0.00    +0.295 HD
ENDBRANCH  19  20
ENDBRANCH   6  19
ENDBRANCH   5   6
ENDBRANCH   1   5
BRANCH   1  22
ATOM     22  C   UNL     1      32.855 -13.405 -23.588  0.00  0.00    +0.179 C 
BRANCH  22  24
ATOM     23  O   UNL     1      30.815 -11.899 -22.161  0.00  0.00    -0.226 OA
ATOM     24  N   UNL     1      32.986 -12.098 -22.952  0.00  0.00    -0.262 N 
ATOM     25  C   UNL     1      31.954 -11.462 -22.296  0.00  0.00    +0.402 C 
ATOM     26  H   UNL     1      33.860 -11.646 -22.994  0.00  0.00    +0.153 HD
BRANCH  25  27
ATOM     27  O   UNL     1      32.388 -10.261 -21.810  0.00  0.00    -0.430 OA
BRANCH  27  28
ATOM     28  C   UNL     1      31.695  -9.105 -22.296  0.00  0.00    +0.237 C 
BRANCH  28  29
ATOM     29  C   UNL     1      32.582  -8.228 -23.113  0.00  0.00    +0.021 C 
ATOM     30  C   UNL     1      33.940  -8.527 -23.232  0.00  0.00    -0.001 C 
ATOM     31  C   UNL     1      32.055  -7.111 -23.759  0.00  0.00    -0.001 C 
ATOM     32  C   UNL     1      34.770  -7.706 -23.997  0.00  0.00    -0.000 C 
ATOM     33  C   UNL     1      32.885  -6.291 -24.523  0.00  0.00    -0.000 C 
ATOM     34  C   UNL     1      34.242  -6.589 -24.642  0.00  0.00    -0.000 C 
ENDBRANCH  28  29
ENDBRANCH  27  28
ENDBRANCH  25  27
ENDBRANCH  22  24
BRANCH  22  35
ATOM     35  C   UNL     1      33.491 -13.403 -24.993  0.00  0.00    +0.030 C 
ATOM     36  C   UNL     1      32.615 -14.142 -26.008  0.00  0.00    +0.002 C 
ATOM     37  C   UNL     1      33.820 -12.004 -25.513  0.00  0.00    +0.002 C 
ENDBRANCH  22  35
ENDBRANCH   1  22
TORSDOF 14
ENDMDL
MODEL 7
REMARK VINA RESULT:      -9.2      1.907      2.692
REMARK  Name = 23653502
REMARK  14 active torsions:
REMARK  status: ('A' for Active; 'I' for Inactive)
REMARK    1  A    between atoms: P_1  and  O_3
REMARK    2  A    between atoms: P_1  and  O_5
REMARK    3  A    between atoms: P_1  and  C_22
REMARK    4  A    between atoms: O_5  and  C_6
REMARK    5  A    between atoms: C_6  and  C_7
REMARK    6  A    between atoms: C_6  and  C_19
REMARK    7  A    between atoms: C_10  and  C_13
REMARK    8  A    between atoms: C_13  and  N_14
REMARK    9  A    between atoms: C_19  and  O_20
REMARK   10  A    between atoms: C_22  and  N_24
REMARK   11  A    between atoms: C_22  and  C_35
REMARK   12  A    between atoms: C_25  and  O_27
REMARK   13  A    between atoms: O_27  and  C_28
REMARK   14  A    between atoms: C_28  and  C_29
REMARK                            x       y       z     vdW  Elec       q    Type
REMARK                         _______ _______ _______ _____ _____    ______ ____
ROOT
ATOM      1  P   UNL     1      34.121 -15.194 -23.947  0.00  0.00    +0.358 P 
ATOM      2  O   UNL     1      33.363 -15.414 -25.223  0.00  0.00    -0.256 OA
ENDROOT
BRANCH   1   3
ATOM      3  O   UNL     1      35.705 -15.506 -24.061  0.00  0.00    -0.322 OA
ATOM      4  H   UNL     1      36.068 -15.662 -23.175  0.00  0.00    +0.220 HD
ENDBRANCH   1   3
BRANCH   1   5
ATOM      5  O   UNL     1      34.112 -13.663 -23.414  0.00  0.00    -0.280 OA
BRANCH   5   6
ATOM      6  C   UNL     1      33.191 -12.743 -23.972  0.00  0.00    +0.244 C 
BRANCH   6   7
ATOM      7  C   UNL     1      32.565 -11.930 -22.860  0.00  0.00    +0.015 C 
ATOM      8  C   UNL     1      32.570 -10.548 -22.947  0.00  0.00    -0.008 C 
ATOM      9  C   UNL     1      32.000 -12.585 -21.779  0.00  0.00    -0.001 C 
ATOM     10  C   UNL     1      31.994  -9.799 -21.922  0.00  0.00    -0.044 C 
ATOM     11  C   UNL     1      31.423 -11.835 -20.754  0.00  0.00    -0.001 C 
ATOM     12  C   UNL     1      31.419 -10.442 -20.825  0.00  0.00    -0.006 C 
BRANCH  10  13
ATOM     13  C   UNL     1      31.990  -8.309 -21.997  0.00  0.00    -0.059 C 
BRANCH  13  14
ATOM     14  N   UNL     1      32.506  -7.706 -20.766  0.00  0.00    +0.383 N 
ATOM     15  H   UNL     1      32.132  -8.206 -19.960  0.00  0.00    -0.089 HD
ATOM     16  H   UNL     1      32.221  -6.728 -20.722  0.00  0.00    -0.089 HD
ATOM     17  H   UNL     1      33.524  -7.763 -20.760  0.00  0.00    -0.089 HD
ENDBRANCH  13  14
ENDBRANCH  10  13
ENDBRANCH   6   7
BRANCH   6  19
ATOM     18  O   UNL     1      33.627 -11.842 -26.196  0.00  0.00    -0.247 OA
ATOM     19  C   UNL     1      33.894 -11.878 -25.001  0.00  0.00    +0.346 C 
BRANCH  19  20
ATOM     20  O   UNL     1      34.901 -11.148 -24.455  0.00  0.00    -0.478 OA
ATOM     21  H   UNL     1      34.778 -10.235 -24.283  0.00  0.00    +0.295 HD
ENDBRANCH  19  20
ENDBRANCH   6  19
ENDBRANCH   5   6
ENDBRANCH   1   5
BRANCH   1  22
ATOM     22  C   UNL     1      33.565 -16.167 -22.544  0.00  0.00    +0.179 C 
BRANCH  22  24
ATOM     23  O   UNL     1      34.063 -18.604 -24.053  0.00  0.00    -0.226 OA
ATOM     24  N   UNL     1      34.614 -17.157 -22.327  0.00  0.00    -0.262 N 
ATOM     25  C   UNL     1      34.769 -18.288 -23.101  0.00  0.00    +0.402 C 
ATOM     26  H   UNL     1      35.247 -17.010 -21.587  0.00  0.00    +0.153 HD
BRANCH  25  27
ATOM     27  O   UNL     1      35.835 -19.012 -22.650  0.00  0.00    -0.430 OA
BRANCH  27  28
ATOM     28  C   UNL     1      36.079 -18.953 -21.239  0.00  0.00    +0.237 C 
BRANCH  28  29
ATOM     29  C   UNL     1      35.369 -20.040 -20.506  0.00  0.00    +0.021 C 
ATOM     30  C   UNL     1      33.975 -20.086 -20.508  0.00  0.00    -0.001 C 
ATOM     31  C   UNL     1      36.098 -21.010 -19.819  0.00  0.00    -0.001 C 
ATOM     32  C   UNL     1      33.309 -21.104 -19.821  0.00  0.00    -0.000 C 
ATOM     33  C   UNL     1      35.433 -22.026 -19.133  0.00  0.00    -0.000 C 
ATOM     34  C   UNL     1      34.039 -22.073 -19.134  0.00  0.00    -0.000 C 
ENDBRANCH  28  29
ENDBRANCH  27  28
ENDBRANCH  25  27
ENDBRANCH  22  24
BRANCH  22  35
ATOM     35  C   UNL     1      33.221 -15.428 -21.235  0.00  0.00    +0.030 C 
ATOM     36  C   UNL     1      32.052 -16.093 -20.505  0.00  0.00    +0.002 C 
ATOM     37  C   UNL     1      34.410 -15.282 -20.286  0.00  0.00    +0.002 C 
ENDBRANCH  22  35
ENDBRANCH   1  22
TORSDOF 14
ENDMDL
MODEL 8
REMARK VINA RESULT:      -9.2      2.337      9.552
REMARK  Name = 23653502
REMARK  14 active torsions:
REMARK  status: ('A' for Active; 'I' for Inactive)
REMARK    1  A    between atoms: P_1  and  O_3
REMARK    2  A    between atoms: P_1  and  O_5
REMARK    3  A    between atoms: P_1  and  C_22
REMARK    4  A    between atoms: O_5  and  C_6
REMARK    5  A    between atoms: C_6  and  C_7
REMARK    6  A    between atoms: C_6  and  C_19
REMARK    7  A    between atoms: C_10  and  C_13
REMARK    8  A    between atoms: C_13  and  N_14
REMARK    9  A    between atoms: C_19  and  O_20
REMARK   10  A    between atoms: C_22  and  N_24
REMARK   11  A    between atoms: C_22  and  C_35
REMARK   12  A    between atoms: C_25  and  O_27
REMARK   13  A    between atoms: O_27  and  C_28
REMARK   14  A    between atoms: C_28  and  C_29
REMARK                            x       y       z     vdW  Elec       q    Type
REMARK                         _______ _______ _______ _____ _____    ______ ____
ROOT
ATOM      1  P   UNL     1      34.619 -15.588 -22.760  0.00  0.00    +0.358 P 
ATOM      2  O   UNL     1      34.853 -14.636 -21.624  0.00  0.00    -0.256 OA
ENDROOT
BRANCH   1   3
ATOM      3  O   UNL     1      35.939 -15.888 -23.648  0.00  0.00    -0.322 OA
ATOM      4  H   UNL     1      36.443 -16.612 -23.245  0.00  0.00    +0.220 HD
ENDBRANCH   1   3
BRANCH   1   5
ATOM      5  O   UNL     1      34.166 -17.077 -22.309  0.00  0.00    -0.280 OA
BRANCH   5   6
ATOM      6  C   UNL     1      35.147 -17.985 -21.840  0.00  0.00    +0.244 C 
BRANCH   6   7
ATOM      7  C   UNL     1      34.470 -19.095 -21.068  0.00  0.00    +0.015 C 
ATOM      8  C   UNL     1      35.245 -20.057 -20.444  0.00  0.00    -0.008 C 
ATOM      9  C   UNL     1      33.087 -19.124 -20.999  0.00  0.00    -0.001 C 
ATOM     10  C   UNL     1      34.621 -21.080 -19.732  0.00  0.00    -0.044 C 
ATOM     11  C   UNL     1      32.462 -20.147 -20.286  0.00  0.00    -0.001 C 
ATOM     12  C   UNL     1      33.228 -21.125 -19.652  0.00  0.00    -0.006 C 
BRANCH  10  13
ATOM     13  C   UNL     1      35.439 -22.126 -19.055  0.00  0.00    -0.059 C 
BRANCH  13  14
ATOM     14  N   UNL     1      36.599 -21.547 -18.374  0.00  0.00    +0.383 N 
ATOM     15  H   UNL     1      36.323 -20.685 -17.904  0.00  0.00    -0.089 HD
ATOM     16  H   UNL     1      37.328 -21.343 -19.058  0.00  0.00    -0.089 HD
ATOM     17  H   UNL     1      36.956 -22.210 -17.686  0.00  0.00    -0.089 HD
ENDBRANCH  13  14
ENDBRANCH  10  13
ENDBRANCH   6   7
BRANCH   6  19
ATOM     18  O   UNL     1      35.497 -18.984 -24.039  0.00  0.00    -0.247 OA
ATOM     19  C   UNL     1      35.962 -18.504 -23.011  0.00  0.00    +0.346 C 
BRANCH  19  20
ATOM     20  O   UNL     1      37.299 -18.410 -22.788  0.00  0.00    -0.478 OA
ATOM     21  H   UNL     1      37.792 -17.718 -23.183  0.00  0.00    +0.295 HD
ENDBRANCH  19  20
ENDBRANCH   6  19
ENDBRANCH   5   6
ENDBRANCH   1   5
BRANCH   1  22
ATOM     22  C   UNL     1      33.377 -15.075 -23.951  0.00  0.00    +0.179 C 
BRANCH  22  24
ATOM     23  O   UNL     1      31.739 -13.727 -21.960  0.00  0.00    -0.226 OA
ATOM     24  N   UNL     1      33.218 -13.640 -23.743  0.00  0.00    -0.262 N 
ATOM     25  C   UNL     1      32.413 -13.094 -22.767  0.00  0.00    +0.402 C 
ATOM     26  H   UNL     1      33.714 -13.026 -24.333  0.00  0.00    +0.153 HD
BRANCH  25  27
ATOM     27  O   UNL     1      32.475 -11.731 -22.826  0.00  0.00    -0.430 OA
BRANCH  27  28
ATOM     28  C   UNL     1      33.444 -11.189 -23.732  0.00  0.00    +0.237 C 
BRANCH  28  29
ATOM     29  C   UNL     1      33.445  -9.698 -23.719  0.00  0.00    +0.021 C 
ATOM     30  C   UNL     1      32.267  -9.003 -23.443  0.00  0.00    -0.001 C 
ATOM     31  C   UNL     1      34.622  -8.999 -23.981  0.00  0.00    -0.001 C 
ATOM     32  C   UNL     1      32.268  -7.607 -23.431  0.00  0.00    -0.000 C 
ATOM     33  C   UNL     1      34.623  -7.604 -23.969  0.00  0.00    -0.000 C 
ATOM     34  C   UNL     1      33.445  -6.909 -23.695  0.00  0.00    -0.000 C 
ENDBRANCH  28  29
ENDBRANCH  27  28
ENDBRANCH  25  27
ENDBRANCH  22  24
BRANCH  22  35
ATOM     35  C   UNL     1      33.618 -15.396 -25.440  0.00  0.00    +0.030 C 
ATOM     36  C   UNL     1      33.482 -16.894 -25.721  0.00  0.00    +0.002 C 
ATOM     37  C   UNL     1      32.717 -14.606 -26.388  0.00  0.00    +0.002 C 
ENDBRANCH  22  35
ENDBRANCH   1  22
TORSDOF 14
ENDMDL
MODEL 9
REMARK VINA RESULT:      -9.1      3.087      9.795
REMARK  Name = 23653502
REMARK  14 active torsions:
REMARK  status: ('A' for Active; 'I' for Inactive)
REMARK    1  A    between atoms: P_1  and  O_3
REMARK    2  A    between atoms: P_1  and  O_5
REMARK    3  A    between atoms: P_1  and  C_22
REMARK    4  A    between atoms: O_5  and  C_6
REMARK    5  A    between atoms: C_6  and  C_7
REMARK    6  A    between atoms: C_6  and  C_19
REMARK    7  A    between atoms: C_10  and  C_13
REMARK    8  A    between atoms: C_13  and  N_14
REMARK    9  A    between atoms: C_19  and  O_20
REMARK   10  A    between atoms: C_22  and  N_24
REMARK   11  A    between atoms: C_22  and  C_35
REMARK   12  A    between atoms: C_25  and  O_27
REMARK   13  A    between atoms: O_27  and  C_28
REMARK   14  A    between atoms: C_28  and  C_29
REMARK                            x       y       z     vdW  Elec       q    Type
REMARK                         _______ _______ _______ _____ _____    ______ ____
ROOT
ATOM      1  P   UNL     1      33.239 -14.880 -21.002  0.00  0.00    +0.358 P 
ATOM      2  O   UNL     1      32.461 -14.925 -19.720  0.00  0.00    -0.256 OA
ENDROOT
BRANCH   1   3
ATOM      3  O   UNL     1      34.809 -14.536 -20.807  0.00  0.00    -0.322 OA
ATOM      4  H   UNL     1      35.302 -15.355 -20.643  0.00  0.00    +0.220 HD
ENDBRANCH   1   3
BRANCH   1   5
ATOM      5  O   UNL     1      33.296 -16.287 -21.805  0.00  0.00    -0.280 OA
BRANCH   5   6
ATOM      6  C   UNL     1      34.518 -17.001 -21.862  0.00  0.00    +0.244 C 
BRANCH   6   7
ATOM      7  C   UNL     1      34.329 -18.362 -21.231  0.00  0.00    +0.015 C 
ATOM      8  C   UNL     1      35.442 -19.107 -20.881  0.00  0.00    -0.008 C 
ATOM      9  C   UNL     1      33.045 -18.834 -21.015  0.00  0.00    -0.001 C 
ATOM     10  C   UNL     1      35.268 -20.362 -20.300  0.00  0.00    -0.044 C 
ATOM     11  C   UNL     1      32.871 -20.090 -20.433  0.00  0.00    -0.001 C 
ATOM     12  C   UNL     1      33.981 -20.854 -20.075  0.00  0.00    -0.006 C 
BRANCH  10  13
ATOM     13  C   UNL     1      36.455 -21.180 -19.918  0.00  0.00    -0.059 C 
BRANCH  13  14
ATOM     14  N   UNL     1      36.545 -21.354 -18.466  0.00  0.00    +0.383 N 
ATOM     15  H   UNL     1      37.169 -22.132 -18.254  0.00  0.00    -0.089 HD
ATOM     16  H   UNL     1      35.617 -21.550 -18.089  0.00  0.00    -0.089 HD
ATOM     17  H   UNL     1      36.909 -20.500 -18.044  0.00  0.00    -0.089 HD
ENDBRANCH  13  14
ENDBRANCH  10  13
ENDBRANCH   6   7
BRANCH   6  19
ATOM     18  O   UNL     1      34.718 -17.989 -24.083  0.00  0.00    -0.247 OA
ATOM     19  C   UNL     1      34.991 -17.087 -23.301  0.00  0.00    +0.346 C 
BRANCH  19  20
ATOM     20  O   UNL     1      35.798 -16.047 -23.638  0.00  0.00    -0.478 OA
ATOM     21  H   UNL     1      35.489 -15.385 -24.226  0.00  0.00    +0.295 HD
ENDBRANCH  19  20
ENDBRANCH   6  19
ENDBRANCH   5   6
ENDBRANCH   1   5
BRANCH   1  22
ATOM     22  C   UNL     1      32.658 -13.688 -22.212  0.00  0.00    +0.179 C 
BRANCH  22  24
ATOM     23  O   UNL     1      30.456 -11.790 -22.314  0.00  0.00    -0.226 OA
ATOM     24  N   UNL     1      32.521 -12.435 -21.478  0.00  0.00    -0.262 N 
ATOM     25  C   UNL     1      31.432 -11.597 -21.595  0.00  0.00    +0.402 C 
ATOM     26  H   UNL     1      33.245 -12.172 -20.865  0.00  0.00    +0.153 HD
BRANCH  25  27
ATOM     27  O   UNL     1      31.597 -10.510 -20.785  0.00  0.00    -0.430 OA
BRANCH  27  28
ATOM     28  C   UNL     1      32.606  -9.578 -21.190  0.00  0.00    +0.237 C 
BRANCH  28  29
ATOM     29  C   UNL     1      32.017  -8.332 -21.760  0.00  0.00    +0.021 C 
ATOM     30  C   UNL     1      31.497  -8.337 -23.054  0.00  0.00    -0.001 C 
ATOM     31  C   UNL     1      31.986  -7.164 -20.999  0.00  0.00    -0.001 C 
ATOM     32  C   UNL     1      30.945  -7.171 -23.588  0.00  0.00    -0.000 C 
ATOM     33  C   UNL     1      31.434  -5.999 -21.532  0.00  0.00    -0.000 C 
ATOM     34  C   UNL     1      30.915  -6.003 -22.827  0.00  0.00    -0.000 C 
ENDBRANCH  28  29
ENDBRANCH  27  28
ENDBRANCH  25  27
ENDBRANCH  22  24
BRANCH  22  35
ATOM     35  C   UNL     1      33.489 -13.489 -23.497  0.00  0.00    +0.030 C 
ATOM     36  C   UNL     1      32.912 -14.286 -24.668  0.00  0.00    +0.002 C 
ATOM     37  C   UNL     1      33.654 -12.023 -23.896  0.00  0.00    +0.002 C 
ENDBRANCH  22  35
ENDBRANCH   1  22
TORSDOF 14
ENDMDL
