MODEL 1
REMARK VINA RESULT:     -10.9      0.000      0.000
REMARK  Name = 10090485
REMARK  3 active torsions:
REMARK  status: ('A' for Active; 'I' for Inactive)
REMARK    1  A    between atoms: C_7  and  C_10
REMARK    2  A    between atoms: C_8  and  C_25
REMARK    3  A    between atoms: C_16  and  C_21
REMARK                            x       y       z     vdW  Elec       q    Type
REMARK                         _______ _______ _______ _____ _____    ______ ____
ROOT
ATOM      1  N   UNL     1      33.498 -12.608 -26.246  0.00  0.00    -0.255 N 
ATOM      2  N   UNL     1      33.771 -11.320 -26.069  0.00  0.00    -0.167 NA
ATOM      3  C   UNL     1      33.112 -13.292 -25.142  0.00  0.00    +0.057 A 
ATOM      4  C   UNL     1      32.834 -14.700 -25.470  0.00  0.00    +0.048 C 
ATOM      5  C   UNL     1      33.470 -14.828 -26.883  0.00  0.00    +0.033 C 
ATOM      6  C   UNL     1      33.553 -13.399 -27.456  0.00  0.00    +0.127 C 
ATOM      7  C   UNL     1      33.125 -12.387 -24.119  0.00  0.00    +0.035 A 
ATOM      8  C   UNL     1      33.541 -11.180 -24.752  0.00  0.00    +0.131 A 
ENDROOT
BRANCH   7  10
ATOM      9  N   UNL     1      32.026 -13.179 -20.126  0.00  0.00    -0.248 NA
ATOM     10  C   UNL     1      32.775 -12.693 -22.762  0.00  0.00    +0.002 C 
ATOM     11  C   UNL     1      33.235 -13.841 -22.103  0.00  0.00    -0.004 C 
ATOM     12  C   UNL     1      31.946 -11.797 -22.104  0.00  0.00    +0.020 C 
ATOM     13  C   UNL     1      32.831 -14.048 -20.767  0.00  0.00    +0.060 C 
ATOM     14  C   UNL     1      34.077 -14.768 -22.742  0.00  0.00    +0.058 C 
ATOM     15  C   UNL     1      31.604 -12.084 -20.798  0.00  0.00    +0.098 C 
ATOM     16  C   UNL     1      34.520 -15.900 -22.063  0.00  0.00    +0.031 C 
ATOM     17  C   UNL     1      33.290 -15.187 -20.113  0.00  0.00    +0.071 C 
ATOM     18  C   UNL     1      34.126 -16.110 -20.748  0.00  0.00    -0.019 C 
BRANCH  16  21
ATOM     19  O   UNL     1      35.984 -17.745 -22.090  0.00  0.00    -0.271 OA
ATOM     20  N   UNL     1      35.525 -16.760 -24.109  0.00  0.00    -0.326 N 
ATOM     21  C   UNL     1      35.391 -16.857 -22.727  0.00  0.00    +0.239 C 
ATOM     22  H   UNL     1      36.106 -17.391 -24.593  0.00  0.00    +0.145 HD
ATOM     23  H   UNL     1      35.039 -16.061 -24.603  0.00  0.00    +0.145 HD
ENDBRANCH  16  21
ENDBRANCH   7  10
BRANCH   8  25
ATOM     24  N   UNL     1      32.645  -9.405 -23.478  0.00  0.00    -0.409 NA
ATOM     25  C   UNL     1      33.724  -9.894 -24.123  0.00  0.00    +0.150 C 
ATOM     26  C   UNL     1      34.947  -9.254 -24.203  0.00  0.00    +0.029 C 
ATOM     27  C   UNL     1      32.805  -8.204 -22.879  0.00  0.00    +0.091 C 
ATOM     28  C   UNL     1      35.072  -8.021 -23.573  0.00  0.00    -0.016 C 
ATOM     29  C   UNL     1      33.985  -7.478 -22.896  0.00  0.00    +0.080 C 
ATOM     30  C   UNL     1      31.617  -7.650 -22.163  0.00  0.00    +0.062 C 
ENDBRANCH   8  25
TORSDOF 3
ENDMDL
MODEL 2
REMARK VINA RESULT:      -9.8      2.372      7.260
REMARK  Name = 10090485
REMARK  3 active torsions:
REMARK  status: ('A' for Active; 'I' for Inactive)
REMARK    1  A    between atoms: C_7  and  C_10
REMARK    2  A    between atoms: C_8  and  C_25
REMARK    3  A    between atoms: C_16  and  C_21
REMARK                            x       y       z     vdW  Elec       q    Type
REMARK                         _______ _______ _______ _____ _____    ______ ____
ROOT
ATOM      1  N   UNL     1      32.546 -13.888 -20.547  0.00  0.00    -0.255 N 
ATOM      2  N   UNL     1      33.136 -15.050 -20.290  0.00  0.00    -0.167 NA
ATOM      3  C   UNL     1      32.500 -13.519 -21.849  0.00  0.00    +0.057 A 
ATOM      4  C   UNL     1      31.818 -12.223 -22.003  0.00  0.00    +0.048 C 
ATOM      5  C   UNL     1      31.787 -11.706 -20.536  0.00  0.00    +0.033 C 
ATOM      6  C   UNL     1      31.937 -12.947 -19.632  0.00  0.00    +0.127 C 
ATOM      7  C   UNL     1      33.117 -14.520 -22.543  0.00  0.00    +0.035 A 
ATOM      8  C   UNL     1      33.492 -15.444 -21.525  0.00  0.00    +0.131 A 
ENDROOT
BRANCH   7  10
ATOM      9  N   UNL     1      33.590 -14.688 -26.730  0.00  0.00    -0.248 NA
ATOM     10  C   UNL     1      33.287 -14.535 -23.968  0.00  0.00    +0.002 C 
ATOM     11  C   UNL     1      33.617 -13.387 -24.701  0.00  0.00    -0.004 C 
ATOM     12  C   UNL     1      33.111 -15.749 -24.614  0.00  0.00    +0.020 C 
ATOM     13  C   UNL     1      33.760 -13.510 -26.099  0.00  0.00    +0.060 C 
ATOM     14  C   UNL     1      33.802 -12.142 -24.075  0.00  0.00    +0.058 C 
ATOM     15  C   UNL     1      33.272 -15.771 -25.984  0.00  0.00    +0.098 C 
ATOM     16  C   UNL     1      34.129 -11.018 -24.828  0.00  0.00    +0.031 C 
ATOM     17  C   UNL     1      34.088 -12.370 -26.827  0.00  0.00    +0.071 C 
ATOM     18  C   UNL     1      34.272 -11.132 -26.205  0.00  0.00    -0.019 C 
BRANCH  16  21
ATOM     19  O   UNL     1      35.446  -9.211 -24.087  0.00  0.00    -0.271 OA
ATOM     20  N   UNL     1      33.194  -9.087 -23.675  0.00  0.00    -0.326 N 
ATOM     21  C   UNL     1      34.321  -9.731 -24.178  0.00  0.00    +0.239 C 
ATOM     22  H   UNL     1      33.285  -8.214 -23.227  0.00  0.00    +0.145 HD
ATOM     23  H   UNL     1      32.307  -9.503 -23.765  0.00  0.00    +0.145 HD
ENDBRANCH  16  21
ENDBRANCH   7  10
BRANCH   8  25
ATOM     24  N   UNL     1      33.610 -17.769 -21.125  0.00  0.00    -0.409 NA
ATOM     25  C   UNL     1      34.184 -16.697 -21.708  0.00  0.00    +0.150 C 
ATOM     26  C   UNL     1      35.353 -16.738 -22.446  0.00  0.00    +0.029 C 
ATOM     27  C   UNL     1      34.245 -18.949 -21.295  0.00  0.00    +0.091 C 
ATOM     28  C   UNL     1      35.976 -17.971 -22.598  0.00  0.00    -0.016 C 
ATOM     29  C   UNL     1      35.418 -19.103 -22.014  0.00  0.00    +0.080 C 
ATOM     30  C   UNL     1      33.619 -20.144 -20.653  0.00  0.00    +0.062 C 
ENDBRANCH   8  25
TORSDOF 3
ENDMDL
MODEL 3
REMARK VINA RESULT:      -9.6     11.449     14.159
REMARK  Name = 10090485
REMARK  3 active torsions:
REMARK  status: ('A' for Active; 'I' for Inactive)
REMARK    1  A    between atoms: C_7  and  C_10
REMARK    2  A    between atoms: C_8  and  C_25
REMARK    3  A    between atoms: C_16  and  C_21
REMARK                            x       y       z     vdW  Elec       q    Type
REMARK                         _______ _______ _______ _____ _____    ______ ____
ROOT
ATOM      1  N   UNL     1      33.863 -22.698 -18.117  0.00  0.00    -0.255 N 
ATOM      2  N   UNL     1      32.567 -22.984 -18.164  0.00  0.00    -0.167 NA
ATOM      3  C   UNL     1      34.446 -22.778 -16.896  0.00  0.00    +0.057 A 
ATOM      4  C   UNL     1      35.879 -22.446 -16.977  0.00  0.00    +0.048 C 
ATOM      5  C   UNL     1      35.975 -21.801 -18.389  0.00  0.00    +0.033 C 
ATOM      6  C   UNL     1      34.757 -22.310 -19.186  0.00  0.00    +0.127 C 
ATOM      7  C   UNL     1      33.455 -23.149 -16.033  0.00  0.00    +0.035 A 
ATOM      8  C   UNL     1      32.311 -23.263 -16.874  0.00  0.00    +0.131 A 
ENDROOT
BRANCH   7  10
ATOM      9  N   UNL     1      33.896 -23.681 -11.873  0.00  0.00    -0.248 NA
ATOM     10  C   UNL     1      33.641 -23.354 -14.625  0.00  0.00    +0.002 C 
ATOM     11  C   UNL     1      34.689 -24.125 -14.106  0.00  0.00    -0.004 C 
ATOM     12  C   UNL     1      32.728 -22.753 -13.771  0.00  0.00    +0.020 C 
ATOM     13  C   UNL     1      34.781 -24.264 -12.705  0.00  0.00    +0.060 C 
ATOM     14  C   UNL     1      35.631 -24.747 -14.944  0.00  0.00    +0.058 C 
ATOM     15  C   UNL     1      32.899 -22.946 -12.416  0.00  0.00    +0.098 C 
ATOM     16  C   UNL     1      36.663 -25.507 -14.401  0.00  0.00    +0.031 C 
ATOM     17  C   UNL     1      35.823 -25.029 -12.189  0.00  0.00    +0.071 C 
ATOM     18  C   UNL     1      36.759 -25.649 -13.022  0.00  0.00    -0.019 C 
BRANCH  16  21
ATOM     19  O   UNL     1      37.328 -27.122 -15.980  0.00  0.00    -0.271 OA
ATOM     20  N   UNL     1      38.925 -25.626 -15.298  0.00  0.00    -0.326 N 
ATOM     21  C   UNL     1      37.635 -26.150 -15.270  0.00  0.00    +0.239 C 
ATOM     22  H   UNL     1      39.611 -26.035 -15.874  0.00  0.00    +0.145 HD
ATOM     23  H   UNL     1      39.152 -24.847 -14.740  0.00  0.00    +0.145 HD
ENDBRANCH  16  21
ENDBRANCH   7  10
BRANCH   8  25
ATOM     24  N   UNL     1      29.991 -22.823 -16.908  0.00  0.00    -0.409 NA
ATOM     25  C   UNL     1      30.976 -23.634 -16.470  0.00  0.00    +0.150 C 
ATOM     26  C   UNL     1      30.778 -24.758 -15.690  0.00  0.00    +0.029 C 
ATOM     27  C   UNL     1      28.735 -23.163 -16.542  0.00  0.00    +0.091 C 
ATOM     28  C   UNL     1      29.472 -25.074 -15.335  0.00  0.00    -0.016 C 
ATOM     29  C   UNL     1      28.425 -24.267 -15.765  0.00  0.00    +0.080 C 
ATOM     30  C   UNL     1      27.635 -22.273 -17.019  0.00  0.00    +0.062 C 
ENDBRANCH   8  25
TORSDOF 3
ENDMDL
MODEL 4
REMARK VINA RESULT:      -9.3     10.726     14.840
REMARK  Name = 10090485
REMARK  3 active torsions:
REMARK  status: ('A' for Active; 'I' for Inactive)
REMARK    1  A    between atoms: C_7  and  C_10
REMARK    2  A    between atoms: C_8  and  C_25
REMARK    3  A    between atoms: C_16  and  C_21
REMARK                            x       y       z     vdW  Elec       q    Type
REMARK                         _______ _______ _______ _____ _____    ______ ____
ROOT
ATOM      1  N   UNL     1      32.436 -23.523 -14.874  0.00  0.00    -0.255 N 
ATOM      2  N   UNL     1      32.955 -22.689 -15.767  0.00  0.00    -0.167 NA
ATOM      3  C   UNL     1      33.226 -24.556 -14.494  0.00  0.00    +0.057 A 
ATOM      4  C   UNL     1      32.542 -25.401 -13.501  0.00  0.00    +0.048 C 
ATOM      5  C   UNL     1      31.072 -24.907 -13.623  0.00  0.00    +0.033 C 
ATOM      6  C   UNL     1      31.136 -23.494 -14.239  0.00  0.00    +0.127 C 
ATOM      7  C   UNL     1      34.390 -24.412 -15.194  0.00  0.00    +0.035 A 
ATOM      8  C   UNL     1      34.166 -23.237 -15.968  0.00  0.00    +0.131 A 
ENDROOT
BRANCH   7  10
ATOM      9  N   UNL     1      37.644 -27.085 -14.982  0.00  0.00    -0.248 NA
ATOM     10  C   UNL     1      35.514 -25.298 -15.090  0.00  0.00    +0.002 C 
ATOM     11  C   UNL     1      36.556 -25.092 -14.176  0.00  0.00    -0.004 C 
ATOM     12  C   UNL     1      35.541 -26.391 -15.943  0.00  0.00    +0.020 C 
ATOM     13  C   UNL     1      37.615 -26.023 -14.155  0.00  0.00    +0.060 C 
ATOM     14  C   UNL     1      36.558 -23.994 -13.298  0.00  0.00    +0.058 C 
ATOM     15  C   UNL     1      36.619 -27.247 -15.850  0.00  0.00    +0.098 C 
ATOM     16  C   UNL     1      37.606 -23.814 -12.399  0.00  0.00    +0.031 C 
ATOM     17  C   UNL     1      38.650 -25.818 -13.246  0.00  0.00    +0.071 C 
ATOM     18  C   UNL     1      38.653 -24.727 -12.373  0.00  0.00    -0.019 C 
BRANCH  16  21
ATOM     19  O   UNL     1      38.233 -21.637 -11.755  0.00  0.00    -0.271 OA
ATOM     20  N   UNL     1      36.858 -22.783 -10.322  0.00  0.00    -0.326 N 
ATOM     21  C   UNL     1      37.605 -22.677 -11.492  0.00  0.00    +0.239 C 
ATOM     22  H   UNL     1      36.834 -22.034  -9.683  0.00  0.00    +0.145 HD
ATOM     23  H   UNL     1      36.355 -23.608 -10.132  0.00  0.00    +0.145 HD
ENDBRANCH  16  21
ENDBRANCH   7  10
BRANCH   8  25
ATOM     24  N   UNL     1      34.609 -22.427 -18.142  0.00  0.00    -0.409 NA
ATOM     25  C   UNL     1      35.087 -22.626 -16.897  0.00  0.00    +0.150 C 
ATOM     26  C   UNL     1      36.361 -22.285 -16.482  0.00  0.00    +0.029 C 
ATOM     27  C   UNL     1      35.459 -21.851 -19.020  0.00  0.00    +0.091 C 
ATOM     28  C   UNL     1      37.205 -21.693 -17.414  0.00  0.00    -0.016 C 
ATOM     29  C   UNL     1      36.754 -21.468 -18.710  0.00  0.00    +0.080 C 
ATOM     30  C   UNL     1      34.942 -21.626 -20.403  0.00  0.00    +0.062 C 
ENDBRANCH   8  25
TORSDOF 3
ENDMDL
MODEL 5
REMARK VINA RESULT:      -8.7      2.293      7.206
REMARK  Name = 10090485
REMARK  3 active torsions:
REMARK  status: ('A' for Active; 'I' for Inactive)
REMARK    1  A    between atoms: C_7  and  C_10
REMARK    2  A    between atoms: C_8  and  C_25
REMARK    3  A    between atoms: C_16  and  C_21
REMARK                            x       y       z     vdW  Elec       q    Type
REMARK                         _______ _______ _______ _____ _____    ______ ____
ROOT
ATOM      1  N   UNL     1      32.578 -13.981 -20.612  0.00  0.00    -0.255 N 
ATOM      2  N   UNL     1      33.230 -15.124 -20.430  0.00  0.00    -0.167 NA
ATOM      3  C   UNL     1      32.495 -13.539 -21.890  0.00  0.00    +0.057 A 
ATOM      4  C   UNL     1      31.746 -12.273 -21.958  0.00  0.00    +0.048 C 
ATOM      5  C   UNL     1      31.709 -11.846 -20.463  0.00  0.00    +0.033 C 
ATOM      6  C   UNL     1      31.935 -13.128 -19.636  0.00  0.00    +0.127 C 
ATOM      7  C   UNL     1      33.154 -14.465 -22.648  0.00  0.00    +0.035 A 
ATOM      8  C   UNL     1      33.589 -15.427 -21.690  0.00  0.00    +0.131 A 
ENDROOT
BRANCH   7  10
ATOM      9  N   UNL     1      33.569 -14.360 -26.843  0.00  0.00    -0.248 NA
ATOM     10  C   UNL     1      33.305 -14.387 -24.073  0.00  0.00    +0.002 C 
ATOM     11  C   UNL     1      33.641 -13.198 -24.732  0.00  0.00    -0.004 C 
ATOM     12  C   UNL     1      33.103 -15.552 -24.796  0.00  0.00    +0.020 C 
ATOM     13  C   UNL     1      33.765 -13.229 -26.137  0.00  0.00    +0.060 C 
ATOM     14  C   UNL     1      33.853 -12.000 -24.028  0.00  0.00    +0.058 C 
ATOM     15  C   UNL     1      33.245 -15.486 -26.167  0.00  0.00    +0.098 C 
ATOM     16  C   UNL     1      34.187 -10.832 -24.709  0.00  0.00    +0.031 C 
ATOM     17  C   UNL     1      34.100 -12.048 -26.793  0.00  0.00    +0.071 C 
ATOM     18  C   UNL     1      34.310 -10.856 -26.093  0.00  0.00    -0.019 C 
BRANCH  16  21
ATOM     19  O   UNL     1      35.482  -8.978 -24.053  0.00  0.00    -0.271 OA
ATOM     20  N   UNL     1      33.358  -9.108 -23.201  0.00  0.00    -0.326 N 
ATOM     21  C   UNL     1      34.406  -9.595 -23.978  0.00  0.00    +0.239 C 
ATOM     22  H   UNL     1      33.469  -8.273 -22.691  0.00  0.00    +0.145 HD
ATOM     23  H   UNL     1      32.505  -9.599 -23.161  0.00  0.00    +0.145 HD
ENDBRANCH  16  21
ENDBRANCH   7  10
BRANCH   8  25
ATOM     24  N   UNL     1      34.135 -17.188 -23.165  0.00  0.00    -0.409 NA
ATOM     25  C   UNL     1      34.341 -16.629 -21.955  0.00  0.00    +0.150 C 
ATOM     26  C   UNL     1      35.205 -17.127 -20.997  0.00  0.00    +0.029 C 
ATOM     27  C   UNL     1      34.839 -18.311 -23.428  0.00  0.00    +0.091 C 
ATOM     28  C   UNL     1      35.911 -18.284 -21.306  0.00  0.00    -0.016 C 
ATOM     29  C   UNL     1      35.730 -18.894 -22.542  0.00  0.00    +0.080 C 
ATOM     30  C   UNL     1      34.619 -18.941 -24.764  0.00  0.00    +0.062 C 
ENDBRANCH   8  25
TORSDOF 3
ENDMDL
MODEL 6
REMARK VINA RESULT:      -8.6      2.348      7.014
REMARK  Name = 10090485
REMARK  3 active torsions:
REMARK  status: ('A' for Active; 'I' for Inactive)
REMARK    1  A    between atoms: C_7  and  C_10
REMARK    2  A    between atoms: C_8  and  C_25
REMARK    3  A    between atoms: C_16  and  C_21
REMARK                            x       y       z     vdW  Elec       q    Type
REMARK                         _______ _______ _______ _____ _____    ______ ____
ROOT
ATOM      1  N   UNL     1      31.870 -12.556 -20.736  0.00  0.00    -0.255 N 
ATOM      2  N   UNL     1      32.455 -13.719 -20.473  0.00  0.00    -0.167 NA
ATOM      3  C   UNL     1      32.048 -12.071 -21.989  0.00  0.00    +0.057 A 
ATOM      4  C   UNL     1      31.348 -10.786 -22.156  0.00  0.00    +0.048 C 
ATOM      5  C   UNL     1      31.024 -10.407 -20.683  0.00  0.00    +0.033 C 
ATOM      6  C   UNL     1      31.061 -11.721 -19.876  0.00  0.00    +0.127 C 
ATOM      7  C   UNL     1      32.828 -12.985 -22.636  0.00  0.00    +0.035 A 
ATOM      8  C   UNL     1      33.050 -13.988 -21.648  0.00  0.00    +0.131 A 
ENDROOT
BRANCH   7  10
ATOM      9  N   UNL     1      34.055 -12.748 -26.664  0.00  0.00    -0.248 NA
ATOM     10  C   UNL     1      33.259 -12.864 -24.000  0.00  0.00    +0.002 C 
ATOM     11  C   UNL     1      33.822 -11.688 -24.512  0.00  0.00    -0.004 C 
ATOM     12  C   UNL     1      33.096 -13.972 -24.817  0.00  0.00    +0.020 C 
ATOM     13  C   UNL     1      34.212 -11.673 -25.868  0.00  0.00    +0.060 C 
ATOM     14  C   UNL     1      34.001 -10.547 -23.710  0.00  0.00    +0.058 C 
ATOM     15  C   UNL     1      33.507 -13.864 -26.129  0.00  0.00    +0.098 C 
ATOM     16  C   UNL     1      34.563  -9.391 -24.245  0.00  0.00    +0.031 C 
ATOM     17  C   UNL     1      34.772 -10.505 -26.376  0.00  0.00    +0.071 C 
ATOM     18  C   UNL     1      34.949  -9.370 -25.579  0.00  0.00    -0.019 C 
BRANCH  16  21
ATOM     19  O   UNL     1      35.562  -7.325 -23.715  0.00  0.00    -0.271 OA
ATOM     20  N   UNL     1      33.962  -8.101 -22.268  0.00  0.00    -0.326 N 
ATOM     21  C   UNL     1      34.747  -8.213 -23.412  0.00  0.00    +0.239 C 
ATOM     22  H   UNL     1      34.058  -7.317 -21.680  0.00  0.00    +0.145 HD
ATOM     23  H   UNL     1      33.310  -8.805 -22.047  0.00  0.00    +0.145 HD
ENDBRANCH  16  21
ENDBRANCH   7  10
BRANCH   8  25
ATOM     24  N   UNL     1      33.921 -15.664 -23.066  0.00  0.00    -0.409 NA
ATOM     25  C   UNL     1      33.821 -15.198 -21.804  0.00  0.00    +0.150 C 
ATOM     26  C   UNL     1      34.399 -15.795 -20.699  0.00  0.00    +0.029 C 
ATOM     27  C   UNL     1      34.645 -16.793 -23.227  0.00  0.00    +0.091 C 
ATOM     28  C   UNL     1      35.137 -16.955 -20.906  0.00  0.00    -0.016 C 
ATOM     29  C   UNL     1      35.267 -17.471 -22.191  0.00  0.00    +0.080 C 
ATOM     30  C   UNL     1      34.763 -17.320 -24.619  0.00  0.00    +0.062 C 
ENDBRANCH   8  25
TORSDOF 3
ENDMDL
MODEL 7
REMARK VINA RESULT:      -8.3      3.194      7.598
REMARK  Name = 10090485
REMARK  3 active torsions:
REMARK  status: ('A' for Active; 'I' for Inactive)
REMARK    1  A    between atoms: C_7  and  C_10
REMARK    2  A    between atoms: C_8  and  C_25
REMARK    3  A    between atoms: C_16  and  C_21
REMARK                            x       y       z     vdW  Elec       q    Type
REMARK                         _______ _______ _______ _____ _____    ______ ____
ROOT
ATOM      1  N   UNL     1      31.574 -11.508 -21.016  0.00  0.00    -0.255 N 
ATOM      2  N   UNL     1      31.690 -12.683 -21.624  0.00  0.00    -0.167 NA
ATOM      3  C   UNL     1      32.226 -10.471 -21.595  0.00  0.00    +0.057 A 
ATOM      4  C   UNL     1      32.015  -9.229 -20.833  0.00  0.00    +0.048 C 
ATOM      5  C   UNL     1      31.425  -9.771 -19.500  0.00  0.00    +0.033 C 
ATOM      6  C   UNL     1      30.846 -11.166 -19.813  0.00  0.00    +0.127 C 
ATOM      7  C   UNL     1      32.846 -10.988 -22.696  0.00  0.00    +0.035 A 
ATOM      8  C   UNL     1      32.478 -12.365 -22.666  0.00  0.00    +0.131 A 
ENDROOT
BRANCH   7  10
ATOM      9  N   UNL     1      35.271  -8.854 -25.406  0.00  0.00    -0.248 NA
ATOM     10  C   UNL     1      33.651 -10.226 -23.607  0.00  0.00    +0.002 C 
ATOM     11  C   UNL     1      33.499  -8.843 -23.773  0.00  0.00    -0.004 C 
ATOM     12  C   UNL     1      34.607 -10.915 -24.337  0.00  0.00    +0.020 C 
ATOM     13  C   UNL     1      34.342  -8.188 -24.696  0.00  0.00    +0.060 C 
ATOM     14  C   UNL     1      32.539  -8.115 -23.048  0.00  0.00    +0.058 C 
ATOM     15  C   UNL     1      35.385 -10.189 -25.216  0.00  0.00    +0.098 C 
ATOM     16  C   UNL     1      32.410  -6.741 -23.233  0.00  0.00    +0.031 C 
ATOM     17  C   UNL     1      34.191  -6.814 -24.860  0.00  0.00    +0.071 C 
ATOM     18  C   UNL     1      33.237  -6.090 -24.140  0.00  0.00    -0.019 C 
BRANCH  16  21
ATOM     19  O   UNL     1      30.383  -5.562 -23.021  0.00  0.00    -0.271 OA
ATOM     20  N   UNL     1      31.652  -5.786 -21.124  0.00  0.00    -0.326 N 
ATOM     21  C   UNL     1      31.417  -5.991 -22.481  0.00  0.00    +0.239 C 
ATOM     22  H   UNL     1      31.001  -5.282 -20.582  0.00  0.00    +0.145 HD
ATOM     23  H   UNL     1      32.468  -6.143 -20.706  0.00  0.00    +0.145 HD
ENDBRANCH  16  21
ENDBRANCH   7  10
BRANCH   8  25
ATOM     24  N   UNL     1      33.707 -14.325 -23.140  0.00  0.00    -0.409 NA
ATOM     25  C   UNL     1      32.866 -13.383 -23.612  0.00  0.00    +0.150 C 
ATOM     26  C   UNL     1      32.372 -13.348 -24.903  0.00  0.00    +0.029 C 
ATOM     27  C   UNL     1      34.073 -15.288 -24.015  0.00  0.00    +0.091 C 
ATOM     28  C   UNL     1      32.771 -14.357 -25.773  0.00  0.00    -0.016 C 
ATOM     29  C   UNL     1      33.638 -15.349 -25.328  0.00  0.00    +0.080 C 
ATOM     30  C   UNL     1      35.006 -16.336 -23.504  0.00  0.00    +0.062 C 
ENDBRANCH   8  25
TORSDOF 3
ENDMDL
MODEL 8
REMARK VINA RESULT:      -8.3      1.827      4.371
REMARK  Name = 10090485
REMARK  3 active torsions:
REMARK  status: ('A' for Active; 'I' for Inactive)
REMARK    1  A    between atoms: C_7  and  C_10
REMARK    2  A    between atoms: C_8  and  C_25
REMARK    3  A    between atoms: C_16  and  C_21
REMARK                            x       y       z     vdW  Elec       q    Type
REMARK                         _______ _______ _______ _____ _____    ______ ____
ROOT
ATOM      1  N   UNL     1      32.008  -9.558 -20.592  0.00  0.00    -0.255 N 
ATOM      2  N   UNL     1      32.402  -8.427 -21.165  0.00  0.00    -0.167 NA
ATOM      3  C   UNL     1      32.152 -10.683 -21.333  0.00  0.00    +0.057 A 
ATOM      4  C   UNL     1      31.688 -11.865 -20.587  0.00  0.00    +0.048 C 
ATOM      5  C   UNL     1      30.904 -11.210 -19.413  0.00  0.00    +0.033 C 
ATOM      6  C   UNL     1      31.441  -9.771 -19.277  0.00  0.00    +0.127 C 
ATOM      7  C   UNL     1      32.692 -10.280 -22.521  0.00  0.00    +0.035 A 
ATOM      8  C   UNL     1      32.826  -8.870 -22.361  0.00  0.00    +0.131 A 
ENDROOT
BRANCH   7  10
ATOM      9  N   UNL     1      33.619 -12.775 -25.791  0.00  0.00    -0.248 NA
ATOM     10  C   UNL     1      33.013 -11.162 -23.606  0.00  0.00    +0.002 C 
ATOM     11  C   UNL     1      33.349 -12.508 -23.411  0.00  0.00    -0.004 C 
ATOM     12  C   UNL     1      32.982 -10.630 -24.886  0.00  0.00    +0.020 C 
ATOM     13  C   UNL     1      33.649 -13.290 -24.547  0.00  0.00    +0.060 C 
ATOM     14  C   UNL     1      33.389 -13.078 -22.127  0.00  0.00    +0.058 C 
ATOM     15  C   UNL     1      33.291 -11.471 -25.935  0.00  0.00    +0.098 C 
ATOM     16  C   UNL     1      33.726 -14.419 -21.962  0.00  0.00    +0.031 C 
ATOM     17  C   UNL     1      33.982 -14.627 -24.353  0.00  0.00    +0.071 C 
ATOM     18  C   UNL     1      34.022 -15.195 -23.076  0.00  0.00    -0.019 C 
BRANCH  16  21
ATOM     19  O   UNL     1      34.843 -15.314 -20.092  0.00  0.00    -0.271 OA
ATOM     20  N   UNL     1      32.556 -15.195 -19.971  0.00  0.00    -0.326 N 
ATOM     21  C   UNL     1      33.767 -15.006 -20.632  0.00  0.00    +0.239 C 
ATOM     22  H   UNL     1      32.544 -15.590 -19.069  0.00  0.00    +0.145 HD
ATOM     23  H   UNL     1      31.712 -14.934 -20.405  0.00  0.00    +0.145 HD
ENDBRANCH  16  21
ENDBRANCH   7  10
BRANCH   8  25
ATOM     24  N   UNL     1      32.458  -7.065 -23.838  0.00  0.00    -0.409 NA
ATOM     25  C   UNL     1      33.351  -7.938 -23.330  0.00  0.00    +0.150 C 
ATOM     26  C   UNL     1      34.690  -7.980 -23.672  0.00  0.00    +0.029 C 
ATOM     27  C   UNL     1      32.939  -6.182 -24.741  0.00  0.00    +0.091 C 
ATOM     28  C   UNL     1      35.146  -7.055 -24.604  0.00  0.00    -0.016 C 
ATOM     29  C   UNL     1      34.260  -6.135 -25.154  0.00  0.00    +0.080 C 
ATOM     30  C   UNL     1      31.960  -5.209 -25.312  0.00  0.00    +0.062 C 
ENDBRANCH   8  25
TORSDOF 3
ENDMDL
MODEL 9
REMARK VINA RESULT:      -8.0      2.115      4.733
REMARK  Name = 10090485
REMARK  3 active torsions:
REMARK  status: ('A' for Active; 'I' for Inactive)
REMARK    1  A    between atoms: C_7  and  C_10
REMARK    2  A    between atoms: C_8  and  C_25
REMARK    3  A    between atoms: C_16  and  C_21
REMARK                            x       y       z     vdW  Elec       q    Type
REMARK                         _______ _______ _______ _____ _____    ______ ____
ROOT
ATOM      1  N   UNL     1      32.217 -12.628 -21.314  0.00  0.00    -0.255 N 
ATOM      2  N   UNL     1      31.638 -11.451 -21.106  0.00  0.00    -0.167 NA
ATOM      3  C   UNL     1      33.066 -12.695 -22.368  0.00  0.00    +0.057 A 
ATOM      4  C   UNL     1      33.645 -14.044 -22.488  0.00  0.00    +0.048 C 
ATOM      5  C   UNL     1      32.722 -14.870 -21.547  0.00  0.00    +0.033 C 
ATOM      6  C   UNL     1      32.075 -13.863 -20.574  0.00  0.00    +0.127 C 
ATOM      7  C   UNL     1      33.062 -11.451 -22.930  0.00  0.00    +0.035 A 
ATOM      8  C   UNL     1      32.159 -10.719 -22.106  0.00  0.00    +0.131 A 
ENDROOT
BRANCH   7  10
ATOM      9  N   UNL     1      35.359 -10.247 -26.255  0.00  0.00    -0.248 NA
ATOM     10  C   UNL     1      33.834 -11.078 -24.081  0.00  0.00    +0.002 C 
ATOM     11  C   UNL     1      33.968 -11.910 -25.201  0.00  0.00    -0.004 C 
ATOM     12  C   UNL     1      34.459  -9.841 -24.052  0.00  0.00    +0.020 C 
ATOM     13  C   UNL     1      34.751 -11.448 -26.281  0.00  0.00    +0.060 C 
ATOM     14  C   UNL     1      33.347 -13.169 -25.262  0.00  0.00    +0.058 C 
ATOM     15  C   UNL     1      35.204  -9.476 -25.154  0.00  0.00    +0.098 C 
ATOM     16  C   UNL     1      33.498 -13.974 -26.388  0.00  0.00    +0.031 C 
ATOM     17  C   UNL     1      34.884 -12.274 -27.393  0.00  0.00    +0.071 C 
ATOM     18  C   UNL     1      34.267 -13.526 -27.455  0.00  0.00    -0.019 C 
BRANCH  16  21
ATOM     19  O   UNL     1      31.896 -15.492 -27.210  0.00  0.00    -0.271 OA
ATOM     20  N   UNL     1      33.360 -16.287 -25.635  0.00  0.00    -0.326 N 
ATOM     21  C   UNL     1      32.854 -15.277 -26.448  0.00  0.00    +0.239 C 
ATOM     22  H   UNL     1      32.950 -17.182 -25.648  0.00  0.00    +0.145 HD
ATOM     23  H   UNL     1      34.128 -16.107 -25.045  0.00  0.00    +0.145 HD
ENDBRANCH  16  21
ENDBRANCH   7  10
BRANCH   8  25
ATOM     24  N   UNL     1      32.166  -8.517 -21.253  0.00  0.00    -0.409 NA
ATOM     25  C   UNL     1      31.783  -9.334 -22.255  0.00  0.00    +0.150 C 
ATOM     26  C   UNL     1      31.081  -8.926 -23.374  0.00  0.00    +0.029 C 
ATOM     27  C   UNL     1      31.826  -7.216 -21.383  0.00  0.00    +0.091 C 
ATOM     28  C   UNL     1      30.750  -7.579 -23.472  0.00  0.00    -0.016 C 
ATOM     29  C   UNL     1      31.125  -6.701 -22.462  0.00  0.00    +0.080 C 
ATOM     30  C   UNL     1      32.243  -6.301 -20.279  0.00  0.00    +0.062 C 
ENDBRANCH   8  25
TORSDOF 3
ENDMDL
