MODEL 1
REMARK VINA RESULT:      -8.5      0.000      0.000
REMARK  Name = 60753
REMARK  15 active torsions:
REMARK  status: ('A' for Active; 'I' for Inactive)
REMARK    1  A    between atoms: C_1  and  C_2
REMARK    2  A    between atoms: C_1  and  O_14
REMARK    3  A    between atoms: C_1  and  C_16
REMARK    4  A    between atoms: C_7  and  N_8
REMARK    5  A    between atoms: N_8  and  S_10
REMARK    6  A    between atoms: C_16  and  C_17
REMARK    7  A    between atoms: C_17  and  C_18
REMARK    8  A    between atoms: C_18  and  N_19
REMARK    9  A    between atoms: N_19  and  C_21
REMARK   10  A    between atoms: N_19  and  C_23
REMARK   11  A    between atoms: C_23  and  C_24
REMARK   12  A    between atoms: C_24  and  C_25
REMARK   13  A    between atoms: C_25  and  C_26
REMARK   14  A    between atoms: C_26  and  C_27
REMARK   15  A    between atoms: C_27  and  C_28
REMARK                            x       y       z     vdW  Elec       q    Type
REMARK                         _______ _______ _______ _____ _____    ______ ____
ROOT
ATOM      1  C   UNL     1      34.079 -22.729 -18.662  0.00  0.00    +0.133 C 
ENDROOT
BRANCH   1   2
ATOM      2  C   UNL     1      34.160 -21.502 -19.539  0.00  0.00    +0.004 C 
ATOM      3  C   UNL     1      32.992 -20.855 -19.944  0.00  0.00    -0.001 C 
ATOM      4  C   UNL     1      35.402 -21.016 -19.947  0.00  0.00    -0.001 C 
ATOM      5  C   UNL     1      33.066 -19.723 -20.755  0.00  0.00    +0.016 C 
ATOM      6  C   UNL     1      35.477 -19.884 -20.758  0.00  0.00    +0.016 C 
ATOM      7  C   UNL     1      34.308 -19.237 -21.163  0.00  0.00    +0.064 C 
BRANCH   7   8
ATOM      8  N   UNL     1      34.384 -18.078 -21.992  0.00  0.00    -0.219 N 
ATOM      9  H   UNL     1      34.527 -18.160 -22.963  0.00  0.00    +0.173 HD
BRANCH   8  10
ATOM     10  S   UNL     1      34.222 -16.532 -21.250  0.00  0.00    +0.056 S 
ATOM     11  O   UNL     1      32.815 -16.296 -20.985  0.00  0.00    -0.154 OA
ATOM     12  O   UNL     1      35.209 -16.355 -20.204  0.00  0.00    -0.154 OA
ATOM     13  C   UNL     1      34.676 -15.481 -22.611  0.00  0.00    +0.200 C 
ENDBRANCH   8  10
ENDBRANCH   7   8
ENDBRANCH   1   2
BRANCH   1  14
ATOM     14  O   UNL     1      34.019 -23.876 -19.513  0.00  0.00    -0.380 OA
ATOM     15  H   UNL     1      33.133 -23.943 -19.902  0.00  0.00    +0.211 HD
ENDBRANCH   1  14
BRANCH   1  16
ATOM     16  C   UNL     1      32.866 -22.741 -17.719  0.00  0.00    +0.032 C 
BRANCH  16  17
ATOM     17  C   UNL     1      33.209 -23.211 -16.303  0.00  0.00    -0.020 C 
BRANCH  17  18
ATOM     18  C   UNL     1      34.654 -23.705 -16.220  0.00  0.00    -0.077 C 
BRANCH  18  19
ATOM     19  N   UNL     1      35.385 -23.015 -15.156  0.00  0.00    +0.387 N 
ATOM     20  H   UNL     1      35.017 -22.067 -15.071  0.00  0.00    -0.080 HD
BRANCH  19  21
ATOM     21  C   UNL     1      36.808 -22.933 -15.489  0.00  0.00    -0.077 C 
ATOM     22  C   UNL     1      37.066 -21.863 -16.538  0.00  0.00    -0.025 C 
ENDBRANCH  19  21
BRANCH  19  23
ATOM     23  C   UNL     1      35.196 -23.693 -13.879  0.00  0.00    -0.077 C 
BRANCH  23  24
ATOM     24  C   UNL     1      36.380 -23.421 -12.952  0.00  0.00    -0.023 C 
BRANCH  24  25
ATOM     25  C   UNL     1      36.569 -24.563 -11.952  0.00  0.00    -0.002 C 
BRANCH  25  26
ATOM     26  C   UNL     1      37.200 -25.816 -12.569  0.00  0.00    -0.000 C 
BRANCH  26  27
ATOM     27  C   UNL     1      38.659 -25.619 -12.988  0.00  0.00    -0.000 C 
BRANCH  27  28
ATOM     28  C   UNL     1      38.845 -25.888 -14.483  0.00  0.00    -0.000 C 
ATOM     29  C   UNL     1      40.193 -25.384 -14.975  0.00  0.00    +0.000 C 
ENDBRANCH  27  28
ENDBRANCH  26  27
ENDBRANCH  25  26
ENDBRANCH  24  25
ENDBRANCH  23  24
ENDBRANCH  19  23
ENDBRANCH  18  19
ENDBRANCH  17  18
ENDBRANCH  16  17
ENDBRANCH   1  16
TORSDOF 15
ENDMDL
MODEL 2
REMARK VINA RESULT:      -8.4      2.003      4.466
REMARK  Name = 60753
REMARK  15 active torsions:
REMARK  status: ('A' for Active; 'I' for Inactive)
REMARK    1  A    between atoms: C_1  and  C_2
REMARK    2  A    between atoms: C_1  and  O_14
REMARK    3  A    between atoms: C_1  and  C_16
REMARK    4  A    between atoms: C_7  and  N_8
REMARK    5  A    between atoms: N_8  and  S_10
REMARK    6  A    between atoms: C_16  and  C_17
REMARK    7  A    between atoms: C_17  and  C_18
REMARK    8  A    between atoms: C_18  and  N_19
REMARK    9  A    between atoms: N_19  and  C_21
REMARK   10  A    between atoms: N_19  and  C_23
REMARK   11  A    between atoms: C_23  and  C_24
REMARK   12  A    between atoms: C_24  and  C_25
REMARK   13  A    between atoms: C_25  and  C_26
REMARK   14  A    between atoms: C_26  and  C_27
REMARK   15  A    between atoms: C_27  and  C_28
REMARK                            x       y       z     vdW  Elec       q    Type
REMARK                         _______ _______ _______ _____ _____    ______ ____
ROOT
ATOM      1  C   UNL     1      34.193 -22.504 -18.904  0.00  0.00    +0.133 C 
ENDROOT
BRANCH   1   2
ATOM      2  C   UNL     1      34.235 -21.238 -19.728  0.00  0.00    +0.004 C 
ATOM      3  C   UNL     1      35.459 -20.723 -20.155  0.00  0.00    -0.001 C 
ATOM      4  C   UNL     1      33.049 -20.582 -20.060  0.00  0.00    -0.001 C 
ATOM      5  C   UNL     1      35.497 -19.554 -20.914  0.00  0.00    +0.016 C 
ATOM      6  C   UNL     1      33.088 -19.413 -20.819  0.00  0.00    +0.016 C 
ATOM      7  C   UNL     1      34.312 -18.898 -21.246  0.00  0.00    +0.064 C 
BRANCH   7   8
ATOM      8  N   UNL     1      34.351 -17.701 -22.023  0.00  0.00    -0.219 N 
ATOM      9  H   UNL     1      34.506 -17.734 -22.995  0.00  0.00    +0.173 HD
BRANCH   8  10
ATOM     10  S   UNL     1      34.122 -16.197 -21.215  0.00  0.00    +0.056 S 
ATOM     11  O   UNL     1      32.703 -16.020 -20.970  0.00  0.00    -0.154 OA
ATOM     12  O   UNL     1      35.081 -16.036 -20.140  0.00  0.00    -0.154 OA
ATOM     13  C   UNL     1      34.567 -15.070 -22.517  0.00  0.00    +0.200 C 
ENDBRANCH   8  10
ENDBRANCH   7   8
ENDBRANCH   1   2
BRANCH   1  14
ATOM     14  O   UNL     1      34.162 -23.614 -19.804  0.00  0.00    -0.380 OA
ATOM     15  H   UNL     1      34.707 -24.333 -19.447  0.00  0.00    +0.211 HD
ENDBRANCH   1  14
BRANCH   1  16
ATOM     16  C   UNL     1      32.985 -22.591 -17.959  0.00  0.00    +0.032 C 
BRANCH  16  17
ATOM     17  C   UNL     1      33.204 -23.555 -16.789  0.00  0.00    -0.020 C 
BRANCH  17  18
ATOM     18  C   UNL     1      34.441 -23.166 -15.978  0.00  0.00    -0.077 C 
BRANCH  18  19
ATOM     19  N   UNL     1      34.192 -23.301 -14.542  0.00  0.00    +0.387 N 
ATOM     20  H   UNL     1      34.100 -22.368 -14.139  0.00  0.00    -0.080 HD
BRANCH  19  21
ATOM     21  C   UNL     1      35.316 -23.979 -13.894  0.00  0.00    -0.077 C 
ATOM     22  C   UNL     1      36.081 -24.842 -14.884  0.00  0.00    -0.025 C 
ENDBRANCH  19  21
BRANCH  19  23
ATOM     23  C   UNL     1      32.949 -24.025 -14.302  0.00  0.00    -0.077 C 
BRANCH  23  24
ATOM     24  C   UNL     1      32.005 -23.188 -13.440  0.00  0.00    -0.023 C 
BRANCH  24  25
ATOM     25  C   UNL     1      30.544 -23.436 -13.822  0.00  0.00    -0.002 C 
BRANCH  25  26
ATOM     26  C   UNL     1      30.340 -24.702 -14.660  0.00  0.00    -0.000 C 
BRANCH  26  27
ATOM     27  C   UNL     1      29.616 -24.445 -15.983  0.00  0.00    -0.000 C 
BRANCH  27  28
ATOM     28  C   UNL     1      29.376 -22.950 -16.201  0.00  0.00    -0.000 C 
ATOM     29  C   UNL     1      27.892 -22.630 -16.284  0.00  0.00    +0.000 C 
ENDBRANCH  27  28
ENDBRANCH  26  27
ENDBRANCH  25  26
ENDBRANCH  24  25
ENDBRANCH  23  24
ENDBRANCH  19  23
ENDBRANCH  18  19
ENDBRANCH  17  18
ENDBRANCH  16  17
ENDBRANCH   1  16
TORSDOF 15
ENDMDL
MODEL 3
REMARK VINA RESULT:      -8.4      2.225      4.505
REMARK  Name = 60753
REMARK  15 active torsions:
REMARK  status: ('A' for Active; 'I' for Inactive)
REMARK    1  A    between atoms: C_1  and  C_2
REMARK    2  A    between atoms: C_1  and  O_14
REMARK    3  A    between atoms: C_1  and  C_16
REMARK    4  A    between atoms: C_7  and  N_8
REMARK    5  A    between atoms: N_8  and  S_10
REMARK    6  A    between atoms: C_16  and  C_17
REMARK    7  A    between atoms: C_17  and  C_18
REMARK    8  A    between atoms: C_18  and  N_19
REMARK    9  A    between atoms: N_19  and  C_21
REMARK   10  A    between atoms: N_19  and  C_23
REMARK   11  A    between atoms: C_23  and  C_24
REMARK   12  A    between atoms: C_24  and  C_25
REMARK   13  A    between atoms: C_25  and  C_26
REMARK   14  A    between atoms: C_26  and  C_27
REMARK   15  A    between atoms: C_27  and  C_28
REMARK                            x       y       z     vdW  Elec       q    Type
REMARK                         _______ _______ _______ _____ _____    ______ ____
ROOT
ATOM      1  C   UNL     1      34.207 -22.439 -18.892  0.00  0.00    +0.133 C 
ENDROOT
BRANCH   1   2
ATOM      2  C   UNL     1      34.255 -21.207 -19.765  0.00  0.00    +0.004 C 
ATOM      3  C   UNL     1      33.074 -20.546 -20.105  0.00  0.00    -0.001 C 
ATOM      4  C   UNL     1      35.480 -20.731 -20.233  0.00  0.00    -0.001 C 
ATOM      5  C   UNL     1      33.118 -19.410 -20.911  0.00  0.00    +0.016 C 
ATOM      6  C   UNL     1      35.524 -19.594 -21.040  0.00  0.00    +0.016 C 
ATOM      7  C   UNL     1      34.343 -18.933 -21.380  0.00  0.00    +0.064 C 
BRANCH   7   8
ATOM      8  N   UNL     1      34.388 -17.770 -22.205  0.00  0.00    -0.219 N 
ATOM      9  H   UNL     1      34.325 -17.842 -23.185  0.00  0.00    +0.173 HD
BRANCH   8  10
ATOM     10  S   UNL     1      34.556 -16.235 -21.442  0.00  0.00    +0.056 S 
ATOM     11  O   UNL     1      35.187 -16.432 -20.150  0.00  0.00    -0.154 OA
ATOM     12  O   UNL     1      35.071 -15.249 -22.371  0.00  0.00    -0.154 OA
ATOM     13  C   UNL     1      32.848 -15.850 -21.129  0.00  0.00    +0.200 C 
ENDBRANCH   8  10
ENDBRANCH   7   8
ENDBRANCH   1   2
BRANCH   1  14
ATOM     14  O   UNL     1      34.199 -23.585 -19.747  0.00  0.00    -0.380 OA
ATOM     15  H   UNL     1      34.690 -23.385 -20.559  0.00  0.00    +0.211 HD
ENDBRANCH   1  14
BRANCH   1  16
ATOM     16  C   UNL     1      32.984 -22.497 -17.965  0.00  0.00    +0.032 C 
BRANCH  16  17
ATOM     17  C   UNL     1      33.155 -23.479 -16.802  0.00  0.00    -0.020 C 
BRANCH  17  18
ATOM     18  C   UNL     1      34.354 -23.100 -15.932  0.00  0.00    -0.077 C 
BRANCH  18  19
ATOM     19  N   UNL     1      34.028 -23.208 -14.510  0.00  0.00    +0.387 N 
ATOM     20  H   UNL     1      34.386 -22.382 -14.030  0.00  0.00    -0.080 HD
BRANCH  19  21
ATOM     21  C   UNL     1      34.664 -24.393 -13.932  0.00  0.00    -0.077 C 
ATOM     22  C   UNL     1      35.874 -24.819 -14.747  0.00  0.00    -0.025 C 
ENDBRANCH  19  21
BRANCH  19  23
ATOM     23  C   UNL     1      32.583 -23.257 -14.316  0.00  0.00    -0.077 C 
BRANCH  23  24
ATOM     24  C   UNL     1      32.167 -24.618 -13.759  0.00  0.00    -0.023 C 
BRANCH  24  25
ATOM     25  C   UNL     1      30.646 -24.718 -13.630  0.00  0.00    -0.002 C 
BRANCH  25  26
ATOM     26  C   UNL     1      29.975 -25.389 -14.833  0.00  0.00    -0.000 C 
BRANCH  26  27
ATOM     27  C   UNL     1      29.542 -24.400 -15.918  0.00  0.00    -0.000 C 
BRANCH  27  28
ATOM     28  C   UNL     1      29.057 -23.085 -15.306  0.00  0.00    -0.000 C 
ATOM     29  C   UNL     1      27.811 -22.570 -16.010  0.00  0.00    +0.000 C 
ENDBRANCH  27  28
ENDBRANCH  26  27
ENDBRANCH  25  26
ENDBRANCH  24  25
ENDBRANCH  23  24
ENDBRANCH  19  23
ENDBRANCH  18  19
ENDBRANCH  17  18
ENDBRANCH  16  17
ENDBRANCH   1  16
TORSDOF 15
ENDMDL
MODEL 4
REMARK VINA RESULT:      -8.1      3.542     10.100
REMARK  Name = 60753
REMARK  15 active torsions:
REMARK  status: ('A' for Active; 'I' for Inactive)
REMARK    1  A    between atoms: C_1  and  C_2
REMARK    2  A    between atoms: C_1  and  O_14
REMARK    3  A    between atoms: C_1  and  C_16
REMARK    4  A    between atoms: C_7  and  N_8
REMARK    5  A    between atoms: N_8  and  S_10
REMARK    6  A    between atoms: C_16  and  C_17
REMARK    7  A    between atoms: C_17  and  C_18
REMARK    8  A    between atoms: C_18  and  N_19
REMARK    9  A    between atoms: N_19  and  C_21
REMARK   10  A    between atoms: N_19  and  C_23
REMARK   11  A    between atoms: C_23  and  C_24
REMARK   12  A    between atoms: C_24  and  C_25
REMARK   13  A    between atoms: C_25  and  C_26
REMARK   14  A    between atoms: C_26  and  C_27
REMARK   15  A    between atoms: C_27  and  C_28
REMARK                            x       y       z     vdW  Elec       q    Type
REMARK                         _______ _______ _______ _____ _____    ______ ____
ROOT
ATOM      1  C   UNL     1      35.439 -21.878 -18.554  0.00  0.00    +0.133 C 
ENDROOT
BRANCH   1   2
ATOM      2  C   UNL     1      35.777 -22.434 -17.190  0.00  0.00    +0.004 C 
ATOM      3  C   UNL     1      37.081 -22.344 -16.703  0.00  0.00    -0.001 C 
ATOM      4  C   UNL     1      34.785 -23.040 -16.418  0.00  0.00    -0.001 C 
ATOM      5  C   UNL     1      37.392 -22.858 -15.445  0.00  0.00    +0.016 C 
ATOM      6  C   UNL     1      35.097 -23.554 -15.161  0.00  0.00    +0.016 C 
ATOM      7  C   UNL     1      36.401 -23.464 -14.673  0.00  0.00    +0.064 C 
BRANCH   7   8
ATOM      8  N   UNL     1      36.720 -23.990 -13.385  0.00  0.00    -0.219 N 
ATOM      9  H   UNL     1      36.656 -23.428 -12.579  0.00  0.00    +0.173 HD
BRANCH   8  10
ATOM     10  S   UNL     1      37.223 -25.634 -13.278  0.00  0.00    +0.056 S 
ATOM     11  O   UNL     1      36.866 -26.138 -11.965  0.00  0.00    -0.154 OA
ATOM     12  O   UNL     1      36.854 -26.366 -14.474  0.00  0.00    -0.154 OA
ATOM     13  C   UNL     1      38.989 -25.425 -13.290  0.00  0.00    +0.200 C 
ENDBRANCH   8  10
ENDBRANCH   7   8
ENDBRANCH   1   2
BRANCH   1  14
ATOM     14  O   UNL     1      34.627 -22.839 -19.232  0.00  0.00    -0.380 OA
ATOM     15  H   UNL     1      35.112 -23.189 -19.996  0.00  0.00    +0.211 HD
ENDBRANCH   1  14
BRANCH   1  16
ATOM     16  C   UNL     1      36.669 -21.562 -19.418  0.00  0.00    +0.032 C 
BRANCH  16  17
ATOM     17  C   UNL     1      36.609 -20.177 -20.068  0.00  0.00    -0.020 C 
BRANCH  17  18
ATOM     18  C   UNL     1      35.375 -20.040 -20.960  0.00  0.00    -0.077 C 
BRANCH  18  19
ATOM     19  N   UNL     1      34.879 -18.663 -20.964  0.00  0.00    +0.387 N 
ATOM     20  H   UNL     1      35.213 -18.195 -20.120  0.00  0.00    -0.080 HD
BRANCH  19  21
ATOM     21  C   UNL     1      33.415 -18.651 -20.952  0.00  0.00    -0.077 C 
ATOM     22  C   UNL     1      32.857 -20.020 -20.598  0.00  0.00    -0.025 C 
ENDBRANCH  19  21
BRANCH  19  23
ATOM     23  C   UNL     1      35.388 -17.936 -22.120  0.00  0.00    -0.077 C 
BRANCH  23  24
ATOM     24  C   UNL     1      35.325 -18.814 -23.370  0.00  0.00    -0.023 C 
BRANCH  24  25
ATOM     25  C   UNL     1      34.479 -18.157 -24.462  0.00  0.00    -0.002 C 
BRANCH  25  26
ATOM     26  C   UNL     1      34.943 -16.742 -24.824  0.00  0.00    -0.000 C 
BRANCH  26  27
ATOM     27  C   UNL     1      33.809 -15.714 -24.830  0.00  0.00    -0.000 C 
BRANCH  27  28
ATOM     28  C   UNL     1      34.006 -14.669 -23.730  0.00  0.00    -0.000 C 
ATOM     29  C   UNL     1      33.172 -14.991 -22.500  0.00  0.00    +0.000 C 
ENDBRANCH  27  28
ENDBRANCH  26  27
ENDBRANCH  25  26
ENDBRANCH  24  25
ENDBRANCH  23  24
ENDBRANCH  19  23
ENDBRANCH  18  19
ENDBRANCH  17  18
ENDBRANCH  16  17
ENDBRANCH   1  16
TORSDOF 15
ENDMDL
MODEL 5
REMARK VINA RESULT:      -8.1      3.543     10.022
REMARK  Name = 60753
REMARK  15 active torsions:
REMARK  status: ('A' for Active; 'I' for Inactive)
REMARK    1  A    between atoms: C_1  and  C_2
REMARK    2  A    between atoms: C_1  and  O_14
REMARK    3  A    between atoms: C_1  and  C_16
REMARK    4  A    between atoms: C_7  and  N_8
REMARK    5  A    between atoms: N_8  and  S_10
REMARK    6  A    between atoms: C_16  and  C_17
REMARK    7  A    between atoms: C_17  and  C_18
REMARK    8  A    between atoms: C_18  and  N_19
REMARK    9  A    between atoms: N_19  and  C_21
REMARK   10  A    between atoms: N_19  and  C_23
REMARK   11  A    between atoms: C_23  and  C_24
REMARK   12  A    between atoms: C_24  and  C_25
REMARK   13  A    between atoms: C_25  and  C_26
REMARK   14  A    between atoms: C_26  and  C_27
REMARK   15  A    between atoms: C_27  and  C_28
REMARK                            x       y       z     vdW  Elec       q    Type
REMARK                         _______ _______ _______ _____ _____    ______ ____
ROOT
ATOM      1  C   UNL     1      34.025 -22.611 -18.604  0.00  0.00    +0.133 C 
ENDROOT
BRANCH   1   2
ATOM      2  C   UNL     1      34.483 -22.818 -17.179  0.00  0.00    +0.004 C 
ATOM      3  C   UNL     1      33.614 -23.376 -16.241  0.00  0.00    -0.001 C 
ATOM      4  C   UNL     1      35.774 -22.448 -16.800  0.00  0.00    -0.001 C 
ATOM      5  C   UNL     1      34.037 -23.566 -14.925  0.00  0.00    +0.016 C 
ATOM      6  C   UNL     1      36.196 -22.638 -15.485  0.00  0.00    +0.016 C 
ATOM      7  C   UNL     1      35.327 -23.196 -14.547  0.00  0.00    +0.064 C 
BRANCH   7   8
ATOM      8  N   UNL     1      35.759 -23.391 -13.200  0.00  0.00    -0.219 N 
ATOM      9  H   UNL     1      35.624 -22.692 -12.520  0.00  0.00    +0.173 HD
BRANCH   8  10
ATOM     10  S   UNL     1      36.527 -24.880 -12.797  0.00  0.00    +0.056 S 
ATOM     11  O   UNL     1      35.969 -25.359 -11.546  0.00  0.00    -0.154 OA
ATOM     12  O   UNL     1      36.602 -25.751 -13.953  0.00  0.00    -0.154 OA
ATOM     13  C   UNL     1      38.171 -24.301 -12.443  0.00  0.00    +0.200 C 
ENDBRANCH   8  10
ENDBRANCH   7   8
ENDBRANCH   1   2
BRANCH   1  14
ATOM     14  O   UNL     1      33.939 -23.892 -19.229  0.00  0.00    -0.380 OA
ATOM     15  H   UNL     1      33.836 -23.778 -20.187  0.00  0.00    +0.211 HD
ENDBRANCH   1  14
BRANCH   1  16
ATOM     16  C   UNL     1      34.956 -21.711 -19.431  0.00  0.00    +0.032 C 
BRANCH  16  17
ATOM     17  C   UNL     1      34.207 -20.628 -20.214  0.00  0.00    -0.020 C 
BRANCH  17  18
ATOM     18  C   UNL     1      35.143 -19.900 -21.180  0.00  0.00    -0.077 C 
BRANCH  18  19
ATOM     19  N   UNL     1      34.422 -18.880 -21.943  0.00  0.00    +0.387 N 
ATOM     20  H   UNL     1      33.560 -19.292 -22.302  0.00  0.00    -0.080 HD
BRANCH  19  21
ATOM     21  C   UNL     1      35.230 -18.430 -23.078  0.00  0.00    -0.077 C 
ATOM     22  C   UNL     1      34.631 -18.891 -24.396  0.00  0.00    -0.025 C 
ENDBRANCH  19  21
BRANCH  19  23
ATOM     23  C   UNL     1      34.066 -17.755 -21.087  0.00  0.00    -0.077 C 
BRANCH  23  24
ATOM     24  C   UNL     1      34.510 -16.440 -21.728  0.00  0.00    -0.023 C 
BRANCH  24  25
ATOM     25  C   UNL     1      34.517 -15.303 -20.703  0.00  0.00    -0.002 C 
BRANCH  25  26
ATOM     26  C   UNL     1      33.235 -14.464 -20.716  0.00  0.00    -0.000 C 
BRANCH  26  27
ATOM     27  C   UNL     1      32.513 -14.476 -22.065  0.00  0.00    -0.000 C 
BRANCH  27  28
ATOM     28  C   UNL     1      32.710 -13.155 -22.810  0.00  0.00    -0.000 C 
ATOM     29  C   UNL     1      33.774 -13.277 -23.889  0.00  0.00    +0.000 C 
ENDBRANCH  27  28
ENDBRANCH  26  27
ENDBRANCH  25  26
ENDBRANCH  24  25
ENDBRANCH  23  24
ENDBRANCH  19  23
ENDBRANCH  18  19
ENDBRANCH  17  18
ENDBRANCH  16  17
ENDBRANCH   1  16
TORSDOF 15
ENDMDL
MODEL 6
REMARK VINA RESULT:      -8.1      1.505      3.769
REMARK  Name = 60753
REMARK  15 active torsions:
REMARK  status: ('A' for Active; 'I' for Inactive)
REMARK    1  A    between atoms: C_1  and  C_2
REMARK    2  A    between atoms: C_1  and  O_14
REMARK    3  A    between atoms: C_1  and  C_16
REMARK    4  A    between atoms: C_7  and  N_8
REMARK    5  A    between atoms: N_8  and  S_10
REMARK    6  A    between atoms: C_16  and  C_17
REMARK    7  A    between atoms: C_17  and  C_18
REMARK    8  A    between atoms: C_18  and  N_19
REMARK    9  A    between atoms: N_19  and  C_21
REMARK   10  A    between atoms: N_19  and  C_23
REMARK   11  A    between atoms: C_23  and  C_24
REMARK   12  A    between atoms: C_24  and  C_25
REMARK   13  A    between atoms: C_25  and  C_26
REMARK   14  A    between atoms: C_26  and  C_27
REMARK   15  A    between atoms: C_27  and  C_28
REMARK                            x       y       z     vdW  Elec       q    Type
REMARK                         _______ _______ _______ _____ _____    ______ ____
ROOT
ATOM      1  C   UNL     1      35.826 -21.875 -19.333  0.00  0.00    +0.133 C 
ENDROOT
BRANCH   1   2
ATOM      2  C   UNL     1      35.461 -20.623 -20.096  0.00  0.00    +0.004 C 
ATOM      3  C   UNL     1      34.123 -20.339 -20.372  0.00  0.00    -0.001 C 
ATOM      4  C   UNL     1      36.462 -19.752 -20.527  0.00  0.00    -0.001 C 
ATOM      5  C   UNL     1      33.787 -19.184 -21.077  0.00  0.00    +0.016 C 
ATOM      6  C   UNL     1      36.125 -18.597 -21.232  0.00  0.00    +0.016 C 
ATOM      7  C   UNL     1      34.787 -18.313 -21.508  0.00  0.00    +0.064 C 
BRANCH   7   8
ATOM      8  N   UNL     1      34.442 -17.131 -22.230  0.00  0.00    -0.219 N 
ATOM      9  H   UNL     1      34.453 -17.118 -23.214  0.00  0.00    +0.173 HD
BRANCH   8  10
ATOM     10  S   UNL     1      34.008 -15.726 -21.333  0.00  0.00    +0.056 S 
ATOM     11  O   UNL     1      32.569 -15.728 -21.144  0.00  0.00    -0.154 OA
ATOM     12  O   UNL     1      34.899 -15.537 -20.205  0.00  0.00    -0.154 OA
ATOM     13  C   UNL     1      34.371 -14.463 -22.532  0.00  0.00    +0.200 C 
ENDBRANCH   8  10
ENDBRANCH   7   8
ENDBRANCH   1   2
BRANCH   1  14
ATOM     14  O   UNL     1      34.616 -22.480 -18.874  0.00  0.00    -0.380 OA
ATOM     15  H   UNL     1      34.754 -22.843 -17.985  0.00  0.00    +0.211 HD
ENDBRANCH   1  14
BRANCH   1  16
ATOM     16  C   UNL     1      36.749 -21.624 -18.131  0.00  0.00    +0.032 C 
BRANCH  16  17
ATOM     17  C   UNL     1      36.278 -22.324 -16.853  0.00  0.00    -0.020 C 
BRANCH  17  18
ATOM     18  C   UNL     1      37.465 -22.737 -15.982  0.00  0.00    -0.077 C 
BRANCH  18  19
ATOM     19  N   UNL     1      37.011 -23.314 -14.715  0.00  0.00    +0.387 N 
ATOM     20  H   UNL     1      37.486 -22.833 -13.950  0.00  0.00    -0.080 HD
BRANCH  19  21
ATOM     21  C   UNL     1      37.354 -24.736 -14.653  0.00  0.00    -0.077 C 
ATOM     22  C   UNL     1      38.535 -24.976 -13.727  0.00  0.00    -0.025 C 
ENDBRANCH  19  21
BRANCH  19  23
ATOM     23  C   UNL     1      35.575 -23.125 -14.549  0.00  0.00    -0.077 C 
BRANCH  23  24
ATOM     24  C   UNL     1      35.053 -23.997 -13.408  0.00  0.00    -0.023 C 
BRANCH  24  25
ATOM     25  C   UNL     1      33.572 -24.329 -13.602  0.00  0.00    -0.002 C 
BRANCH  25  26
ATOM     26  C   UNL     1      32.919 -23.554 -14.751  0.00  0.00    -0.000 C 
BRANCH  26  27
ATOM     27  C   UNL     1      31.605 -22.876 -14.358  0.00  0.00    -0.000 C 
BRANCH  27  28
ATOM     28  C   UNL     1      30.583 -22.951 -15.494  0.00  0.00    -0.000 C 
ATOM     29  C   UNL     1      30.100 -24.376 -15.715  0.00  0.00    +0.000 C 
ENDBRANCH  27  28
ENDBRANCH  26  27
ENDBRANCH  25  26
ENDBRANCH  24  25
ENDBRANCH  23  24
ENDBRANCH  19  23
ENDBRANCH  18  19
ENDBRANCH  17  18
ENDBRANCH  16  17
ENDBRANCH   1  16
TORSDOF 15
ENDMDL
MODEL 7
REMARK VINA RESULT:      -8.0      1.443      2.529
REMARK  Name = 60753
REMARK  15 active torsions:
REMARK  status: ('A' for Active; 'I' for Inactive)
REMARK    1  A    between atoms: C_1  and  C_2
REMARK    2  A    between atoms: C_1  and  O_14
REMARK    3  A    between atoms: C_1  and  C_16
REMARK    4  A    between atoms: C_7  and  N_8
REMARK    5  A    between atoms: N_8  and  S_10
REMARK    6  A    between atoms: C_16  and  C_17
REMARK    7  A    between atoms: C_17  and  C_18
REMARK    8  A    between atoms: C_18  and  N_19
REMARK    9  A    between atoms: N_19  and  C_21
REMARK   10  A    between atoms: N_19  and  C_23
REMARK   11  A    between atoms: C_23  and  C_24
REMARK   12  A    between atoms: C_24  and  C_25
REMARK   13  A    between atoms: C_25  and  C_26
REMARK   14  A    between atoms: C_26  and  C_27
REMARK   15  A    between atoms: C_27  and  C_28
REMARK                            x       y       z     vdW  Elec       q    Type
REMARK                         _______ _______ _______ _____ _____    ______ ____
ROOT
ATOM      1  C   UNL     1      34.155 -22.750 -18.763  0.00  0.00    +0.133 C 
ENDROOT
BRANCH   1   2
ATOM      2  C   UNL     1      34.183 -21.504 -19.618  0.00  0.00    +0.004 C 
ATOM      3  C   UNL     1      35.400 -21.000 -20.077  0.00  0.00    -0.001 C 
ATOM      4  C   UNL     1      32.993 -20.856 -19.946  0.00  0.00    -0.001 C 
ATOM      5  C   UNL     1      35.426 -19.850 -20.865  0.00  0.00    +0.016 C 
ATOM      6  C   UNL     1      33.018 -19.706 -20.733  0.00  0.00    +0.016 C 
ATOM      7  C   UNL     1      34.236 -19.202 -21.193  0.00  0.00    +0.064 C 
BRANCH   7   8
ATOM      8  N   UNL     1      34.262 -18.024 -21.999  0.00  0.00    -0.219 N 
ATOM      9  H   UNL     1      34.333 -18.084 -22.980  0.00  0.00    +0.173 HD
BRANCH   8  10
ATOM     10  S   UNL     1      34.169 -16.495 -21.212  0.00  0.00    +0.056 S 
ATOM     11  O   UNL     1      32.778 -16.226 -20.897  0.00  0.00    -0.154 OA
ATOM     12  O   UNL     1      35.192 -16.375 -20.192  0.00  0.00    -0.154 OA
ATOM     13  C   UNL     1      34.612 -15.420 -22.558  0.00  0.00    +0.200 C 
ENDBRANCH   8  10
ENDBRANCH   7   8
ENDBRANCH   1   2
BRANCH   1  14
ATOM     14  O   UNL     1      34.004 -23.875 -19.630  0.00  0.00    -0.380 OA
ATOM     15  H   UNL     1      34.843 -24.359 -19.680  0.00  0.00    +0.211 HD
ENDBRANCH   1  14
BRANCH   1  16
ATOM     16  C   UNL     1      33.025 -22.763 -17.722  0.00  0.00    +0.032 C 
BRANCH  16  17
ATOM     17  C   UNL     1      33.497 -23.184 -16.327  0.00  0.00    -0.020 C 
BRANCH  17  18
ATOM     18  C   UNL     1      32.314 -23.576 -15.440  0.00  0.00    -0.077 C 
BRANCH  18  19
ATOM     19  N   UNL     1      32.730 -24.506 -14.389  0.00  0.00    +0.387 N 
ATOM     20  H   UNL     1      33.283 -25.251 -14.814  0.00  0.00    -0.080 HD
BRANCH  19  21
ATOM     21  C   UNL     1      31.558 -25.104 -13.748  0.00  0.00    -0.077 C 
ATOM     22  C   UNL     1      30.349 -25.064 -14.667  0.00  0.00    -0.025 C 
ENDBRANCH  19  21
BRANCH  19  23
ATOM     23  C   UNL     1      33.563 -23.827 -13.403  0.00  0.00    -0.077 C 
BRANCH  23  24
ATOM     24  C   UNL     1      34.948 -24.471 -13.343  0.00  0.00    -0.023 C 
BRANCH  24  25
ATOM     25  C   UNL     1      36.037 -23.418 -13.132  0.00  0.00    -0.002 C 
BRANCH  25  26
ATOM     26  C   UNL     1      37.456 -23.957 -13.338  0.00  0.00    -0.000 C 
BRANCH  26  27
ATOM     27  C   UNL     1      37.695 -24.517 -14.742  0.00  0.00    -0.000 C 
BRANCH  27  28
ATOM     28  C   UNL     1      37.982 -26.019 -14.697  0.00  0.00    -0.000 C 
ATOM     29  C   UNL     1      36.855 -26.820 -15.330  0.00  0.00    +0.000 C 
ENDBRANCH  27  28
ENDBRANCH  26  27
ENDBRANCH  25  26
ENDBRANCH  24  25
ENDBRANCH  23  24
ENDBRANCH  19  23
ENDBRANCH  18  19
ENDBRANCH  17  18
ENDBRANCH  16  17
ENDBRANCH   1  16
TORSDOF 15
ENDMDL
MODEL 8
REMARK VINA RESULT:      -8.0      6.118     13.800
REMARK  Name = 60753
REMARK  15 active torsions:
REMARK  status: ('A' for Active; 'I' for Inactive)
REMARK    1  A    between atoms: C_1  and  C_2
REMARK    2  A    between atoms: C_1  and  O_14
REMARK    3  A    between atoms: C_1  and  C_16
REMARK    4  A    between atoms: C_7  and  N_8
REMARK    5  A    between atoms: N_8  and  S_10
REMARK    6  A    between atoms: C_16  and  C_17
REMARK    7  A    between atoms: C_17  and  C_18
REMARK    8  A    between atoms: C_18  and  N_19
REMARK    9  A    between atoms: N_19  and  C_21
REMARK   10  A    between atoms: N_19  and  C_23
REMARK   11  A    between atoms: C_23  and  C_24
REMARK   12  A    between atoms: C_24  and  C_25
REMARK   13  A    between atoms: C_25  and  C_26
REMARK   14  A    between atoms: C_26  and  C_27
REMARK   15  A    between atoms: C_27  and  C_28
REMARK                            x       y       z     vdW  Elec       q    Type
REMARK                         _______ _______ _______ _____ _____    ______ ____
ROOT
ATOM      1  C   UNL     1      33.096 -12.930 -23.416  0.00  0.00    +0.133 C 
ENDROOT
BRANCH   1   2
ATOM      2  C   UNL     1      33.632 -14.177 -22.753  0.00  0.00    +0.004 C 
ATOM      3  C   UNL     1      34.488 -15.027 -23.453  0.00  0.00    -0.001 C 
ATOM      4  C   UNL     1      33.270 -14.480 -21.440  0.00  0.00    -0.001 C 
ATOM      5  C   UNL     1      34.982 -16.179 -22.842  0.00  0.00    +0.016 C 
ATOM      6  C   UNL     1      33.764 -15.632 -20.828  0.00  0.00    +0.016 C 
ATOM      7  C   UNL     1      34.620 -16.482 -21.529  0.00  0.00    +0.064 C 
BRANCH   7   8
ATOM      8  N   UNL     1      35.126 -17.661 -20.903  0.00  0.00    -0.219 N 
ATOM      9  H   UNL     1      35.846 -17.609 -20.233  0.00  0.00    +0.173 HD
BRANCH   8  10
ATOM     10  S   UNL     1      34.444 -19.178 -21.352  0.00  0.00    +0.056 S 
ATOM     11  O   UNL     1      33.128 -19.285 -20.750  0.00  0.00    -0.154 OA
ATOM     12  O   UNL     1      34.631 -19.430 -22.767  0.00  0.00    -0.154 OA
ATOM     13  C   UNL     1      35.514 -20.281 -20.455  0.00  0.00    +0.200 C 
ENDBRANCH   8  10
ENDBRANCH   7   8
ENDBRANCH   1   2
BRANCH   1  14
ATOM     14  O   UNL     1      34.204 -12.205 -23.954  0.00  0.00    -0.380 OA
ATOM     15  H   UNL     1      35.006 -12.747 -23.888  0.00  0.00    +0.211 HD
ENDBRANCH   1  14
BRANCH   1  16
ATOM     16  C   UNL     1      32.309 -12.011 -22.468  0.00  0.00    +0.032 C 
BRANCH  16  17
ATOM     17  C   UNL     1      32.385 -10.533 -22.861  0.00  0.00    -0.020 C 
BRANCH  17  18
ATOM     18  C   UNL     1      31.616  -9.660 -21.870  0.00  0.00    -0.077 C 
BRANCH  18  19
ATOM     19  N   UNL     1      32.479  -9.228 -20.769  0.00  0.00    +0.387 N 
ATOM     20  H   UNL     1      33.280  -9.858 -20.718  0.00  0.00    -0.080 HD
BRANCH  19  21
ATOM     21  C   UNL     1      31.753  -9.296 -19.499  0.00  0.00    -0.077 C 
ATOM     22  C   UNL     1      31.127 -10.666 -19.296  0.00  0.00    -0.025 C 
ENDBRANCH  19  21
BRANCH  19  23
ATOM     23  C   UNL     1      32.976  -7.878 -21.004  0.00  0.00    -0.077 C 
BRANCH  23  24
ATOM     24  C   UNL     1      31.845  -6.861 -20.850  0.00  0.00    -0.023 C 
BRANCH  24  25
ATOM     25  C   UNL     1      31.908  -5.798 -21.949  0.00  0.00    -0.002 C 
BRANCH  25  26
ATOM     26  C   UNL     1      31.020  -6.115 -23.156  0.00  0.00    -0.000 C 
BRANCH  26  27
ATOM     27  C   UNL     1      31.766  -6.815 -24.294  0.00  0.00    -0.000 C 
BRANCH  27  28
ATOM     28  C   UNL     1      33.072  -6.090 -24.626  0.00  0.00    -0.000 C 
ATOM     29  C   UNL     1      34.279  -6.990 -24.410  0.00  0.00    +0.000 C 
ENDBRANCH  27  28
ENDBRANCH  26  27
ENDBRANCH  25  26
ENDBRANCH  24  25
ENDBRANCH  23  24
ENDBRANCH  19  23
ENDBRANCH  18  19
ENDBRANCH  17  18
ENDBRANCH  16  17
ENDBRANCH   1  16
TORSDOF 15
ENDMDL
MODEL 9
REMARK VINA RESULT:      -8.0      5.026      9.451
REMARK  Name = 60753
REMARK  15 active torsions:
REMARK  status: ('A' for Active; 'I' for Inactive)
REMARK    1  A    between atoms: C_1  and  C_2
REMARK    2  A    between atoms: C_1  and  O_14
REMARK    3  A    between atoms: C_1  and  C_16
REMARK    4  A    between atoms: C_7  and  N_8
REMARK    5  A    between atoms: N_8  and  S_10
REMARK    6  A    between atoms: C_16  and  C_17
REMARK    7  A    between atoms: C_17  and  C_18
REMARK    8  A    between atoms: C_18  and  N_19
REMARK    9  A    between atoms: N_19  and  C_21
REMARK   10  A    between atoms: N_19  and  C_23
REMARK   11  A    between atoms: C_23  and  C_24
REMARK   12  A    between atoms: C_24  and  C_25
REMARK   13  A    between atoms: C_25  and  C_26
REMARK   14  A    between atoms: C_26  and  C_27
REMARK   15  A    between atoms: C_27  and  C_28
REMARK                            x       y       z     vdW  Elec       q    Type
REMARK                         _______ _______ _______ _____ _____    ______ ____
ROOT
ATOM      1  C   UNL     1      32.481 -14.104 -21.887  0.00  0.00    +0.133 C 
ENDROOT
BRANCH   1   2
ATOM      2  C   UNL     1      32.218 -12.616 -21.884  0.00  0.00    +0.004 C 
ATOM      3  C   UNL     1      31.595 -12.019 -20.787  0.00  0.00    -0.001 C 
ATOM      4  C   UNL     1      32.596 -11.838 -22.978  0.00  0.00    -0.001 C 
ATOM      5  C   UNL     1      31.351 -10.646 -20.785  0.00  0.00    +0.016 C 
ATOM      6  C   UNL     1      32.353 -10.465 -22.976  0.00  0.00    +0.016 C 
ATOM      7  C   UNL     1      31.730  -9.869 -21.880  0.00  0.00    +0.064 C 
BRANCH   7   8
ATOM      8  N   UNL     1      31.480  -8.463 -21.878  0.00  0.00    -0.219 N 
ATOM      9  H   UNL     1      30.600  -8.105 -22.135  0.00  0.00    +0.173 HD
BRANCH   8  10
ATOM     10  S   UNL     1      32.761  -7.409 -21.413  0.00  0.00    +0.056 S 
ATOM     11  O   UNL     1      32.909  -7.474 -19.971  0.00  0.00    -0.154 OA
ATOM     12  O   UNL     1      33.910  -7.579 -22.280  0.00  0.00    -0.154 OA
ATOM     13  C   UNL     1      32.024  -5.834 -21.788  0.00  0.00    +0.200 C 
ENDBRANCH   8  10
ENDBRANCH   7   8
ENDBRANCH   1   2
BRANCH   1  14
ATOM     14  O   UNL     1      32.713 -14.513 -20.538  0.00  0.00    -0.380 OA
ATOM     15  H   UNL     1      32.018 -15.131 -20.264  0.00  0.00    +0.211 HD
ENDBRANCH   1  14
BRANCH   1  16
ATOM     16  C   UNL     1      33.680 -14.521 -22.751  0.00  0.00    +0.032 C 
BRANCH  16  17
ATOM     17  C   UNL     1      34.372 -15.792 -22.248  0.00  0.00    -0.020 C 
BRANCH  17  18
ATOM     18  C   UNL     1      35.253 -16.407 -23.336  0.00  0.00    -0.077 C 
BRANCH  18  19
ATOM     19  N   UNL     1      35.747 -17.724 -22.930  0.00  0.00    +0.387 N 
ATOM     20  H   UNL     1      36.766 -17.718 -22.980  0.00  0.00    -0.080 HD
BRANCH  19  21
ATOM     21  C   UNL     1      35.243 -18.756 -23.839  0.00  0.00    -0.077 C 
ATOM     22  C   UNL     1      34.467 -18.142 -24.992  0.00  0.00    -0.025 C 
ENDBRANCH  19  21
BRANCH  19  23
ATOM     23  C   UNL     1      35.359 -18.017 -21.556  0.00  0.00    -0.077 C 
BRANCH  23  24
ATOM     24  C   UNL     1      36.289 -19.070 -20.954  0.00  0.00    -0.023 C 
BRANCH  24  25
ATOM     25  C   UNL     1      35.517 -20.336 -20.577  0.00  0.00    -0.002 C 
BRANCH  25  26
ATOM     26  C   UNL     1      33.999 -20.135 -20.539  0.00  0.00    -0.000 C 
BRANCH  26  27
ATOM     27  C   UNL     1      33.270 -21.164 -19.672  0.00  0.00    -0.000 C 
BRANCH  27  28
ATOM     28  C   UNL     1      34.257 -22.132 -19.016  0.00  0.00    -0.000 C 
ATOM     29  C   UNL     1      33.550 -23.101 -18.082  0.00  0.00    +0.000 C 
ENDBRANCH  27  28
ENDBRANCH  26  27
ENDBRANCH  25  26
ENDBRANCH  24  25
ENDBRANCH  23  24
ENDBRANCH  19  23
ENDBRANCH  18  19
ENDBRANCH  17  18
ENDBRANCH  16  17
ENDBRANCH   1  16
TORSDOF 15
ENDMDL
