MODEL 1
REMARK VINA RESULT:      -8.8      0.000      0.000
REMARK  Name = 131704251
REMARK  15 active torsions:
REMARK  status: ('A' for Active; 'I' for Inactive)
REMARK    1  A    between atoms: C_1  and  C_4
REMARK    2  A    between atoms: C_1  and  N_13
REMARK    3  A    between atoms: C_1  and  C_24
REMARK    4  A    between atoms: N_3  and  C_6
REMARK    5  A    between atoms: C_6  and  C_9
REMARK    6  A    between atoms: C_9  and  C_11
REMARK    7  A    between atoms: C_14  and  O_16
REMARK    8  A    between atoms: O_16  and  C_17
REMARK    9  A    between atoms: C_17  and  C_18
REMARK   10  A    between atoms: C_24  and  C_25
REMARK   11  A    between atoms: C_25  and  C_26
REMARK   12  A    between atoms: C_26  and  N_27
REMARK   13  A    between atoms: N_27  and  C_30
REMARK   14  A    between atoms: C_30  and  N_31
REMARK   15  A    between atoms: C_30  and  N_35
REMARK                            x       y       z     vdW  Elec       q    Type
REMARK                         _______ _______ _______ _____ _____    ______ ____
ROOT
ATOM      1  C   UNL     1      32.856 -23.694 -14.887  0.00  0.00    +0.151 C 
ENDROOT
BRANCH   1   4
ATOM      2  O   UNL     1      34.244 -24.036 -12.929  0.00  0.00    -0.273 OA
ATOM      3  N   UNL     1      35.231 -24.131 -15.028  0.00  0.00    -0.298 N 
ATOM      4  C   UNL     1      34.167 -23.958 -14.154  0.00  0.00    +0.241 C 
ATOM      5  H   UNL     1      35.066 -24.047 -15.995  0.00  0.00    +0.150 HD
BRANCH   3   6
ATOM      6  C   UNL     1      36.570 -24.429 -14.577  0.00  0.00    +0.132 C 
ATOM      7  C   UNL     1      36.933 -25.885 -14.806  0.00  0.00    +0.029 C 
BRANCH   6   9
ATOM      8  O   UNL     1      38.736 -23.695 -15.356  0.00  0.00    -0.291 OA
ATOM      9  C   UNL     1      37.518 -23.514 -15.335  0.00  0.00    +0.204 C 
BRANCH   9  11
ATOM     10  F   UNL     1      37.306 -22.250 -17.325  0.00  0.00    -0.226 F 
ATOM     11  C   UNL     1      36.897 -22.330 -16.030  0.00  0.00    +0.259 C 
ENDBRANCH   9  11
ENDBRANCH   6   9
ENDBRANCH   3   6
ENDBRANCH   1   4
BRANCH   1  13
ATOM     12  O   UNL     1      31.126 -22.538 -16.915  0.00  0.00    -0.226 OA
ATOM     13  N   UNL     1      33.135 -23.516 -16.291  0.00  0.00    -0.264 N 
ATOM     14  C   UNL     1      32.247 -22.953 -17.186  0.00  0.00    +0.402 C 
ATOM     15  H   UNL     1      34.011 -23.812 -16.629  0.00  0.00    +0.153 HD
BRANCH  14  16
ATOM     16  O   UNL     1      32.805 -22.925 -18.434  0.00  0.00    -0.430 OA
BRANCH  16  17
ATOM     17  C   UNL     1      34.177 -22.520 -18.494  0.00  0.00    +0.237 C 
BRANCH  17  18
ATOM     18  C   UNL     1      34.312 -21.392 -19.475  0.00  0.00    +0.021 C 
ATOM     19  C   UNL     1      33.173 -20.753 -19.965  0.00  0.00    -0.001 C 
ATOM     20  C   UNL     1      35.578 -20.982 -19.896  0.00  0.00    -0.001 C 
ATOM     21  C   UNL     1      33.300 -19.703 -20.876  0.00  0.00    -0.000 C 
ATOM     22  C   UNL     1      35.704 -19.934 -20.807  0.00  0.00    -0.000 C 
ATOM     23  C   UNL     1      34.565 -19.294 -21.297  0.00  0.00    -0.000 C 
ENDBRANCH  17  18
ENDBRANCH  16  17
ENDBRANCH  14  16
ENDBRANCH   1  13
BRANCH   1  24
ATOM     24  C   UNL     1      31.813 -24.792 -14.642  0.00  0.00    +0.027 C 
BRANCH  24  25
ATOM     25  C   UNL     1      30.592 -24.327 -13.837  0.00  0.00    -0.021 C 
BRANCH  25  26
ATOM     26  C   UNL     1      29.313 -24.442 -14.667  0.00  0.00    -0.087 C 
BRANCH  26  27
ATOM     27  N   UNL     1      28.945 -23.141 -15.213  0.00  0.00    +0.362 N 
ATOM     28  H   UNL     1      29.750 -22.756 -15.707  0.00  0.00    -0.090 HD
ATOM     29  H   UNL     1      28.662 -22.549 -14.431  0.00  0.00    -0.090 HD
BRANCH  27  30
ATOM     30  C   UNL     1      27.816 -23.214 -16.142  0.00  0.00    -0.215 C 
BRANCH  30  31
ATOM     31  N   UNL     1      28.241 -23.021 -17.525  0.00  0.00    +0.359 N 
ATOM     32  H   UNL     1      28.690 -23.871 -17.865  0.00  0.00    -0.095 HD
ATOM     33  H   UNL     1      28.901 -22.245 -17.572  0.00  0.00    -0.095 HD
ATOM     34  H   UNL     1      27.428 -22.812 -18.105  0.00  0.00    -0.095 HD
ENDBRANCH  30  31
BRANCH  30  35
ATOM     35  N   UNL     1      26.856 -22.167 -15.804  0.00  0.00    +0.359 N 
ATOM     36  H   UNL     1      26.254 -21.985 -16.607  0.00  0.00    -0.095 HD
ATOM     37  H   UNL     1      27.358 -21.314 -15.555  0.00  0.00    -0.095 HD
ATOM     38  H   UNL     1      26.287 -22.470 -15.014  0.00  0.00    -0.095 HD
ENDBRANCH  30  35
ENDBRANCH  27  30
ENDBRANCH  26  27
ENDBRANCH  25  26
ENDBRANCH  24  25
ENDBRANCH   1  24
TORSDOF 15
ENDMDL
MODEL 2
REMARK VINA RESULT:      -8.7      1.802      2.357
REMARK  Name = 131704251
REMARK  15 active torsions:
REMARK  status: ('A' for Active; 'I' for Inactive)
REMARK    1  A    between atoms: C_1  and  C_4
REMARK    2  A    between atoms: C_1  and  N_13
REMARK    3  A    between atoms: C_1  and  C_24
REMARK    4  A    between atoms: N_3  and  C_6
REMARK    5  A    between atoms: C_6  and  C_9
REMARK    6  A    between atoms: C_9  and  C_11
REMARK    7  A    between atoms: C_14  and  O_16
REMARK    8  A    between atoms: O_16  and  C_17
REMARK    9  A    between atoms: C_17  and  C_18
REMARK   10  A    between atoms: C_24  and  C_25
REMARK   11  A    between atoms: C_25  and  C_26
REMARK   12  A    between atoms: C_26  and  N_27
REMARK   13  A    between atoms: N_27  and  C_30
REMARK   14  A    between atoms: C_30  and  N_31
REMARK   15  A    between atoms: C_30  and  N_35
REMARK                            x       y       z     vdW  Elec       q    Type
REMARK                         _______ _______ _______ _____ _____    ______ ____
ROOT
ATOM      1  C   UNL     1      33.823 -23.272 -15.299  0.00  0.00    +0.151 C 
ENDROOT
BRANCH   1   4
ATOM      2  O   UNL     1      36.105 -23.993 -15.691  0.00  0.00    -0.273 OA
ATOM      3  N   UNL     1      35.443 -23.514 -13.519  0.00  0.00    -0.298 N 
ATOM      4  C   UNL     1      35.242 -23.647 -14.885  0.00  0.00    +0.241 C 
ATOM      5  H   UNL     1      34.686 -23.230 -12.956  0.00  0.00    +0.150 HD
BRANCH   3   6
ATOM      6  C   UNL     1      36.715 -23.775 -12.888  0.00  0.00    +0.132 C 
ATOM      7  C   UNL     1      36.982 -22.821 -11.738  0.00  0.00    +0.029 C 
BRANCH   6   9
ATOM      8  O   UNL     1      36.067 -25.560 -11.394  0.00  0.00    -0.291 OA
ATOM      9  C   UNL     1      36.692 -25.214 -12.397  0.00  0.00    +0.204 C 
BRANCH   9  11
ATOM     10  F   UNL     1      38.846 -26.033 -12.938  0.00  0.00    -0.226 F 
ATOM     11  C   UNL     1      37.517 -26.204 -13.177  0.00  0.00    +0.259 C 
ENDBRANCH   9  11
ENDBRANCH   6   9
ENDBRANCH   3   6
ENDBRANCH   1   4
BRANCH   1  13
ATOM     12  O   UNL     1      31.530 -22.602 -16.952  0.00  0.00    -0.226 OA
ATOM     13  N   UNL     1      33.775 -23.148 -16.735  0.00  0.00    -0.264 N 
ATOM     14  C   UNL     1      32.633 -22.824 -17.440  0.00  0.00    +0.402 C 
ATOM     15  H   UNL     1      34.605 -23.303 -17.241  0.00  0.00    +0.153 HD
BRANCH  14  16
ATOM     16  O   UNL     1      32.912 -22.785 -18.778  0.00  0.00    -0.430 OA
BRANCH  16  17
ATOM     17  C   UNL     1      34.275 -22.514 -19.123  0.00  0.00    +0.237 C 
BRANCH  17  18
ATOM     18  C   UNL     1      34.341 -21.218 -19.877  0.00  0.00    +0.021 C 
ATOM     19  C   UNL     1      33.166 -20.548 -20.217  0.00  0.00    -0.001 C 
ATOM     20  C   UNL     1      35.578 -20.684 -20.238  0.00  0.00    -0.001 C 
ATOM     21  C   UNL     1      33.228 -19.343 -20.918  0.00  0.00    -0.000 C 
ATOM     22  C   UNL     1      35.641 -19.480 -20.940  0.00  0.00    -0.000 C 
ATOM     23  C   UNL     1      34.465 -18.809 -21.280  0.00  0.00    -0.000 C 
ENDBRANCH  17  18
ENDBRANCH  16  17
ENDBRANCH  14  16
ENDBRANCH   1  13
BRANCH   1  24
ATOM     24  C   UNL     1      32.775 -24.260 -14.770  0.00  0.00    +0.027 C 
BRANCH  24  25
ATOM     25  C   UNL     1      31.799 -23.652 -13.754  0.00  0.00    -0.021 C 
BRANCH  25  26
ATOM     26  C   UNL     1      30.432 -24.333 -13.833  0.00  0.00    -0.087 C 
BRANCH  26  27
ATOM     27  N   UNL     1      30.033 -24.510 -15.223  0.00  0.00    +0.362 N 
ATOM     28  H   UNL     1      29.925 -25.509 -15.407  0.00  0.00    -0.090 HD
ATOM     29  H   UNL     1      30.760 -24.095 -15.806  0.00  0.00    -0.090 HD
BRANCH  27  30
ATOM     30  C   UNL     1      28.773 -23.838 -15.543  0.00  0.00    -0.215 C 
BRANCH  30  31
ATOM     31  N   UNL     1      28.388 -24.043 -16.936  0.00  0.00    +0.359 N 
ATOM     32  H   UNL     1      28.815 -23.320 -17.517  0.00  0.00    -0.095 HD
ATOM     33  H   UNL     1      27.373 -23.990 -17.019  0.00  0.00    -0.095 HD
ATOM     34  H   UNL     1      28.708 -24.960 -17.246  0.00  0.00    -0.095 HD
ENDBRANCH  30  31
BRANCH  30  35
ATOM     35  N   UNL     1      28.931 -22.404 -15.314  0.00  0.00    +0.359 N 
ATOM     36  H   UNL     1      29.594 -22.023 -15.989  0.00  0.00    -0.095 HD
ATOM     37  H   UNL     1      29.280 -22.248 -14.369  0.00  0.00    -0.095 HD
ATOM     38  H   UNL     1      28.028 -21.941 -15.425  0.00  0.00    -0.095 HD
ENDBRANCH  30  35
ENDBRANCH  27  30
ENDBRANCH  26  27
ENDBRANCH  25  26
ENDBRANCH  24  25
ENDBRANCH   1  24
TORSDOF 15
ENDMDL
MODEL 3
REMARK VINA RESULT:      -8.6      2.312      3.116
REMARK  Name = 131704251
REMARK  15 active torsions:
REMARK  status: ('A' for Active; 'I' for Inactive)
REMARK    1  A    between atoms: C_1  and  C_4
REMARK    2  A    between atoms: C_1  and  N_13
REMARK    3  A    between atoms: C_1  and  C_24
REMARK    4  A    between atoms: N_3  and  C_6
REMARK    5  A    between atoms: C_6  and  C_9
REMARK    6  A    between atoms: C_9  and  C_11
REMARK    7  A    between atoms: C_14  and  O_16
REMARK    8  A    between atoms: O_16  and  C_17
REMARK    9  A    between atoms: C_17  and  C_18
REMARK   10  A    between atoms: C_24  and  C_25
REMARK   11  A    between atoms: C_25  and  C_26
REMARK   12  A    between atoms: C_26  and  N_27
REMARK   13  A    between atoms: N_27  and  C_30
REMARK   14  A    between atoms: C_30  and  N_31
REMARK   15  A    between atoms: C_30  and  N_35
REMARK                            x       y       z     vdW  Elec       q    Type
REMARK                         _______ _______ _______ _____ _____    ______ ____
ROOT
ATOM      1  C   UNL     1      34.942 -23.121 -15.482  0.00  0.00    +0.151 C 
ENDROOT
BRANCH   1   4
ATOM      2  O   UNL     1      35.340 -25.505 -15.677  0.00  0.00    -0.273 OA
ATOM      3  N   UNL     1      36.796 -24.231 -14.395  0.00  0.00    -0.298 N 
ATOM      4  C   UNL     1      35.685 -24.423 -15.203  0.00  0.00    +0.241 C 
ATOM      5  H   UNL     1      36.988 -23.324 -14.064  0.00  0.00    +0.150 HD
BRANCH   3   6
ATOM      6  C   UNL     1      37.683 -25.307 -14.019  0.00  0.00    +0.132 C 
ATOM      7  C   UNL     1      39.088 -25.094 -14.551  0.00  0.00    +0.029 C 
BRANCH   6   9
ATOM      8  O   UNL     1      37.224 -26.337 -11.882  0.00  0.00    -0.291 OA
ATOM      9  C   UNL     1      37.689 -25.379 -12.500  0.00  0.00    +0.204 C 
BRANCH   9  11
ATOM     10  F   UNL     1      37.269 -23.329 -11.394  0.00  0.00    -0.226 F 
ATOM     11  C   UNL     1      38.255 -24.187 -11.773  0.00  0.00    +0.259 C 
ENDBRANCH   9  11
ENDBRANCH   6   9
ENDBRANCH   3   6
ENDBRANCH   1   4
BRANCH   1  13
ATOM     12  O   UNL     1      37.379 -21.736 -16.247  0.00  0.00    -0.226 OA
ATOM     13  N   UNL     1      35.315 -22.645 -16.791  0.00  0.00    -0.264 N 
ATOM     14  C   UNL     1      36.501 -21.993 -17.063  0.00  0.00    +0.402 C 
ATOM     15  H   UNL     1      34.686 -22.795 -17.534  0.00  0.00    +0.153 HD
BRANCH  14  16
ATOM     16  O   UNL     1      36.558 -21.671 -18.390  0.00  0.00    -0.430 OA
BRANCH  16  17
ATOM     17  C   UNL     1      35.493 -22.180 -19.201  0.00  0.00    +0.237 C 
BRANCH  17  18
ATOM     18  C   UNL     1      34.822 -21.036 -19.904  0.00  0.00    +0.021 C 
ATOM     19  C   UNL     1      33.433 -20.912 -19.865  0.00  0.00    -0.001 C 
ATOM     20  C   UNL     1      35.587 -20.098 -20.596  0.00  0.00    -0.001 C 
ATOM     21  C   UNL     1      32.810 -19.847 -20.518  0.00  0.00    -0.000 C 
ATOM     22  C   UNL     1      34.964 -19.034 -21.250  0.00  0.00    -0.000 C 
ATOM     23  C   UNL     1      33.575 -18.909 -21.210  0.00  0.00    -0.000 C 
ENDBRANCH  17  18
ENDBRANCH  16  17
ENDBRANCH  14  16
ENDBRANCH   1  13
BRANCH   1  24
ATOM     24  C   UNL     1      33.422 -23.266 -15.333  0.00  0.00    +0.027 C 
BRANCH  24  25
ATOM     25  C   UNL     1      32.655 -23.206 -16.661  0.00  0.00    -0.021 C 
BRANCH  25  26
ATOM     26  C   UNL     1      31.145 -23.257 -16.424  0.00  0.00    -0.087 C 
BRANCH  26  27
ATOM     27  N   UNL     1      30.836 -24.144 -15.309  0.00  0.00    +0.362 N 
ATOM     28  H   UNL     1      31.271 -23.770 -14.465  0.00  0.00    -0.090 HD
ATOM     29  H   UNL     1      31.199 -25.069 -15.543  0.00  0.00    -0.090 HD
BRANCH  27  30
ATOM     30  C   UNL     1      29.398 -24.281 -15.073  0.00  0.00    -0.215 C 
BRANCH  30  31
ATOM     31  N   UNL     1      29.080 -25.523 -14.375  0.00  0.00    +0.359 N 
ATOM     32  H   UNL     1      29.563 -25.541 -13.476  0.00  0.00    -0.095 HD
ATOM     33  H   UNL     1      29.382 -26.316 -14.940  0.00  0.00    -0.095 HD
ATOM     34  H   UNL     1      28.073 -25.578 -14.221  0.00  0.00    -0.095 HD
ENDBRANCH  30  31
BRANCH  30  35
ATOM     35  N   UNL     1      28.706 -24.285 -16.359  0.00  0.00    +0.359 N 
ATOM     36  H   UNL     1      27.884 -23.683 -16.304  0.00  0.00    -0.095 HD
ATOM     37  H   UNL     1      28.418 -25.236 -16.587  0.00  0.00    -0.095 HD
ATOM     38  H   UNL     1      29.335 -23.937 -17.083  0.00  0.00    -0.095 HD
ENDBRANCH  30  35
ENDBRANCH  27  30
ENDBRANCH  26  27
ENDBRANCH  25  26
ENDBRANCH  24  25
ENDBRANCH   1  24
TORSDOF 15
ENDMDL
MODEL 4
REMARK VINA RESULT:      -8.5      2.612      5.954
REMARK  Name = 131704251
REMARK  15 active torsions:
REMARK  status: ('A' for Active; 'I' for Inactive)
REMARK    1  A    between atoms: C_1  and  C_4
REMARK    2  A    between atoms: C_1  and  N_13
REMARK    3  A    between atoms: C_1  and  C_24
REMARK    4  A    between atoms: N_3  and  C_6
REMARK    5  A    between atoms: C_6  and  C_9
REMARK    6  A    between atoms: C_9  and  C_11
REMARK    7  A    between atoms: C_14  and  O_16
REMARK    8  A    between atoms: O_16  and  C_17
REMARK    9  A    between atoms: C_17  and  C_18
REMARK   10  A    between atoms: C_24  and  C_25
REMARK   11  A    between atoms: C_25  and  C_26
REMARK   12  A    between atoms: C_26  and  N_27
REMARK   13  A    between atoms: N_27  and  C_30
REMARK   14  A    between atoms: C_30  and  N_31
REMARK   15  A    between atoms: C_30  and  N_35
REMARK                            x       y       z     vdW  Elec       q    Type
REMARK                         _______ _______ _______ _____ _____    ______ ____
ROOT
ATOM      1  C   UNL     1      34.329 -24.214 -14.417  0.00  0.00    +0.151 C 
ENDROOT
BRANCH   1   4
ATOM      2  O   UNL     1      32.375 -25.090 -13.279  0.00  0.00    -0.273 OA
ATOM      3  N   UNL     1      32.072 -23.803 -15.187  0.00  0.00    -0.298 N 
ATOM      4  C   UNL     1      32.834 -24.440 -14.217  0.00  0.00    +0.241 C 
ATOM      5  H   UNL     1      32.536 -23.307 -15.900  0.00  0.00    +0.150 HD
BRANCH   3   6
ATOM      6  C   UNL     1      30.629 -23.838 -15.193  0.00  0.00    +0.132 C 
ATOM      7  C   UNL     1      30.042 -23.178 -13.959  0.00  0.00    +0.029 C 
BRANCH   6   9
ATOM      8  O   UNL     1      30.930 -22.479 -17.167  0.00  0.00    -0.291 OA
ATOM      9  C   UNL     1      30.164 -23.127 -16.454  0.00  0.00    +0.204 C 
BRANCH   9  11
ATOM     10  F   UNL     1      28.043 -22.077 -16.400  0.00  0.00    -0.226 F 
ATOM     11  C   UNL     1      28.693 -23.213 -16.771  0.00  0.00    +0.259 C 
ENDBRANCH   9  11
ENDBRANCH   6   9
ENDBRANCH   3   6
ENDBRANCH   1   4
BRANCH   1  13
ATOM     12  O   UNL     1      36.797 -23.764 -15.880  0.00  0.00    -0.226 OA
ATOM     13  N   UNL     1      34.523 -23.402 -15.592  0.00  0.00    -0.264 N 
ATOM     14  C   UNL     1      35.741 -23.246 -16.225  0.00  0.00    +0.402 C 
ATOM     15  H   UNL     1      33.742 -22.934 -15.966  0.00  0.00    +0.153 HD
BRANCH  14  16
ATOM     16  O   UNL     1      35.598 -22.420 -17.304  0.00  0.00    -0.430 OA
BRANCH  16  17
ATOM     17  C   UNL     1      34.423 -22.627 -18.096  0.00  0.00    +0.237 C 
BRANCH  17  18
ATOM     18  C   UNL     1      34.374 -21.590 -19.181  0.00  0.00    +0.021 C 
ATOM     19  C   UNL     1      35.557 -21.124 -19.754  0.00  0.00    -0.001 C 
ATOM     20  C   UNL     1      33.145 -21.094 -19.616  0.00  0.00    -0.001 C 
ATOM     21  C   UNL     1      35.511 -20.161 -20.763  0.00  0.00    -0.000 C 
ATOM     22  C   UNL     1      33.099 -20.130 -20.624  0.00  0.00    -0.000 C 
ATOM     23  C   UNL     1      34.282 -19.664 -21.198  0.00  0.00    -0.000 C 
ENDBRANCH  17  18
ENDBRANCH  16  17
ENDBRANCH  14  16
ENDBRANCH   1  13
BRANCH   1  24
ATOM     24  C   UNL     1      35.002 -23.607 -13.179  0.00  0.00    +0.027 C 
BRANCH  24  25
ATOM     25  C   UNL     1      35.662 -24.640 -12.255  0.00  0.00    -0.021 C 
BRANCH  25  26
ATOM     26  C   UNL     1      36.984 -25.134 -12.843  0.00  0.00    -0.087 C 
BRANCH  26  27
ATOM     27  N   UNL     1      36.906 -26.560 -13.137  0.00  0.00    +0.362 N 
ATOM     28  H   UNL     1      35.931 -26.855 -13.065  0.00  0.00    -0.090 HD
ATOM     29  H   UNL     1      37.499 -27.045 -12.464  0.00  0.00    -0.090 HD
BRANCH  27  30
ATOM     30  C   UNL     1      37.396 -26.891 -14.476  0.00  0.00    -0.215 C 
BRANCH  30  31
ATOM     31  N   UNL     1      38.358 -25.905 -14.960  0.00  0.00    +0.359 N 
ATOM     32  H   UNL     1      38.415 -25.132 -14.296  0.00  0.00    -0.095 HD
ATOM     33  H   UNL     1      38.054 -25.552 -15.867  0.00  0.00    -0.095 HD
ATOM     34  H   UNL     1      39.275 -26.341 -15.053  0.00  0.00    -0.095 HD
ENDBRANCH  30  31
BRANCH  30  35
ATOM     35  N   UNL     1      36.266 -26.924 -15.399  0.00  0.00    +0.359 N 
ATOM     36  H   UNL     1      35.458 -26.479 -14.963  0.00  0.00    -0.095 HD
ATOM     37  H   UNL     1      36.040 -27.893 -15.625  0.00  0.00    -0.095 HD
ATOM     38  H   UNL     1      36.510 -26.424 -16.254  0.00  0.00    -0.095 HD
ENDBRANCH  30  35
ENDBRANCH  27  30
ENDBRANCH  26  27
ENDBRANCH  25  26
ENDBRANCH  24  25
ENDBRANCH   1  24
TORSDOF 15
ENDMDL
MODEL 5
REMARK VINA RESULT:      -8.4      2.705      5.948
REMARK  Name = 131704251
REMARK  15 active torsions:
REMARK  status: ('A' for Active; 'I' for Inactive)
REMARK    1  A    between atoms: C_1  and  C_4
REMARK    2  A    between atoms: C_1  and  N_13
REMARK    3  A    between atoms: C_1  and  C_24
REMARK    4  A    between atoms: N_3  and  C_6
REMARK    5  A    between atoms: C_6  and  C_9
REMARK    6  A    between atoms: C_9  and  C_11
REMARK    7  A    between atoms: C_14  and  O_16
REMARK    8  A    between atoms: O_16  and  C_17
REMARK    9  A    between atoms: C_17  and  C_18
REMARK   10  A    between atoms: C_24  and  C_25
REMARK   11  A    between atoms: C_25  and  C_26
REMARK   12  A    between atoms: C_26  and  N_27
REMARK   13  A    between atoms: N_27  and  C_30
REMARK   14  A    between atoms: C_30  and  N_31
REMARK   15  A    between atoms: C_30  and  N_35
REMARK                            x       y       z     vdW  Elec       q    Type
REMARK                         _______ _______ _______ _____ _____    ______ ____
ROOT
ATOM      1  C   UNL     1      36.582 -22.800 -16.180  0.00  0.00    +0.151 C 
ENDROOT
BRANCH   1   4
ATOM      2  O   UNL     1      38.833 -23.547 -15.676  0.00  0.00    -0.273 OA
ATOM      3  N   UNL     1      37.154 -23.931 -14.120  0.00  0.00    -0.298 N 
ATOM      4  C   UNL     1      37.656 -23.467 -15.327  0.00  0.00    +0.241 C 
ATOM      5  H   UNL     1      36.193 -23.820 -13.934  0.00  0.00    +0.150 HD
BRANCH   3   6
ATOM      6  C   UNL     1      37.983 -24.568 -13.123  0.00  0.00    +0.132 C 
ATOM      7  C   UNL     1      38.067 -23.747 -11.850  0.00  0.00    +0.029 C 
BRANCH   6   9
ATOM      8  O   UNL     1      37.049 -26.291 -11.711  0.00  0.00    -0.291 OA
ATOM      9  C   UNL     1      37.381 -25.936 -12.842  0.00  0.00    +0.204 C 
BRANCH   9  11
ATOM     10  F   UNL     1      38.351 -26.804 -14.819  0.00  0.00    -0.226 F 
ATOM     11  C   UNL     1      37.253 -26.869 -14.018  0.00  0.00    +0.259 C 
ENDBRANCH   9  11
ENDBRANCH   6   9
ENDBRANCH   3   6
ENDBRANCH   1   4
BRANCH   1  13
ATOM     12  O   UNL     1      34.012 -24.100 -16.563  0.00  0.00    -0.226 OA
ATOM     13  N   UNL     1      35.388 -22.646 -15.388  0.00  0.00    -0.264 N 
ATOM     14  C   UNL     1      34.204 -23.309 -15.646  0.00  0.00    +0.402 C 
ATOM     15  H   UNL     1      35.419 -22.034 -14.617  0.00  0.00    +0.153 HD
BRANCH  14  16
ATOM     16  O   UNL     1      33.264 -22.952 -14.720  0.00  0.00    -0.430 OA
BRANCH  16  17
ATOM     17  C   UNL     1      32.525 -24.030 -14.134  0.00  0.00    +0.237 C 
BRANCH  17  18
ATOM     18  C   UNL     1      31.110 -23.983 -14.632  0.00  0.00    +0.021 C 
ATOM     19  C   UNL     1      30.620 -22.823 -15.232  0.00  0.00    -0.001 C 
ATOM     20  C   UNL     1      30.285 -25.099 -14.495  0.00  0.00    -0.001 C 
ATOM     21  C   UNL     1      29.305 -22.780 -15.695  0.00  0.00    -0.000 C 
ATOM     22  C   UNL     1      28.970 -25.056 -14.958  0.00  0.00    -0.000 C 
ATOM     23  C   UNL     1      28.480 -23.896 -15.558  0.00  0.00    -0.000 C 
ENDBRANCH  17  18
ENDBRANCH  16  17
ENDBRANCH  14  16
ENDBRANCH   1  13
BRANCH   1  24
ATOM     24  C   UNL     1      37.051 -21.467 -16.780  0.00  0.00    +0.027 C 
BRANCH  24  25
ATOM     25  C   UNL     1      36.855 -21.361 -18.298  0.00  0.00    -0.021 C 
BRANCH  25  26
ATOM     26  C   UNL     1      35.512 -21.960 -18.720  0.00  0.00    -0.087 C 
BRANCH  26  27
ATOM     27  N   UNL     1      34.884 -21.127 -19.738  0.00  0.00    +0.362 N 
ATOM     28  H   UNL     1      35.382 -21.259 -20.620  0.00  0.00    -0.090 HD
ATOM     29  H   UNL     1      34.932 -20.160 -19.417  0.00  0.00    -0.090 HD
BRANCH  27  30
ATOM     30  C   UNL     1      33.472 -21.453 -19.946  0.00  0.00    -0.215 C 
BRANCH  30  31
ATOM     31  N   UNL     1      32.645 -20.252 -20.024  0.00  0.00    +0.359 N 
ATOM     32  H   UNL     1      32.015 -20.221 -19.222  0.00  0.00    -0.095 HD
ATOM     33  H   UNL     1      32.099 -20.272 -20.885  0.00  0.00    -0.095 HD
ATOM     34  H   UNL     1      33.243 -19.426 -20.019  0.00  0.00    -0.095 HD
ENDBRANCH  30  31
BRANCH  30  35
ATOM     35  N   UNL     1      33.004 -22.264 -18.825  0.00  0.00    +0.359 N 
ATOM     36  H   UNL     1      33.479 -21.970 -17.972  0.00  0.00    -0.095 HD
ATOM     37  H   UNL     1      33.209 -23.246 -19.008  0.00  0.00    -0.095 HD
ATOM     38  H   UNL     1      31.998 -22.140 -18.714  0.00  0.00    -0.095 HD
ENDBRANCH  30  35
ENDBRANCH  27  30
ENDBRANCH  26  27
ENDBRANCH  25  26
ENDBRANCH  24  25
ENDBRANCH   1  24
TORSDOF 15
ENDMDL
MODEL 6
REMARK VINA RESULT:      -8.3      2.264      2.938
REMARK  Name = 131704251
REMARK  15 active torsions:
REMARK  status: ('A' for Active; 'I' for Inactive)
REMARK    1  A    between atoms: C_1  and  C_4
REMARK    2  A    between atoms: C_1  and  N_13
REMARK    3  A    between atoms: C_1  and  C_24
REMARK    4  A    between atoms: N_3  and  C_6
REMARK    5  A    between atoms: C_6  and  C_9
REMARK    6  A    between atoms: C_9  and  C_11
REMARK    7  A    between atoms: C_14  and  O_16
REMARK    8  A    between atoms: O_16  and  C_17
REMARK    9  A    between atoms: C_17  and  C_18
REMARK   10  A    between atoms: C_24  and  C_25
REMARK   11  A    between atoms: C_25  and  C_26
REMARK   12  A    between atoms: C_26  and  N_27
REMARK   13  A    between atoms: N_27  and  C_30
REMARK   14  A    between atoms: C_30  and  N_31
REMARK   15  A    between atoms: C_30  and  N_35
REMARK                            x       y       z     vdW  Elec       q    Type
REMARK                         _______ _______ _______ _____ _____    ______ ____
ROOT
ATOM      1  C   UNL     1      34.994 -23.260 -15.367  0.00  0.00    +0.151 C 
ENDROOT
BRANCH   1   4
ATOM      2  O   UNL     1      36.036 -25.448 -15.443  0.00  0.00    -0.273 OA
ATOM      3  N   UNL     1      36.863 -23.869 -13.957  0.00  0.00    -0.298 N 
ATOM      4  C   UNL     1      35.997 -24.327 -14.939  0.00  0.00    +0.241 C 
ATOM      5  H   UNL     1      36.749 -22.952 -13.617  0.00  0.00    +0.150 HD
BRANCH   3   6
ATOM      6  C   UNL     1      37.926 -24.681 -13.413  0.00  0.00    +0.132 C 
ATOM      7  C   UNL     1      37.420 -26.028 -12.934  0.00  0.00    +0.029 C 
BRANCH   6   9
ATOM      8  O   UNL     1      39.241 -23.963 -15.309  0.00  0.00    -0.291 OA
ATOM      9  C   UNL     1      38.967 -24.857 -14.507  0.00  0.00    +0.204 C 
BRANCH   9  11
ATOM     10  F   UNL     1      40.840 -26.208 -13.990  0.00  0.00    -0.226 F 
ATOM     11  C   UNL     1      39.624 -26.210 -14.600  0.00  0.00    +0.259 C 
ENDBRANCH   9  11
ENDBRANCH   6   9
ENDBRANCH   3   6
ENDBRANCH   1   4
BRANCH   1  13
ATOM     12  O   UNL     1      37.215 -21.600 -16.233  0.00  0.00    -0.226 OA
ATOM     13  N   UNL     1      35.310 -22.836 -16.708  0.00  0.00    -0.264 N 
ATOM     14  C   UNL     1      36.394 -22.043 -17.028  0.00  0.00    +0.402 C 
ATOM     15  H   UNL     1      34.719 -23.132 -17.438  0.00  0.00    +0.153 HD
BRANCH  14  16
ATOM     16  O   UNL     1      36.420 -21.818 -18.376  0.00  0.00    -0.430 OA
BRANCH  16  17
ATOM     17  C   UNL     1      35.251 -22.221 -19.098  0.00  0.00    +0.237 C 
BRANCH  17  18
ATOM     18  C   UNL     1      34.721 -21.048 -19.869  0.00  0.00    +0.021 C 
ATOM     19  C   UNL     1      35.602 -20.193 -20.531  0.00  0.00    -0.001 C 
ATOM     20  C   UNL     1      33.347 -20.812 -19.923  0.00  0.00    -0.001 C 
ATOM     21  C   UNL     1      35.109 -19.102 -21.248  0.00  0.00    -0.000 C 
ATOM     22  C   UNL     1      32.854 -19.721 -20.640  0.00  0.00    -0.000 C 
ATOM     23  C   UNL     1      33.735 -18.866 -21.302  0.00  0.00    -0.000 C 
ENDBRANCH  17  18
ENDBRANCH  16  17
ENDBRANCH  14  16
ENDBRANCH   1  13
BRANCH   1  24
ATOM     24  C   UNL     1      33.540 -23.734 -15.240  0.00  0.00    +0.027 C 
BRANCH  24  25
ATOM     25  C   UNL     1      32.604 -23.179 -16.322  0.00  0.00    -0.021 C 
BRANCH  25  26
ATOM     26  C   UNL     1      31.218 -22.884 -15.749  0.00  0.00    -0.087 C 
BRANCH  26  27
ATOM     27  N   UNL     1      30.242 -22.753 -16.824  0.00  0.00    +0.362 N 
ATOM     28  H   UNL     1      30.388 -23.512 -17.491  0.00  0.00    -0.090 HD
ATOM     29  H   UNL     1      30.380 -21.839 -17.255  0.00  0.00    -0.090 HD
BRANCH  27  30
ATOM     30  C   UNL     1      28.859 -22.811 -16.347  0.00  0.00    -0.215 C 
BRANCH  30  31
ATOM     31  N   UNL     1      28.635 -23.962 -15.476  0.00  0.00    +0.359 N 
ATOM     32  H   UNL     1      28.030 -23.689 -14.701  0.00  0.00    -0.095 HD
ATOM     33  H   UNL     1      29.529 -24.290 -15.111  0.00  0.00    -0.095 HD
ATOM     34  H   UNL     1      28.189 -24.709 -16.008  0.00  0.00    -0.095 HD
ENDBRANCH  30  31
BRANCH  30  35
ATOM     35  N   UNL     1      27.966 -22.921 -17.496  0.00  0.00    +0.359 N 
ATOM     36  H   UNL     1      27.632 -21.993 -17.757  0.00  0.00    -0.095 HD
ATOM     37  H   UNL     1      27.172 -23.513 -17.254  0.00  0.00    -0.095 HD
ATOM     38  H   UNL     1      28.472 -23.333 -18.281  0.00  0.00    -0.095 HD
ENDBRANCH  30  35
ENDBRANCH  27  30
ENDBRANCH  26  27
ENDBRANCH  25  26
ENDBRANCH  24  25
ENDBRANCH   1  24
TORSDOF 15
ENDMDL
MODEL 7
REMARK VINA RESULT:      -8.2      8.809     12.078
REMARK  Name = 131704251
REMARK  15 active torsions:
REMARK  status: ('A' for Active; 'I' for Inactive)
REMARK    1  A    between atoms: C_1  and  C_4
REMARK    2  A    between atoms: C_1  and  N_13
REMARK    3  A    between atoms: C_1  and  C_24
REMARK    4  A    between atoms: N_3  and  C_6
REMARK    5  A    between atoms: C_6  and  C_9
REMARK    6  A    between atoms: C_9  and  C_11
REMARK    7  A    between atoms: C_14  and  O_16
REMARK    8  A    between atoms: O_16  and  C_17
REMARK    9  A    between atoms: C_17  and  C_18
REMARK   10  A    between atoms: C_24  and  C_25
REMARK   11  A    between atoms: C_25  and  C_26
REMARK   12  A    between atoms: C_26  and  N_27
REMARK   13  A    between atoms: N_27  and  C_30
REMARK   14  A    between atoms: C_30  and  N_31
REMARK   15  A    between atoms: C_30  and  N_35
REMARK                            x       y       z     vdW  Elec       q    Type
REMARK                         _______ _______ _______ _____ _____    ______ ____
ROOT
ATOM      1  C   UNL     1      32.953 -14.739 -22.210  0.00  0.00    +0.151 C 
ENDROOT
BRANCH   1   4
ATOM      2  O   UNL     1      34.612 -14.719 -23.978  0.00  0.00    -0.273 OA
ATOM      3  N   UNL     1      33.449 -12.764 -23.516  0.00  0.00    -0.298 N 
ATOM      4  C   UNL     1      33.778 -14.098 -23.321  0.00  0.00    +0.241 C 
ATOM      5  H   UNL     1      32.766 -12.357 -22.935  0.00  0.00    +0.150 HD
BRANCH   3   6
ATOM      6  C   UNL     1      34.066 -11.949 -24.535  0.00  0.00    +0.132 C 
ATOM      7  C   UNL     1      33.457 -12.197 -25.903  0.00  0.00    +0.029 C 
BRANCH   6   9
ATOM      8  O   UNL     1      32.859 -10.082 -23.590  0.00  0.00    -0.291 OA
ATOM      9  C   UNL     1      33.888 -10.496 -24.124  0.00  0.00    +0.204 C 
BRANCH   9  11
ATOM     10  F   UNL     1      35.886 -10.125 -25.337  0.00  0.00    -0.226 F 
ATOM     11  C   UNL     1      35.025  -9.561 -24.447  0.00  0.00    +0.259 C 
ENDBRANCH   9  11
ENDBRANCH   6   9
ENDBRANCH   3   6
ENDBRANCH   1   4
BRANCH   1  13
ATOM     12  O   UNL     1      35.073 -15.065 -20.251  0.00  0.00    -0.226 OA
ATOM     13  N   UNL     1      33.596 -15.962 -21.800  0.00  0.00    -0.264 N 
ATOM     14  C   UNL     1      34.602 -16.022 -20.855  0.00  0.00    +0.402 C 
ATOM     15  H   UNL     1      33.300 -16.804 -22.217  0.00  0.00    +0.153 HD
BRANCH  14  16
ATOM     16  O   UNL     1      35.002 -17.318 -20.687  0.00  0.00    -0.430 OA
BRANCH  16  17
ATOM     17  C   UNL     1      34.250 -18.301 -21.409  0.00  0.00    +0.237 C 
BRANCH  17  18
ATOM     18  C   UNL     1      34.366 -19.621 -20.705  0.00  0.00    +0.021 C 
ATOM     19  C   UNL     1      33.217 -20.293 -20.288  0.00  0.00    -0.001 C 
ATOM     20  C   UNL     1      35.623 -20.178 -20.469  0.00  0.00    -0.001 C 
ATOM     21  C   UNL     1      33.326 -21.521 -19.634  0.00  0.00    -0.000 C 
ATOM     22  C   UNL     1      35.732 -21.405 -19.815  0.00  0.00    -0.000 C 
ATOM     23  C   UNL     1      34.583 -22.077 -19.398  0.00  0.00    -0.000 C 
ENDBRANCH  17  18
ENDBRANCH  16  17
ENDBRANCH  14  16
ENDBRANCH   1  13
BRANCH   1  24
ATOM     24  C   UNL     1      32.716 -13.789 -21.029  0.00  0.00    +0.027 C 
BRANCH  24  25
ATOM     25  C   UNL     1      31.587 -12.774 -21.259  0.00  0.00    -0.021 C 
BRANCH  25  26
ATOM     26  C   UNL     1      31.723 -11.580 -20.314  0.00  0.00    -0.087 C 
BRANCH  26  27
ATOM     27  N   UNL     1      31.532 -10.332 -21.044  0.00  0.00    +0.362 N 
ATOM     28  H   UNL     1      30.547 -10.254 -21.303  0.00  0.00    -0.090 HD
ATOM     29  H   UNL     1      32.138 -10.360 -21.864  0.00  0.00    -0.090 HD
BRANCH  27  30
ATOM     30  C   UNL     1      31.904  -9.153 -20.260  0.00  0.00    -0.215 C 
BRANCH  30  31
ATOM     31  N   UNL     1      32.792  -8.266 -21.005  0.00  0.00    +0.359 N 
ATOM     32  H   UNL     1      33.705  -8.709 -21.110  0.00  0.00    -0.095 HD
ATOM     33  H   UNL     1      32.897  -7.388 -20.498  0.00  0.00    -0.095 HD
ATOM     34  H   UNL     1      32.395  -8.082 -21.926  0.00  0.00    -0.095 HD
ENDBRANCH  30  31
BRANCH  30  35
ATOM     35  N   UNL     1      32.595  -9.588 -19.050  0.00  0.00    +0.359 N 
ATOM     36  H   UNL     1      32.010 -10.254 -18.545  0.00  0.00    -0.095 HD
ATOM     37  H   UNL     1      32.781  -8.781 -18.456  0.00  0.00    -0.095 HD
ATOM     38  H   UNL     1      33.476 -10.034 -19.304  0.00  0.00    -0.095 HD
ENDBRANCH  30  35
ENDBRANCH  27  30
ENDBRANCH  26  27
ENDBRANCH  25  26
ENDBRANCH  24  25
ENDBRANCH   1  24
TORSDOF 15
ENDMDL
MODEL 8
REMARK VINA RESULT:      -8.1      8.891     12.467
REMARK  Name = 131704251
REMARK  15 active torsions:
REMARK  status: ('A' for Active; 'I' for Inactive)
REMARK    1  A    between atoms: C_1  and  C_4
REMARK    2  A    between atoms: C_1  and  N_13
REMARK    3  A    between atoms: C_1  and  C_24
REMARK    4  A    between atoms: N_3  and  C_6
REMARK    5  A    between atoms: C_6  and  C_9
REMARK    6  A    between atoms: C_9  and  C_11
REMARK    7  A    between atoms: C_14  and  O_16
REMARK    8  A    between atoms: O_16  and  C_17
REMARK    9  A    between atoms: C_17  and  C_18
REMARK   10  A    between atoms: C_24  and  C_25
REMARK   11  A    between atoms: C_25  and  C_26
REMARK   12  A    between atoms: C_26  and  N_27
REMARK   13  A    between atoms: N_27  and  C_30
REMARK   14  A    between atoms: C_30  and  N_31
REMARK   15  A    between atoms: C_30  and  N_35
REMARK                            x       y       z     vdW  Elec       q    Type
REMARK                         _______ _______ _______ _____ _____    ______ ____
ROOT
ATOM      1  C   UNL     1      34.005 -14.629 -23.022  0.00  0.00    +0.151 C 
ENDROOT
BRANCH   1   4
ATOM      2  O   UNL     1      31.872 -14.785 -21.879  0.00  0.00    -0.273 OA
ATOM      3  N   UNL     1      32.782 -12.684 -22.263  0.00  0.00    -0.298 N 
ATOM      4  C   UNL     1      32.763 -14.070 -22.336  0.00  0.00    +0.241 C 
ATOM      5  H   UNL     1      33.542 -12.202 -22.662  0.00  0.00    +0.150 HD
BRANCH   3   6
ATOM      6  C   UNL     1      31.734 -11.921 -21.626  0.00  0.00    +0.132 C 
ATOM      7  C   UNL     1      31.802 -12.021 -20.114  0.00  0.00    +0.029 C 
BRANCH   6   9
ATOM      8  O   UNL     1      32.082 -10.169 -23.253  0.00  0.00    -0.291 OA
ATOM      9  C   UNL     1      31.888 -10.477 -22.077  0.00  0.00    +0.204 C 
BRANCH   9  11
ATOM     10  F   UNL     1      32.788  -8.473 -21.196  0.00  0.00    -0.226 F 
ATOM     11  C   UNL     1      31.840  -9.428 -20.997  0.00  0.00    +0.259 C 
ENDBRANCH   9  11
ENDBRANCH   6   9
ENDBRANCH   3   6
ENDBRANCH   1   4
BRANCH   1  13
ATOM     12  O   UNL     1      34.955 -14.881 -20.288  0.00  0.00    -0.226 OA
ATOM     13  N   UNL     1      34.414 -15.829 -22.335  0.00  0.00    -0.264 N 
ATOM     14  C   UNL     1      34.854 -15.854 -21.027  0.00  0.00    +0.402 C 
ATOM     15  H   UNL     1      34.376 -16.680 -22.829  0.00  0.00    +0.153 HD
BRANCH  14  16
ATOM     16  O   UNL     1      35.166 -17.136 -20.668  0.00  0.00    -0.430 OA
BRANCH  16  17
ATOM     17  C   UNL     1      34.792 -18.153 -21.604  0.00  0.00    +0.237 C 
BRANCH  17  18
ATOM     18  C   UNL     1      34.548 -19.435 -20.863  0.00  0.00    +0.021 C 
ATOM     19  C   UNL     1      35.626 -20.218 -20.449  0.00  0.00    -0.001 C 
ATOM     20  C   UNL     1      33.243 -19.843 -20.588  0.00  0.00    -0.001 C 
ATOM     21  C   UNL     1      35.398 -21.410 -19.759  0.00  0.00    -0.000 C 
ATOM     22  C   UNL     1      33.015 -21.035 -19.899  0.00  0.00    -0.000 C 
ATOM     23  C   UNL     1      34.093 -21.818 -19.485  0.00  0.00    -0.000 C 
ENDBRANCH  17  18
ENDBRANCH  16  17
ENDBRANCH  14  16
ENDBRANCH   1  13
BRANCH   1  24
ATOM     24  C   UNL     1      33.792 -14.868 -24.523  0.00  0.00    +0.027 C 
BRANCH  24  25
ATOM     25  C   UNL     1      32.830 -13.872 -25.185  0.00  0.00    -0.021 C 
BRANCH  25  26
ATOM     26  C   UNL     1      33.583 -12.919 -26.114  0.00  0.00    -0.087 C 
BRANCH  26  27
ATOM     27  N   UNL     1      33.561 -11.564 -25.578  0.00  0.00    +0.362 N 
ATOM     28  H   UNL     1      32.968 -11.552 -24.747  0.00  0.00    -0.090 HD
ATOM     29  H   UNL     1      33.202 -10.950 -26.309  0.00  0.00    -0.090 HD
BRANCH  27  30
ATOM     30  C   UNL     1      34.892 -11.078 -25.208  0.00  0.00    -0.215 C 
BRANCH  30  31
ATOM     31  N   UNL     1      34.828 -10.085 -24.140  0.00  0.00    +0.359 N 
ATOM     32  H   UNL     1      35.644  -9.475 -24.194  0.00  0.00    -0.095 HD
ATOM     33  H   UNL     1      34.817 -10.559 -23.237  0.00  0.00    -0.095 HD
ATOM     34  H   UNL     1      33.980  -9.529 -24.242  0.00  0.00    -0.095 HD
ENDBRANCH  30  31
BRANCH  30  35
ATOM     35  N   UNL     1      35.511 -10.459 -26.377  0.00  0.00    +0.359 N 
ATOM     36  H   UNL     1      34.783 -10.126 -27.010  0.00  0.00    -0.095 HD
ATOM     37  H   UNL     1      36.091 -11.146 -26.858  0.00  0.00    -0.095 HD
ATOM     38  H   UNL     1      36.089  -9.673 -26.079  0.00  0.00    -0.095 HD
ENDBRANCH  30  35
ENDBRANCH  27  30
ENDBRANCH  26  27
ENDBRANCH  25  26
ENDBRANCH  24  25
ENDBRANCH   1  24
TORSDOF 15
ENDMDL
MODEL 9
REMARK VINA RESULT:      -8.0      2.903      5.781
REMARK  Name = 131704251
REMARK  15 active torsions:
REMARK  status: ('A' for Active; 'I' for Inactive)
REMARK    1  A    between atoms: C_1  and  C_4
REMARK    2  A    between atoms: C_1  and  N_13
REMARK    3  A    between atoms: C_1  and  C_24
REMARK    4  A    between atoms: N_3  and  C_6
REMARK    5  A    between atoms: C_6  and  C_9
REMARK    6  A    between atoms: C_9  and  C_11
REMARK    7  A    between atoms: C_14  and  O_16
REMARK    8  A    between atoms: O_16  and  C_17
REMARK    9  A    between atoms: C_17  and  C_18
REMARK   10  A    between atoms: C_24  and  C_25
REMARK   11  A    between atoms: C_25  and  C_26
REMARK   12  A    between atoms: C_26  and  N_27
REMARK   13  A    between atoms: N_27  and  C_30
REMARK   14  A    between atoms: C_30  and  N_31
REMARK   15  A    between atoms: C_30  and  N_35
REMARK                            x       y       z     vdW  Elec       q    Type
REMARK                         _______ _______ _______ _____ _____    ______ ____
ROOT
ATOM      1  C   UNL     1      34.784 -23.973 -15.826  0.00  0.00    +0.151 C 
ENDROOT
BRANCH   1   4
ATOM      2  O   UNL     1      33.975 -23.631 -13.566  0.00  0.00    -0.273 OA
ATOM      3  N   UNL     1      32.452 -23.582 -15.317  0.00  0.00    -0.298 N 
ATOM      4  C   UNL     1      33.717 -23.724 -14.765  0.00  0.00    +0.241 C 
ATOM      5  H   UNL     1      32.349 -23.675 -16.292  0.00  0.00    +0.150 HD
BRANCH   3   6
ATOM      6  C   UNL     1      31.280 -23.303 -14.520  0.00  0.00    +0.132 C 
ATOM      7  C   UNL     1      30.207 -22.591 -15.323  0.00  0.00    +0.029 C 
BRANCH   6   9
ATOM      8  O   UNL     1      31.031 -25.046 -12.866  0.00  0.00    -0.291 OA
ATOM      9  C   UNL     1      30.763 -24.632 -13.994  0.00  0.00    +0.204 C 
BRANCH   9  11
ATOM     10  F   UNL     1      28.620 -25.438 -14.596  0.00  0.00    -0.226 F 
ATOM     11  C   UNL     1      29.935 -25.456 -14.946  0.00  0.00    +0.259 C 
ENDBRANCH   9  11
ENDBRANCH   6   9
ENDBRANCH   3   6
ENDBRANCH   1   4
BRANCH   1  13
ATOM     12  O   UNL     1      33.487 -24.079 -18.423  0.00  0.00    -0.226 OA
ATOM     13  N   UNL     1      34.706 -22.930 -16.818  0.00  0.00    -0.264 N 
ATOM     14  C   UNL     1      34.064 -23.071 -18.032  0.00  0.00    +0.402 C 
ATOM     15  H   UNL     1      35.134 -22.066 -16.616  0.00  0.00    +0.153 HD
BRANCH  14  16
ATOM     16  O   UNL     1      34.166 -21.909 -18.746  0.00  0.00    -0.430 OA
BRANCH  16  17
ATOM     17  C   UNL     1      35.470 -21.598 -19.249  0.00  0.00    +0.237 C 
BRANCH  17  18
ATOM     18  C   UNL     1      35.367 -20.440 -20.197  0.00  0.00    +0.021 C 
ATOM     19  C   UNL     1      34.120 -20.047 -20.686  0.00  0.00    -0.001 C 
ATOM     20  C   UNL     1      36.517 -19.756 -20.591  0.00  0.00    -0.001 C 
ATOM     21  C   UNL     1      34.025 -18.970 -21.568  0.00  0.00    -0.000 C 
ATOM     22  C   UNL     1      36.422 -18.679 -21.472  0.00  0.00    -0.000 C 
ATOM     23  C   UNL     1      35.175 -18.286 -21.961  0.00  0.00    -0.000 C 
ENDBRANCH  17  18
ENDBRANCH  16  17
ENDBRANCH  14  16
ENDBRANCH   1  13
BRANCH   1  24
ATOM     24  C   UNL     1      36.192 -24.094 -15.227  0.00  0.00    +0.027 C 
BRANCH  24  25
ATOM     25  C   UNL     1      36.662 -25.541 -15.022  0.00  0.00    -0.021 C 
BRANCH  25  26
ATOM     26  C   UNL     1      36.985 -25.809 -13.552  0.00  0.00    -0.087 C 
BRANCH  26  27
ATOM     27  N   UNL     1      37.689 -24.672 -12.972  0.00  0.00    +0.362 N 
ATOM     28  H   UNL     1      37.643 -23.891 -13.628  0.00  0.00    -0.090 HD
ATOM     29  H   UNL     1      38.651 -24.963 -12.797  0.00  0.00    -0.090 HD
BRANCH  27  30
ATOM     30  C   UNL     1      37.119 -24.243 -11.694  0.00  0.00    -0.215 C 
BRANCH  30  31
ATOM     31  N   UNL     1      35.750 -24.720 -11.524  0.00  0.00    +0.359 N 
ATOM     32  H   UNL     1      35.603 -24.994 -10.553  0.00  0.00    -0.095 HD
ATOM     33  H   UNL     1      35.594 -25.525 -12.131  0.00  0.00    -0.095 HD
ATOM     34  H   UNL     1      35.097 -23.976 -11.770  0.00  0.00    -0.095 HD
ENDBRANCH  30  31
BRANCH  30  35
ATOM     35  N   UNL     1      37.108 -22.783 -11.648  0.00  0.00    +0.359 N 
ATOM     36  H   UNL     1      38.007 -22.426 -11.970  0.00  0.00    -0.095 HD
ATOM     37  H   UNL     1      36.943 -22.475 -10.690  0.00  0.00    -0.095 HD
ATOM     38  H   UNL     1      36.365 -22.430 -12.251  0.00  0.00    -0.095 HD
ENDBRANCH  30  35
ENDBRANCH  27  30
ENDBRANCH  26  27
ENDBRANCH  25  26
ENDBRANCH  24  25
ENDBRANCH   1  24
TORSDOF 15
ENDMDL
