MODEL 1
REMARK VINA RESULT:      -8.5      0.000      0.000
REMARK  Name = 34042
REMARK  5 active torsions:
REMARK  status: ('A' for Active; 'I' for Inactive)
REMARK    1  A    between atoms: C_1  and  C_4
REMARK    2  A    between atoms: C_1  and  C_11
REMARK    3  A    between atoms: C_11  and  C_12
REMARK    4  A    between atoms: C_12  and  N_14
REMARK    5  A    between atoms: N_14  and  N_16
REMARK                            x       y       z     vdW  Elec       q    Type
REMARK                         _______ _______ _______ _____ _____    ______ ____
ROOT
ATOM      1  C   UNL     1      34.202 -18.940 -21.679  0.00  0.00    +0.028 C 
ENDROOT
BRANCH   1   4
ATOM      2  O   UNL     1      32.541 -22.329 -18.495  0.00  0.00    -0.435 OA
ATOM      3  O   UNL     1      34.766 -23.072 -17.946  0.00  0.00    -0.435 OA
ATOM      4  C   UNL     1      34.391 -20.051 -20.677  0.00  0.00    -0.019 C 
ATOM      5  C   UNL     1      33.275 -20.630 -20.087  0.00  0.00    +0.036 C 
ATOM      6  C   UNL     1      35.688 -20.474 -20.367  0.00  0.00    -0.001 C 
ATOM      7  C   UNL     1      33.498 -21.643 -19.177  0.00  0.00    +0.176 C 
ATOM      8  C   UNL     1      34.769 -22.067 -18.863  0.00  0.00    +0.176 C 
ATOM      9  C   UNL     1      35.886 -21.502 -19.442  0.00  0.00    +0.040 C 
ATOM     10  C   UNL     1      33.352 -23.233 -17.718  0.00  0.00    +0.429 C 
ENDBRANCH   1   4
BRANCH   1  11
ATOM     11  C   UNL     1      34.585 -19.328 -23.115  0.00  0.00    +0.022 C 
BRANCH  11  12
ATOM     12  C   UNL     1      35.384 -18.259 -23.885  0.00  0.00    +0.069 C 
ATOM     13  C   UNL     1      34.553 -17.700 -25.040  0.00  0.00    +0.018 C 
BRANCH  12  14
ATOM     14  N   UNL     1      35.786 -17.168 -22.998  0.00  0.00    -0.250 NA
ATOM     15  H   UNL     1      35.304 -17.254 -22.103  0.00  0.00    +0.141 HD
BRANCH  14  16
ATOM     16  N   UNL     1      35.430 -15.936 -23.623  0.00  0.00    -0.270 NA
ATOM     17  H   UNL     1      34.553 -15.596 -23.229  0.00  0.00    +0.137 HD
ATOM     18  H   UNL     1      35.318 -16.085 -24.626  0.00  0.00    +0.137 HD
ENDBRANCH  14  16
ENDBRANCH  12  14
ENDBRANCH  11  12
ENDBRANCH   1  11
TORSDOF 5
ENDMDL
MODEL 2
REMARK VINA RESULT:      -8.3      1.326      2.129
REMARK  Name = 34042
REMARK  5 active torsions:
REMARK  status: ('A' for Active; 'I' for Inactive)
REMARK    1  A    between atoms: C_1  and  C_4
REMARK    2  A    between atoms: C_1  and  C_11
REMARK    3  A    between atoms: C_11  and  C_12
REMARK    4  A    between atoms: C_12  and  N_14
REMARK    5  A    between atoms: N_14  and  N_16
REMARK                            x       y       z     vdW  Elec       q    Type
REMARK                         _______ _______ _______ _____ _____    ______ ____
ROOT
ATOM      1  C   UNL     1      35.839 -18.671 -21.919  0.00  0.00    +0.028 C 
ENDROOT
BRANCH   1   4
ATOM      2  O   UNL     1      35.131 -22.443 -18.814  0.00  0.00    -0.435 OA
ATOM      3  O   UNL     1      32.742 -22.136 -18.801  0.00  0.00    -0.435 OA
ATOM      4  C   UNL     1      34.974 -19.586 -21.090  0.00  0.00    -0.019 C 
ATOM      5  C   UNL     1      35.572 -20.594 -20.345  0.00  0.00    +0.036 C 
ATOM      6  C   UNL     1      33.588 -19.397 -21.092  0.00  0.00    -0.001 C 
ATOM      7  C   UNL     1      34.739 -21.406 -19.603  0.00  0.00    +0.176 C 
ATOM      8  C   UNL     1      33.374 -21.231 -19.596  0.00  0.00    +0.176 C 
ATOM      9  C   UNL     1      32.768 -20.233 -20.331  0.00  0.00    +0.040 C 
ATOM     10  C   UNL     1      33.860 -22.900 -18.309  0.00  0.00    +0.429 C 
ENDBRANCH   1   4
BRANCH   1  11
ATOM     11  C   UNL     1      35.420 -18.587 -23.395  0.00  0.00    +0.022 C 
BRANCH  11  12
ATOM     12  C   UNL     1      34.722 -17.275 -23.798  0.00  0.00    +0.069 C 
ATOM     13  C   UNL     1      34.982 -16.189 -22.754  0.00  0.00    +0.018 C 
BRANCH  12  14
ATOM     14  N   UNL     1      35.186 -16.817 -25.108  0.00  0.00    -0.250 NA
ATOM     15  H   UNL     1      35.788 -16.001 -24.995  0.00  0.00    +0.141 HD
BRANCH  14  16
ATOM     16  N   UNL     1      34.043 -16.471 -25.887  0.00  0.00    -0.270 NA
ATOM     17  H   UNL     1      33.203 -16.835 -25.438  0.00  0.00    +0.137 HD
ATOM     18  H   UNL     1      34.133 -16.876 -26.819  0.00  0.00    +0.137 HD
ENDBRANCH  14  16
ENDBRANCH  12  14
ENDBRANCH  11  12
ENDBRANCH   1  11
TORSDOF 5
ENDMDL
MODEL 3
REMARK VINA RESULT:      -8.3      1.209      1.498
REMARK  Name = 34042
REMARK  5 active torsions:
REMARK  status: ('A' for Active; 'I' for Inactive)
REMARK    1  A    between atoms: C_1  and  C_4
REMARK    2  A    between atoms: C_1  and  C_11
REMARK    3  A    between atoms: C_11  and  C_12
REMARK    4  A    between atoms: C_12  and  N_14
REMARK    5  A    between atoms: N_14  and  N_16
REMARK                            x       y       z     vdW  Elec       q    Type
REMARK                         _______ _______ _______ _____ _____    ______ ____
ROOT
ATOM      1  C   UNL     1      34.362 -19.160 -21.837  0.00  0.00    +0.028 C 
ENDROOT
BRANCH   1   4
ATOM      2  O   UNL     1      32.537 -22.314 -18.506  0.00  0.00    -0.435 OA
ATOM      3  O   UNL     1      34.730 -22.993 -17.775  0.00  0.00    -0.435 OA
ATOM      4  C   UNL     1      34.499 -20.190 -20.745  0.00  0.00    -0.019 C 
ATOM      5  C   UNL     1      33.353 -20.733 -20.177  0.00  0.00    +0.036 C 
ATOM      6  C   UNL     1      35.778 -20.576 -20.330  0.00  0.00    -0.001 C 
ATOM      7  C   UNL     1      33.528 -21.672 -19.181  0.00  0.00    +0.176 C 
ATOM      8  C   UNL     1      34.781 -22.060 -18.764  0.00  0.00    +0.176 C 
ATOM      9  C   UNL     1      35.927 -21.529 -19.319  0.00  0.00    +0.040 C 
ATOM     10  C   UNL     1      33.306 -23.149 -17.617  0.00  0.00    +0.429 C 
ENDBRANCH   1   4
BRANCH   1  11
ATOM     11  C   UNL     1      35.248 -17.921 -21.636  0.00  0.00    +0.022 C 
BRANCH  11  12
ATOM     12  C   UNL     1      34.678 -16.614 -22.219  0.00  0.00    +0.069 C 
ATOM     13  C   UNL     1      34.545 -15.555 -21.124  0.00  0.00    +0.018 C 
BRANCH  12  14
ATOM     14  N   UNL     1      35.532 -16.104 -23.292  0.00  0.00    -0.250 NA
ATOM     15  H   UNL     1      35.358 -15.109 -23.429  0.00  0.00    +0.141 HD
BRANCH  14  16
ATOM     16  N   UNL     1      35.218 -16.819 -24.485  0.00  0.00    -0.270 NA
ATOM     17  H   UNL     1      36.029 -17.362 -24.781  0.00  0.00    +0.137 HD
ATOM     18  H   UNL     1      34.965 -16.159 -25.220  0.00  0.00    +0.137 HD
ENDBRANCH  14  16
ENDBRANCH  12  14
ENDBRANCH  11  12
ENDBRANCH   1  11
TORSDOF 5
ENDMDL
MODEL 4
REMARK VINA RESULT:      -7.9      1.054      1.225
REMARK  Name = 34042
REMARK  5 active torsions:
REMARK  status: ('A' for Active; 'I' for Inactive)
REMARK    1  A    between atoms: C_1  and  C_4
REMARK    2  A    between atoms: C_1  and  C_11
REMARK    3  A    between atoms: C_11  and  C_12
REMARK    4  A    between atoms: C_12  and  N_14
REMARK    5  A    between atoms: N_14  and  N_16
REMARK                            x       y       z     vdW  Elec       q    Type
REMARK                         _______ _______ _______ _____ _____    ______ ____
ROOT
ATOM      1  C   UNL     1      34.419 -18.910 -21.788  0.00  0.00    +0.028 C 
ENDROOT
BRANCH   1   4
ATOM      2  O   UNL     1      32.532 -22.231 -18.661  0.00  0.00    -0.435 OA
ATOM      3  O   UNL     1      34.711 -22.975 -17.953  0.00  0.00    -0.435 OA
ATOM      4  C   UNL     1      34.535 -20.003 -20.757  0.00  0.00    -0.019 C 
ATOM      5  C   UNL     1      33.379 -20.565 -20.231  0.00  0.00    +0.036 C 
ATOM      6  C   UNL     1      35.806 -20.426 -20.354  0.00  0.00    -0.001 C 
ATOM      7  C   UNL     1      33.536 -21.562 -19.290  0.00  0.00    +0.176 C 
ATOM      8  C   UNL     1      34.780 -21.987 -18.885  0.00  0.00    +0.176 C 
ATOM      9  C   UNL     1      35.937 -21.438 -19.400  0.00  0.00    +0.040 C 
ATOM     10  C   UNL     1      33.284 -23.125 -17.816  0.00  0.00    +0.429 C 
ENDBRANCH   1   4
BRANCH   1  11
ATOM     11  C   UNL     1      35.142 -17.610 -21.400  0.00  0.00    +0.022 C 
BRANCH  11  12
ATOM     12  C   UNL     1      35.195 -16.541 -22.507  0.00  0.00    +0.069 C 
ATOM     13  C   UNL     1      34.725 -17.128 -23.838  0.00  0.00    +0.018 C 
BRANCH  12  14
ATOM     14  N   UNL     1      34.365 -15.387 -22.160  0.00  0.00    -0.250 NA
ATOM     15  H   UNL     1      33.380 -15.623 -22.275  0.00  0.00    +0.141 HD
BRANCH  14  16
ATOM     16  N   UNL     1      34.711 -14.315 -23.034  0.00  0.00    -0.270 NA
ATOM     17  H   UNL     1      34.072 -14.305 -23.829  0.00  0.00    +0.137 HD
ATOM     18  H   UNL     1      35.667 -14.443 -23.368  0.00  0.00    +0.137 HD
ENDBRANCH  14  16
ENDBRANCH  12  14
ENDBRANCH  11  12
ENDBRANCH   1  11
TORSDOF 5
ENDMDL
MODEL 5
REMARK VINA RESULT:      -7.9      4.531      7.300
REMARK  Name = 34042
REMARK  5 active torsions:
REMARK  status: ('A' for Active; 'I' for Inactive)
REMARK    1  A    between atoms: C_1  and  C_4
REMARK    2  A    between atoms: C_1  and  C_11
REMARK    3  A    between atoms: C_11  and  C_12
REMARK    4  A    between atoms: C_12  and  N_14
REMARK    5  A    between atoms: N_14  and  N_16
REMARK                            x       y       z     vdW  Elec       q    Type
REMARK                         _______ _______ _______ _____ _____    ______ ____
ROOT
ATOM      1  C   UNL     1      35.563 -18.450 -23.329  0.00  0.00    +0.028 C 
ENDROOT
BRANCH   1   4
ATOM      2  O   UNL     1      33.242 -15.623 -26.645  0.00  0.00    -0.435 OA
ATOM      3  O   UNL     1      33.144 -13.741 -25.145  0.00  0.00    -0.435 OA
ATOM      4  C   UNL     1      34.919 -17.165 -23.785  0.00  0.00    -0.019 C 
ATOM      5  C   UNL     1      34.389 -17.090 -25.068  0.00  0.00    +0.036 C 
ATOM      6  C   UNL     1      34.869 -16.080 -22.904  0.00  0.00    -0.001 C 
ATOM      7  C   UNL     1      33.810 -15.894 -25.439  0.00  0.00    +0.176 C 
ATOM      8  C   UNL     1      33.755 -14.818 -24.582  0.00  0.00    +0.176 C 
ATOM      9  C   UNL     1      34.276 -14.880 -23.306  0.00  0.00    +0.040 C 
ATOM     10  C   UNL     1      32.822 -14.257 -26.451  0.00  0.00    +0.429 C 
ENDBRANCH   1   4
BRANCH   1  11
ATOM     11  C   UNL     1      34.619 -19.374 -22.544  0.00  0.00    +0.022 C 
BRANCH  11  12
ATOM     12  C   UNL     1      34.674 -19.210 -21.014  0.00  0.00    +0.069 C 
ATOM     13  C   UNL     1      34.210 -20.492 -20.323  0.00  0.00    +0.018 C 
BRANCH  12  14
ATOM     14  N   UNL     1      36.029 -18.878 -20.572  0.00  0.00    -0.250 NA
ATOM     15  H   UNL     1      36.603 -18.626 -21.377  0.00  0.00    +0.141 HD
BRANCH  14  16
ATOM     16  N   UNL     1      36.577 -20.026 -19.927  0.00  0.00    -0.270 NA
ATOM     17  H   UNL     1      35.841 -20.716 -19.778  0.00  0.00    +0.137 HD
ATOM     18  H   UNL     1      36.973 -19.753 -19.027  0.00  0.00    +0.137 HD
ENDBRANCH  14  16
ENDBRANCH  12  14
ENDBRANCH  11  12
ENDBRANCH   1  11
TORSDOF 5
ENDMDL
MODEL 6
REMARK VINA RESULT:      -7.7      5.387      7.782
REMARK  Name = 34042
REMARK  5 active torsions:
REMARK  status: ('A' for Active; 'I' for Inactive)
REMARK    1  A    between atoms: C_1  and  C_4
REMARK    2  A    between atoms: C_1  and  C_11
REMARK    3  A    between atoms: C_11  and  C_12
REMARK    4  A    between atoms: C_12  and  N_14
REMARK    5  A    between atoms: N_14  and  N_16
REMARK                            x       y       z     vdW  Elec       q    Type
REMARK                         _______ _______ _______ _____ _____    ______ ____
ROOT
ATOM      1  C   UNL     1      30.731 -23.627 -14.839  0.00  0.00    +0.028 C 
ENDROOT
BRANCH   1   4
ATOM      2  O   UNL     1      33.029 -22.436 -19.042  0.00  0.00    -0.435 OA
ATOM      3  O   UNL     1      35.212 -22.658 -18.048  0.00  0.00    -0.435 OA
ATOM      4  C   UNL     1      31.960 -23.374 -15.674  0.00  0.00    -0.019 C 
ATOM      5  C   UNL     1      31.812 -23.014 -17.008  0.00  0.00    +0.036 C 
ATOM      6  C   UNL     1      33.222 -23.506 -15.084  0.00  0.00    -0.001 C 
ATOM      7  C   UNL     1      32.966 -22.792 -17.731  0.00  0.00    +0.176 C 
ATOM      8  C   UNL     1      34.213 -22.920 -17.163  0.00  0.00    +0.176 C 
ATOM      9  C   UNL     1      34.374 -23.276 -15.840  0.00  0.00    +0.040 C 
ATOM     10  C   UNL     1      34.456 -22.353 -19.236  0.00  0.00    +0.429 C 
ENDBRANCH   1   4
BRANCH   1  11
ATOM     11  C   UNL     1      29.719 -24.578 -15.496  0.00  0.00    +0.022 C 
BRANCH  11  12
ATOM     12  C   UNL     1      28.360 -23.942 -15.843  0.00  0.00    +0.069 C 
ATOM     13  C   UNL     1      28.415 -22.427 -15.646  0.00  0.00    +0.018 C 
BRANCH  12  14
ATOM     14  N   UNL     1      27.981 -24.242 -17.224  0.00  0.00    -0.250 NA
ATOM     15  H   UNL     1      28.781 -24.626 -17.727  0.00  0.00    +0.141 HD
BRANCH  14  16
ATOM     16  N   UNL     1      27.561 -23.027 -17.841  0.00  0.00    -0.270 NA
ATOM     17  H   UNL     1      26.543 -22.968 -17.819  0.00  0.00    +0.137 HD
ATOM     18  H   UNL     1      27.880 -23.009 -18.810  0.00  0.00    +0.137 HD
ENDBRANCH  14  16
ENDBRANCH  12  14
ENDBRANCH  11  12
ENDBRANCH   1  11
TORSDOF 5
ENDMDL
MODEL 7
REMARK VINA RESULT:      -7.6      4.862      7.134
REMARK  Name = 34042
REMARK  5 active torsions:
REMARK  status: ('A' for Active; 'I' for Inactive)
REMARK    1  A    between atoms: C_1  and  C_4
REMARK    2  A    between atoms: C_1  and  C_11
REMARK    3  A    between atoms: C_11  and  C_12
REMARK    4  A    between atoms: C_12  and  N_14
REMARK    5  A    between atoms: N_14  and  N_16
REMARK                            x       y       z     vdW  Elec       q    Type
REMARK                         _______ _______ _______ _____ _____    ______ ____
ROOT
ATOM      1  C   UNL     1      35.044 -17.386 -21.417  0.00  0.00    +0.028 C 
ENDROOT
BRANCH   1   4
ATOM      2  O   UNL     1      33.059 -14.170 -24.595  0.00  0.00    -0.435 OA
ATOM      3  O   UNL     1      33.587 -15.549 -26.499  0.00  0.00    -0.435 OA
ATOM      4  C   UNL     1      34.666 -16.922 -22.800  0.00  0.00    -0.019 C 
ATOM      5  C   UNL     1      34.018 -15.703 -22.954  0.00  0.00    +0.036 C 
ATOM      6  C   UNL     1      34.978 -17.732 -23.897  0.00  0.00    -0.001 C 
ATOM      7  C   UNL     1      33.693 -15.321 -24.240  0.00  0.00    +0.176 C 
ATOM      8  C   UNL     1      33.994 -16.109 -25.327  0.00  0.00    +0.176 C 
ATOM      9  C   UNL     1      34.637 -17.321 -25.189  0.00  0.00    +0.040 C 
ATOM     10  C   UNL     1      32.996 -14.322 -26.027  0.00  0.00    +0.429 C 
ENDBRANCH   1   4
BRANCH   1  11
ATOM     11  C   UNL     1      34.461 -18.757 -21.040  0.00  0.00    +0.022 C 
BRANCH  11  12
ATOM     12  C   UNL     1      35.499 -19.887 -20.900  0.00  0.00    +0.069 C 
ATOM     13  C   UNL     1      36.909 -19.306 -20.791  0.00  0.00    +0.018 C 
BRANCH  12  14
ATOM     14  N   UNL     1      35.217 -20.712 -19.725  0.00  0.00    -0.250 NA
ATOM     15  H   UNL     1      34.536 -20.242 -19.128  0.00  0.00    +0.141 HD
BRANCH  14  16
ATOM     16  N   UNL     1      36.438 -20.899 -19.013  0.00  0.00    -0.270 NA
ATOM     17  H   UNL     1      37.053 -20.103 -19.178  0.00  0.00    +0.137 HD
ATOM     18  H   UNL     1      36.893 -21.753 -19.337  0.00  0.00    +0.137 HD
ENDBRANCH  14  16
ENDBRANCH  12  14
ENDBRANCH  11  12
ENDBRANCH   1  11
TORSDOF 5
ENDMDL
MODEL 8
REMARK VINA RESULT:      -7.5      4.504      6.722
REMARK  Name = 34042
REMARK  5 active torsions:
REMARK  status: ('A' for Active; 'I' for Inactive)
REMARK    1  A    between atoms: C_1  and  C_4
REMARK    2  A    between atoms: C_1  and  C_11
REMARK    3  A    between atoms: C_11  and  C_12
REMARK    4  A    between atoms: C_12  and  N_14
REMARK    5  A    between atoms: N_14  and  N_16
REMARK                            x       y       z     vdW  Elec       q    Type
REMARK                         _______ _______ _______ _____ _____    ______ ____
ROOT
ATOM      1  C   UNL     1      35.618 -22.093 -18.509  0.00  0.00    +0.028 C 
ENDROOT
BRANCH   1   4
ATOM      2  O   UNL     1      36.596 -18.542 -21.798  0.00  0.00    -0.435 OA
ATOM      3  O   UNL     1      34.273 -18.282 -22.380  0.00  0.00    -0.435 OA
ATOM      4  C   UNL     1      35.220 -21.076 -19.548  0.00  0.00    -0.019 C 
ATOM      5  C   UNL     1      36.203 -20.303 -20.154  0.00  0.00    +0.036 C 
ATOM      6  C   UNL     1      33.868 -20.934 -19.877  0.00  0.00    -0.001 C 
ATOM      7  C   UNL     1      35.789 -19.387 -21.099  0.00  0.00    +0.176 C 
ATOM      8  C   UNL     1      34.463 -19.238 -21.431  0.00  0.00    +0.176 C 
ATOM      9  C   UNL     1      33.476 -19.998 -20.837  0.00  0.00    +0.040 C 
ATOM     10  C   UNL     1      35.627 -17.846 -22.608  0.00  0.00    +0.429 C 
ENDBRANCH   1   4
BRANCH   1  11
ATOM     11  C   UNL     1      36.870 -21.704 -17.708  0.00  0.00    +0.022 C 
BRANCH  11  12
ATOM     12  C   UNL     1      36.894 -22.212 -16.254  0.00  0.00    +0.069 C 
ATOM     13  C   UNL     1      35.618 -22.993 -15.940  0.00  0.00    +0.018 C 
BRANCH  12  14
ATOM     14  N   UNL     1      38.061 -23.063 -16.017  0.00  0.00    -0.250 NA
ATOM     15  H   UNL     1      38.504 -23.297 -16.905  0.00  0.00    +0.141 HD
BRANCH  14  16
ATOM     16  N   UNL     1      37.615 -24.253 -15.369  0.00  0.00    -0.270 NA
ATOM     17  H   UNL     1      37.798 -25.056 -15.971  0.00  0.00    +0.137 HD
ATOM     18  H   UNL     1      36.613 -24.186 -15.187  0.00  0.00    +0.137 HD
ENDBRANCH  14  16
ENDBRANCH  12  14
ENDBRANCH  11  12
ENDBRANCH   1  11
TORSDOF 5
ENDMDL
MODEL 9
REMARK VINA RESULT:      -7.3      6.923      8.471
REMARK  Name = 34042
REMARK  5 active torsions:
REMARK  status: ('A' for Active; 'I' for Inactive)
REMARK    1  A    between atoms: C_1  and  C_4
REMARK    2  A    between atoms: C_1  and  C_11
REMARK    3  A    between atoms: C_11  and  C_12
REMARK    4  A    between atoms: C_12  and  N_14
REMARK    5  A    between atoms: N_14  and  N_16
REMARK                            x       y       z     vdW  Elec       q    Type
REMARK                         _______ _______ _______ _____ _____    ______ ____
ROOT
ATOM      1  C   UNL     1      34.508 -24.158 -14.268  0.00  0.00    +0.028 C 
ENDROOT
BRANCH   1   4
ATOM      2  O   UNL     1      29.731 -23.042 -14.823  0.00  0.00    -0.435 OA
ATOM      3  O   UNL     1      30.014 -22.471 -17.146  0.00  0.00    -0.435 OA
ATOM      4  C   UNL     1      33.319 -23.699 -15.074  0.00  0.00    -0.019 C 
ATOM      5  C   UNL     1      32.075 -23.614 -14.460  0.00  0.00    +0.036 C 
ATOM      6  C   UNL     1      33.497 -23.370 -16.421  0.00  0.00    -0.001 C 
ATOM      7  C   UNL     1      31.018 -23.189 -15.238  0.00  0.00    +0.176 C 
ATOM      8  C   UNL     1      31.180 -22.863 -16.565  0.00  0.00    +0.176 C 
ATOM      9  C   UNL     1      32.409 -22.943 -17.186  0.00  0.00    +0.040 C 
ATOM     10  C   UNL     1      29.101 -22.586 -16.038  0.00  0.00    +0.429 C 
ENDBRANCH   1   4
BRANCH   1  11
ATOM     11  C   UNL     1      35.847 -24.030 -15.010  0.00  0.00    +0.022 C 
BRANCH  11  12
ATOM     12  C   UNL     1      36.724 -25.297 -14.991  0.00  0.00    +0.069 C 
ATOM     13  C   UNL     1      37.314 -25.516 -13.597  0.00  0.00    +0.018 C 
BRANCH  12  14
ATOM     14  N   UNL     1      35.949 -26.474 -15.385  0.00  0.00    -0.250 NA
ATOM     15  H   UNL     1      35.696 -27.014 -14.558  0.00  0.00    +0.141 HD
BRANCH  14  16
ATOM     16  N   UNL     1      36.760 -27.266 -16.250  0.00  0.00    -0.270 NA
ATOM     17  H   UNL     1      36.502 -28.248 -16.153  0.00  0.00    +0.137 HD
ATOM     18  H   UNL     1      37.742 -27.147 -16.000  0.00  0.00    +0.137 HD
ENDBRANCH  14  16
ENDBRANCH  12  14
ENDBRANCH  11  12
ENDBRANCH   1  11
TORSDOF 5
ENDMDL
