MODEL 1
REMARK VINA RESULT:      -9.1      0.000      0.000
REMARK  Name = 101544
REMARK  8 active torsions:
REMARK  status: ('A' for Active; 'I' for Inactive)
REMARK    1  A    between atoms: C_2  and  O_18
REMARK    2  A    between atoms: C_3  and  O_16
REMARK    3  A    between atoms: C_4  and  N_7
REMARK    4  A    between atoms: C_5  and  C_25
REMARK    5  A    between atoms: O_18  and  P_19
REMARK    6  A    between atoms: P_19  and  O_21
REMARK    7  A    between atoms: P_19  and  O_23
REMARK    8  A    between atoms: C_25  and  O_26
REMARK                            x       y       z     vdW  Elec       q    Type
REMARK                         _______ _______ _______ _____ _____    ______ ____
ROOT
ATOM      1  O   UNL     1      35.881 -24.121 -13.119  0.00  0.00    -0.332 OA
ATOM      2  C   UNL     1      38.036 -24.913 -13.709  0.00  0.00    +0.203 C 
ATOM      3  C   UNL     1      37.801 -25.197 -12.241  0.00  0.00    +0.172 C 
ATOM      4  C   UNL     1      36.622 -24.681 -14.216  0.00  0.00    +0.237 C 
ATOM      5  C   UNL     1      36.662 -24.242 -11.910  0.00  0.00    +0.176 C 
ENDROOT
BRANCH   4   7
ATOM      6  O   UNL     1      34.429 -24.328 -15.949  0.00  0.00    -0.193 OA
ATOM      7  N   UNL     1      36.578 -23.768 -15.322  0.00  0.00    -0.178 N 
ATOM      8  N   UNL     1      35.464 -22.744 -17.202  0.00  0.00    -0.306 NA
ATOM      9  N   UNL     1      36.530 -21.123 -18.484  0.00  0.00    -0.332 N 
ATOM     10  C   UNL     1      37.692 -22.985 -15.584  0.00  0.00    +0.083 C 
ATOM     11  C   UNL     1      35.435 -23.646 -16.152  0.00  0.00    +0.276 C 
ATOM     12  C   UNL     1      37.740 -22.112 -16.589  0.00  0.00    +0.065 C 
ATOM     13  C   UNL     1      36.522 -22.013 -17.435  0.00  0.00    +0.193 C 
ATOM     14  H   UNL     1      35.737 -21.035 -19.061  0.00  0.00    +0.145 HD
ATOM     15  H   UNL     1      37.328 -20.573 -18.657  0.00  0.00    +0.145 HD
ENDBRANCH   4   7
BRANCH   3  16
ATOM     16  O   UNL     1      37.322 -26.530 -12.065  0.00  0.00    -0.379 OA
ATOM     17  H   UNL     1      37.299 -26.981 -12.924  0.00  0.00    +0.211 HD
ENDBRANCH   3  16
BRANCH   2  18
ATOM     18  O   UNL     1      38.679 -25.985 -14.368  0.00  0.00    -0.269 OA
BRANCH  18  19
ATOM     19  P   UNL     1      40.273 -25.883 -14.639  0.00  0.00    +0.473 P 
ATOM     20  O   UNL     1      41.099 -26.933 -13.955  0.00  0.00    -0.227 OA
BRANCH  19  21
ATOM     21  O   UNL     1      40.633 -24.356 -14.245  0.00  0.00    -0.303 OA
ATOM     22  H   UNL     1      41.052 -24.338 -13.371  0.00  0.00    +0.222 HD
ENDBRANCH  19  21
BRANCH  19  23
ATOM     23  O   UNL     1      40.369 -25.883 -16.253  0.00  0.00    -0.303 OA
ATOM     24  H   UNL     1      41.171 -25.411 -16.530  0.00  0.00    +0.222 HD
ENDBRANCH  19  23
ENDBRANCH  18  19
ENDBRANCH   2  18
BRANCH   5  25
ATOM     25  C   UNL     1      37.139 -22.852 -11.511  0.00  0.00    +0.169 C 
BRANCH  25  26
ATOM     26  O   UNL     1      38.555 -22.823 -11.572  0.00  0.00    -0.379 OA
ATOM     27  H   UNL     1      38.843 -21.999 -11.994  0.00  0.00    +0.211 HD
ENDBRANCH  25  26
ENDBRANCH   5  25
TORSDOF 8
ENDMDL
MODEL 2
REMARK VINA RESULT:      -7.9      3.188      4.996
REMARK  Name = 101544
REMARK  8 active torsions:
REMARK  status: ('A' for Active; 'I' for Inactive)
REMARK    1  A    between atoms: C_2  and  O_18
REMARK    2  A    between atoms: C_3  and  O_16
REMARK    3  A    between atoms: C_4  and  N_7
REMARK    4  A    between atoms: C_5  and  C_25
REMARK    5  A    between atoms: O_18  and  P_19
REMARK    6  A    between atoms: P_19  and  O_21
REMARK    7  A    between atoms: P_19  and  O_23
REMARK    8  A    between atoms: C_25  and  O_26
REMARK                            x       y       z     vdW  Elec       q    Type
REMARK                         _______ _______ _______ _____ _____    ______ ____
ROOT
ATOM      1  O   UNL     1      35.782 -24.666 -15.831  0.00  0.00    -0.332 OA
ATOM      2  C   UNL     1      35.815 -24.495 -13.468  0.00  0.00    +0.203 C 
ATOM      3  C   UNL     1      37.184 -24.937 -13.941  0.00  0.00    +0.172 C 
ATOM      4  C   UNL     1      35.211 -23.926 -14.740  0.00  0.00    +0.237 C 
ATOM      5  C   UNL     1      36.884 -25.459 -15.339  0.00  0.00    +0.176 C 
ENDROOT
BRANCH   4   7
ATOM      6  O   UNL     1      33.532 -22.921 -16.767  0.00  0.00    -0.193 OA
ATOM      7  N   UNL     1      33.782 -24.066 -14.780  0.00  0.00    -0.178 N 
ATOM      8  N   UNL     1      31.630 -23.704 -15.808  0.00  0.00    -0.306 NA
ATOM      9  N   UNL     1      29.684 -24.508 -14.820  0.00  0.00    -0.332 N 
ATOM     10  C   UNL     1      33.152 -24.744 -13.748  0.00  0.00    +0.083 C 
ATOM     11  C   UNL     1      33.003 -23.531 -15.836  0.00  0.00    +0.276 C 
ATOM     12  C   UNL     1      31.832 -24.921 -13.702  0.00  0.00    +0.065 C 
ATOM     13  C   UNL     1      31.050 -24.347 -14.829  0.00  0.00    +0.193 C 
ATOM     14  H   UNL     1      29.140 -24.138 -15.553  0.00  0.00    +0.145 HD
ATOM     15  H   UNL     1      29.250 -24.992 -14.081  0.00  0.00    +0.145 HD
ENDBRANCH   4   7
BRANCH   3  16
ATOM     16  O   UNL     1      38.051 -23.810 -14.068  0.00  0.00    -0.379 OA
ATOM     17  H   UNL     1      38.625 -23.754 -13.287  0.00  0.00    +0.211 HD
ENDBRANCH   3  16
BRANCH   2  18
ATOM     18  O   UNL     1      35.888 -23.541 -12.428  0.00  0.00    -0.269 OA
BRANCH  18  19
ATOM     19  P   UNL     1      36.301 -24.043 -10.944  0.00  0.00    +0.473 P 
ATOM     20  O   UNL     1      35.249 -24.844 -10.232  0.00  0.00    -0.227 OA
BRANCH  19  21
ATOM     21  O   UNL     1      36.761 -22.686 -10.194  0.00  0.00    -0.303 OA
ATOM     22  H   UNL     1      36.446 -22.701  -9.277  0.00  0.00    +0.222 HD
ENDBRANCH  19  21
BRANCH  19  23
ATOM     23  O   UNL     1      37.697 -24.820 -11.196  0.00  0.00    -0.303 OA
ATOM     24  H   UNL     1      38.438 -24.220 -11.015  0.00  0.00    +0.222 HD
ENDBRANCH  19  23
ENDBRANCH  18  19
ENDBRANCH   2  18
BRANCH   5  25
ATOM     25  C   UNL     1      36.463 -26.922 -15.358  0.00  0.00    +0.169 C 
BRANCH  25  26
ATOM     26  O   UNL     1      36.847 -27.489 -16.599  0.00  0.00    -0.379 OA
ATOM     27  H   UNL     1      37.600 -26.997 -16.960  0.00  0.00    +0.211 HD
ENDBRANCH  25  26
ENDBRANCH   5  25
TORSDOF 8
ENDMDL
MODEL 3
REMARK VINA RESULT:      -7.8      3.082      5.096
REMARK  Name = 101544
REMARK  8 active torsions:
REMARK  status: ('A' for Active; 'I' for Inactive)
REMARK    1  A    between atoms: C_2  and  O_18
REMARK    2  A    between atoms: C_3  and  O_16
REMARK    3  A    between atoms: C_4  and  N_7
REMARK    4  A    between atoms: C_5  and  C_25
REMARK    5  A    between atoms: O_18  and  P_19
REMARK    6  A    between atoms: P_19  and  O_21
REMARK    7  A    between atoms: P_19  and  O_23
REMARK    8  A    between atoms: C_25  and  O_26
REMARK                            x       y       z     vdW  Elec       q    Type
REMARK                         _______ _______ _______ _____ _____    ______ ____
ROOT
ATOM      1  O   UNL     1      35.271 -24.540 -16.060  0.00  0.00    -0.332 OA
ATOM      2  C   UNL     1      35.254 -23.826 -13.800  0.00  0.00    +0.203 C 
ATOM      3  C   UNL     1      34.141 -23.116 -14.541  0.00  0.00    +0.172 C 
ATOM      4  C   UNL     1      35.555 -24.993 -14.726  0.00  0.00    +0.237 C 
ATOM      5  C   UNL     1      34.571 -23.279 -15.993  0.00  0.00    +0.176 C 
ENDROOT
BRANCH   4   7
ATOM      6  O   UNL     1      36.459 -27.654 -14.915  0.00  0.00    -0.193 OA
ATOM      7  N   UNL     1      36.926 -25.410 -14.657  0.00  0.00    -0.178 N 
ATOM      8  N   UNL     1      38.647 -27.101 -14.684  0.00  0.00    -0.306 NA
ATOM      9  N   UNL     1      40.888 -26.527 -14.445  0.00  0.00    -0.332 N 
ATOM     10  C   UNL     1      37.907 -24.446 -14.480  0.00  0.00    +0.083 C 
ATOM     11  C   UNL     1      37.305 -26.772 -14.760  0.00  0.00    +0.276 C 
ATOM     12  C   UNL     1      39.204 -24.741 -14.404  0.00  0.00    +0.065 C 
ATOM     13  C   UNL     1      39.560 -26.180 -14.518  0.00  0.00    +0.193 C 
ATOM     14  H   UNL     1      41.155 -27.473 -14.518  0.00  0.00    +0.145 HD
ATOM     15  H   UNL     1      41.574 -25.832 -14.320  0.00  0.00    +0.145 HD
ENDBRANCH   4   7
BRANCH   3  16
ATOM     16  O   UNL     1      32.908 -23.811 -14.366  0.00  0.00    -0.379 OA
ATOM     17  H   UNL     1      32.383 -23.749 -15.180  0.00  0.00    +0.211 HD
ENDBRANCH   3  16
BRANCH   2  18
ATOM     18  O   UNL     1      34.858 -24.246 -12.511  0.00  0.00    -0.269 OA
BRANCH  18  19
ATOM     19  P   UNL     1      35.976 -24.310 -11.339  0.00  0.00    +0.473 P 
ATOM     20  O   UNL     1      36.960 -23.176 -11.341  0.00  0.00    -0.227 OA
BRANCH  19  21
ATOM     21  O   UNL     1      36.622 -25.783 -11.504  0.00  0.00    -0.303 OA
ATOM     22  H   UNL     1      37.527 -25.704 -11.842  0.00  0.00    +0.222 HD
ENDBRANCH  19  21
BRANCH  19  23
ATOM     23  O   UNL     1      35.088 -24.442  -9.994  0.00  0.00    -0.303 OA
ATOM     24  H   UNL     1      34.146 -24.413 -10.225  0.00  0.00    +0.222 HD
ENDBRANCH  19  23
ENDBRANCH  18  19
ENDBRANCH   2  18
BRANCH   5  25
ATOM     25  C   UNL     1      35.516 -22.183 -16.468  0.00  0.00    +0.169 C 
BRANCH  25  26
ATOM     26  O   UNL     1      35.688 -22.308 -17.869  0.00  0.00    -0.379 OA
ATOM     27  H   UNL     1      36.007 -23.201 -18.077  0.00  0.00    +0.211 HD
ENDBRANCH  25  26
ENDBRANCH   5  25
TORSDOF 8
ENDMDL
MODEL 4
REMARK VINA RESULT:      -7.8      3.027      4.586
REMARK  Name = 101544
REMARK  8 active torsions:
REMARK  status: ('A' for Active; 'I' for Inactive)
REMARK    1  A    between atoms: C_2  and  O_18
REMARK    2  A    between atoms: C_3  and  O_16
REMARK    3  A    between atoms: C_4  and  N_7
REMARK    4  A    between atoms: C_5  and  C_25
REMARK    5  A    between atoms: O_18  and  P_19
REMARK    6  A    between atoms: P_19  and  O_21
REMARK    7  A    between atoms: P_19  and  O_23
REMARK    8  A    between atoms: C_25  and  O_26
REMARK                            x       y       z     vdW  Elec       q    Type
REMARK                         _______ _______ _______ _____ _____    ______ ____
ROOT
ATOM      1  O   UNL     1      35.473 -21.971 -15.366  0.00  0.00    -0.332 OA
ATOM      2  C   UNL     1      36.066 -24.264 -15.284  0.00  0.00    +0.203 C 
ATOM      3  C   UNL     1      37.313 -23.451 -15.563  0.00  0.00    +0.172 C 
ATOM      4  C   UNL     1      35.120 -23.211 -14.732  0.00  0.00    +0.237 C 
ATOM      5  C   UNL     1      36.730 -22.135 -16.059  0.00  0.00    +0.176 C 
ENDROOT
BRANCH   4   7
ATOM      6  O   UNL     1      33.320 -24.455 -12.958  0.00  0.00    -0.193 OA
ATOM      7  N   UNL     1      33.745 -23.505 -15.017  0.00  0.00    -0.178 N 
ATOM      8  N   UNL     1      31.582 -24.389 -14.414  0.00  0.00    -0.306 NA
ATOM      9  N   UNL     1      29.804 -24.320 -15.913  0.00  0.00    -0.332 N 
ATOM     10  C   UNL     1      33.234 -23.163 -16.260  0.00  0.00    +0.083 C 
ATOM     11  C   UNL     1      32.898 -24.136 -14.070  0.00  0.00    +0.276 C 
ATOM     12  C   UNL     1      31.971 -23.399 -16.611  0.00  0.00    +0.065 C 
ATOM     13  C   UNL     1      31.116 -24.060 -15.590  0.00  0.00    +0.193 C 
ATOM     14  H   UNL     1      29.213 -24.757 -15.257  0.00  0.00    +0.145 HD
ATOM     15  H   UNL     1      29.456 -24.071 -16.799  0.00  0.00    +0.145 HD
ENDBRANCH   4   7
BRANCH   3  16
ATOM     16  O   UNL     1      38.016 -23.190 -14.349  0.00  0.00    -0.379 OA
ATOM     17  H   UNL     1      37.396 -22.855 -13.681  0.00  0.00    +0.211 HD
ENDBRANCH   3  16
BRANCH   2  18
ATOM     18  O   UNL     1      36.304 -25.313 -14.367  0.00  0.00    -0.269 OA
BRANCH  18  19
ATOM     19  P   UNL     1      37.262 -26.538 -14.824  0.00  0.00    +0.473 P 
ATOM     20  O   UNL     1      38.723 -26.203 -14.899  0.00  0.00    -0.227 OA
BRANCH  19  21
ATOM     21  O   UNL     1      36.598 -27.049 -16.207  0.00  0.00    -0.303 OA
ATOM     22  H   UNL     1      35.831 -27.608 -16.010  0.00  0.00    +0.222 HD
ENDBRANCH  19  21
BRANCH  19  23
ATOM     23  O   UNL     1      36.881 -27.708 -13.774  0.00  0.00    -0.303 OA
ATOM     24  H   UNL     1      36.546 -27.311 -12.955  0.00  0.00    +0.222 HD
ENDBRANCH  19  23
ENDBRANCH  18  19
ENDBRANCH   2  18
BRANCH   5  25
ATOM     25  C   UNL     1      36.452 -22.126 -17.557  0.00  0.00    +0.169 C 
BRANCH  25  26
ATOM     26  O   UNL     1      36.874 -20.883 -18.090  0.00  0.00    -0.379 OA
ATOM     27  H   UNL     1      36.658 -20.846 -19.035  0.00  0.00    +0.211 HD
ENDBRANCH  25  26
ENDBRANCH   5  25
TORSDOF 8
ENDMDL
MODEL 5
REMARK VINA RESULT:      -7.2      2.890      5.085
REMARK  Name = 101544
REMARK  8 active torsions:
REMARK  status: ('A' for Active; 'I' for Inactive)
REMARK    1  A    between atoms: C_2  and  O_18
REMARK    2  A    between atoms: C_3  and  O_16
REMARK    3  A    between atoms: C_4  and  N_7
REMARK    4  A    between atoms: C_5  and  C_25
REMARK    5  A    between atoms: O_18  and  P_19
REMARK    6  A    between atoms: P_19  and  O_21
REMARK    7  A    between atoms: P_19  and  O_23
REMARK    8  A    between atoms: C_25  and  O_26
REMARK                            x       y       z     vdW  Elec       q    Type
REMARK                         _______ _______ _______ _____ _____    ______ ____
ROOT
ATOM      1  O   UNL     1      36.915 -24.018 -14.774  0.00  0.00    -0.332 OA
ATOM      2  C   UNL     1      34.562 -24.102 -14.504  0.00  0.00    +0.203 C 
ATOM      3  C   UNL     1      35.200 -25.022 -13.485  0.00  0.00    +0.172 C 
ATOM      4  C   UNL     1      35.730 -23.216 -14.903  0.00  0.00    +0.237 C 
ATOM      5  C   UNL     1      36.587 -25.239 -14.075  0.00  0.00    +0.176 C 
ENDROOT
BRANCH   4   7
ATOM      6  O   UNL     1      37.677 -21.691 -16.251  0.00  0.00    -0.193 OA
ATOM      7  N   UNL     1      35.627 -22.749 -16.257  0.00  0.00    -0.178 N 
ATOM      8  N   UNL     1      36.484 -21.568 -18.178  0.00  0.00    -0.306 NA
ATOM      9  N   UNL     1      35.256 -21.443 -20.149  0.00  0.00    -0.332 N 
ATOM     10  C   UNL     1      34.486 -23.057 -16.982  0.00  0.00    +0.083 C 
ATOM     11  C   UNL     1      36.652 -21.984 -16.868  0.00  0.00    +0.276 C 
ATOM     12  C   UNL     1      34.305 -22.665 -18.242  0.00  0.00    +0.065 C 
ATOM     13  C   UNL     1      35.403 -21.866 -18.849  0.00  0.00    +0.193 C 
ATOM     14  H   UNL     1      35.967 -20.912 -20.577  0.00  0.00    +0.145 HD
ATOM     15  H   UNL     1      34.440 -21.669 -20.652  0.00  0.00    +0.145 HD
ENDBRANCH   4   7
BRANCH   3  16
ATOM     16  O   UNL     1      35.353 -24.348 -12.237  0.00  0.00    -0.379 OA
ATOM     17  H   UNL     1      35.761 -24.949 -11.593  0.00  0.00    +0.211 HD
ENDBRANCH   3  16
BRANCH   2  18
ATOM     18  O   UNL     1      33.483 -23.367 -13.963  0.00  0.00    -0.269 OA
BRANCH  18  19
ATOM     19  P   UNL     1      31.980 -23.942 -14.155  0.00  0.00    +0.473 P 
ATOM     20  O   UNL     1      31.337 -23.605 -15.468  0.00  0.00    -0.227 OA
BRANCH  19  21
ATOM     21  O   UNL     1      31.196 -23.411 -12.844  0.00  0.00    -0.303 OA
ATOM     22  H   UNL     1      30.443 -22.864 -13.118  0.00  0.00    +0.222 HD
ENDBRANCH  19  21
BRANCH  19  23
ATOM     23  O   UNL     1      32.156 -25.524 -13.866  0.00  0.00    -0.303 OA
ATOM     24  H   UNL     1      33.092 -25.722 -13.705  0.00  0.00    +0.222 HD
ENDBRANCH  19  23
ENDBRANCH  18  19
ENDBRANCH   2  18
BRANCH   5  25
ATOM     25  C   UNL     1      36.644 -26.388 -15.073  0.00  0.00    +0.169 C 
BRANCH  25  26
ATOM     26  O   UNL     1      37.877 -26.325 -15.767  0.00  0.00    -0.379 OA
ATOM     27  H   UNL     1      38.548 -25.915 -15.199  0.00  0.00    +0.211 HD
ENDBRANCH  25  26
ENDBRANCH   5  25
TORSDOF 8
ENDMDL
MODEL 6
REMARK VINA RESULT:      -7.1      2.196      4.128
REMARK  Name = 101544
REMARK  8 active torsions:
REMARK  status: ('A' for Active; 'I' for Inactive)
REMARK    1  A    between atoms: C_2  and  O_18
REMARK    2  A    between atoms: C_3  and  O_16
REMARK    3  A    between atoms: C_4  and  N_7
REMARK    4  A    between atoms: C_5  and  C_25
REMARK    5  A    between atoms: O_18  and  P_19
REMARK    6  A    between atoms: P_19  and  O_21
REMARK    7  A    between atoms: P_19  and  O_23
REMARK    8  A    between atoms: C_25  and  O_26
REMARK                            x       y       z     vdW  Elec       q    Type
REMARK                         _______ _______ _______ _____ _____    ______ ____
ROOT
ATOM      1  O   UNL     1      38.757 -23.787 -15.224  0.00  0.00    -0.332 OA
ATOM      2  C   UNL     1      37.357 -24.126 -13.343  0.00  0.00    +0.203 C 
ATOM      3  C   UNL     1      38.750 -24.612 -13.004  0.00  0.00    +0.172 C 
ATOM      4  C   UNL     1      37.618 -23.234 -14.545  0.00  0.00    +0.237 C 
ATOM      5  C   UNL     1      39.370 -24.788 -14.383  0.00  0.00    +0.176 C 
ENDROOT
BRANCH   4   7
ATOM      6  O   UNL     1      37.439 -21.601 -16.833  0.00  0.00    -0.193 OA
ATOM      7  N   UNL     1      36.507 -23.196 -15.452  0.00  0.00    -0.178 N 
ATOM      8  N   UNL     1      35.383 -22.362 -17.418  0.00  0.00    -0.306 NA
ATOM      9  N   UNL     1      33.275 -23.145 -18.011  0.00  0.00    -0.332 N 
ATOM     10  C   UNL     1      35.418 -24.019 -15.206  0.00  0.00    +0.083 C 
ATOM     11  C   UNL     1      36.489 -22.345 -16.586  0.00  0.00    +0.276 C 
ATOM     12  C   UNL     1      34.344 -24.049 -15.993  0.00  0.00    +0.065 C 
ATOM     13  C   UNL     1      34.365 -23.143 -17.172  0.00  0.00    +0.193 C 
ATOM     14  H   UNL     1      33.260 -22.555 -18.800  0.00  0.00    +0.145 HD
ATOM     15  H   UNL     1      32.509 -23.734 -17.823  0.00  0.00    +0.145 HD
ENDBRANCH   4   7
BRANCH   3  16
ATOM     16  O   UNL     1      39.478 -23.592 -12.321  0.00  0.00    -0.379 OA
ATOM     17  H   UNL     1      38.861 -23.036 -11.818  0.00  0.00    +0.211 HD
ENDBRANCH   3  16
BRANCH   2  18
ATOM     18  O   UNL     1      36.756 -23.429 -12.271  0.00  0.00    -0.269 OA
BRANCH  18  19
ATOM     19  P   UNL     1      35.680 -24.210 -11.344  0.00  0.00    +0.473 P 
ATOM     20  O   UNL     1      34.245 -23.865 -11.614  0.00  0.00    -0.227 OA
BRANCH  19  21
ATOM     21  O   UNL     1      36.188 -23.920  -9.837  0.00  0.00    -0.303 OA
ATOM     22  H   UNL     1      36.401 -22.978  -9.743  0.00  0.00    +0.222 HD
ENDBRANCH  19  21
BRANCH  19  23
ATOM     23  O   UNL     1      36.064 -25.765 -11.573  0.00  0.00    -0.303 OA
ATOM     24  H   UNL     1      37.027 -25.851 -11.657  0.00  0.00    +0.222 HD
ENDBRANCH  19  23
ENDBRANCH  18  19
ENDBRANCH   2  18
BRANCH   5  25
ATOM     25  C   UNL     1      39.098 -26.155 -14.996  0.00  0.00    +0.169 C 
BRANCH  25  26
ATOM     26  O   UNL     1      40.190 -27.010 -14.703  0.00  0.00    -0.379 OA
ATOM     27  H   UNL     1      40.690 -27.185 -15.515  0.00  0.00    +0.211 HD
ENDBRANCH  25  26
ENDBRANCH   5  25
TORSDOF 8
ENDMDL
MODEL 7
REMARK VINA RESULT:      -7.0      2.681      4.507
REMARK  Name = 101544
REMARK  8 active torsions:
REMARK  status: ('A' for Active; 'I' for Inactive)
REMARK    1  A    between atoms: C_2  and  O_18
REMARK    2  A    between atoms: C_3  and  O_16
REMARK    3  A    between atoms: C_4  and  N_7
REMARK    4  A    between atoms: C_5  and  C_25
REMARK    5  A    between atoms: O_18  and  P_19
REMARK    6  A    between atoms: P_19  and  O_21
REMARK    7  A    between atoms: P_19  and  O_23
REMARK    8  A    between atoms: C_25  and  O_26
REMARK                            x       y       z     vdW  Elec       q    Type
REMARK                         _______ _______ _______ _____ _____    ______ ____
ROOT
ATOM      1  O   UNL     1      36.236 -25.351 -15.788  0.00  0.00    -0.332 OA
ATOM      2  C   UNL     1      37.052 -24.390 -13.781  0.00  0.00    +0.203 C 
ATOM      3  C   UNL     1      38.138 -25.258 -14.380  0.00  0.00    +0.172 C 
ATOM      4  C   UNL     1      36.130 -24.174 -14.970  0.00  0.00    +0.237 C 
ATOM      5  C   UNL     1      37.348 -26.150 -15.327  0.00  0.00    +0.176 C 
ENDROOT
BRANCH   4   7
ATOM      6  O   UNL     1      35.018 -25.013 -12.521  0.00  0.00    -0.193 OA
ATOM      7  N   UNL     1      34.760 -24.000 -14.578  0.00  0.00    -0.178 N 
ATOM      8  N   UNL     1      32.940 -24.248 -13.014  0.00  0.00    -0.306 NA
ATOM      9  N   UNL     1      30.811 -23.462 -13.526  0.00  0.00    -0.332 N 
ATOM     10  C   UNL     1      33.892 -23.373 -15.457  0.00  0.00    +0.083 C 
ATOM     11  C   UNL     1      34.273 -24.450 -13.325  0.00  0.00    +0.276 C 
ATOM     12  C   UNL     1      32.605 -23.169 -15.178  0.00  0.00    +0.065 C 
ATOM     13  C   UNL     1      32.133 -23.654 -13.854  0.00  0.00    +0.193 C 
ATOM     14  H   UNL     1      30.470 -23.773 -12.656  0.00  0.00    +0.145 HD
ATOM     15  H   UNL     1      30.206 -23.015 -14.160  0.00  0.00    +0.145 HD
ENDBRANCH   4   7
BRANCH   3  16
ATOM     16  O   UNL     1      39.030 -24.466 -15.162  0.00  0.00    -0.379 OA
ATOM     17  H   UNL     1      38.837 -24.595 -16.104  0.00  0.00    +0.211 HD
ENDBRANCH   3  16
BRANCH   2  18
ATOM     18  O   UNL     1      37.558 -23.178 -13.261  0.00  0.00    -0.269 OA
BRANCH  18  19
ATOM     19  P   UNL     1      38.057 -23.145 -11.720  0.00  0.00    +0.473 P 
ATOM     20  O   UNL     1      39.526 -22.894 -11.536  0.00  0.00    -0.227 OA
BRANCH  19  21
ATOM     21  O   UNL     1      37.512 -24.540 -11.110  0.00  0.00    -0.303 OA
ATOM     22  H   UNL     1      37.791 -25.273 -11.680  0.00  0.00    +0.222 HD
ENDBRANCH  19  21
BRANCH  19  23
ATOM     23  O   UNL     1      37.086 -22.040 -11.046  0.00  0.00    -0.303 OA
ATOM     24  H   UNL     1      37.572 -21.560 -10.357  0.00  0.00    +0.222 HD
ENDBRANCH  19  23
ENDBRANCH  18  19
ENDBRANCH   2  18
BRANCH   5  25
ATOM     25  C   UNL     1      36.791 -27.398 -14.656  0.00  0.00    +0.169 C 
BRANCH  25  26
ATOM     26  O   UNL     1      36.944 -27.266 -13.254  0.00  0.00    -0.379 OA
ATOM     27  H   UNL     1      36.072 -27.160 -12.842  0.00  0.00    +0.211 HD
ENDBRANCH  25  26
ENDBRANCH   5  25
TORSDOF 8
ENDMDL
MODEL 8
REMARK VINA RESULT:      -6.9      8.721     11.520
REMARK  Name = 101544
REMARK  8 active torsions:
REMARK  status: ('A' for Active; 'I' for Inactive)
REMARK    1  A    between atoms: C_2  and  O_18
REMARK    2  A    between atoms: C_3  and  O_16
REMARK    3  A    between atoms: C_4  and  N_7
REMARK    4  A    between atoms: C_5  and  C_25
REMARK    5  A    between atoms: O_18  and  P_19
REMARK    6  A    between atoms: P_19  and  O_21
REMARK    7  A    between atoms: P_19  and  O_23
REMARK    8  A    between atoms: C_25  and  O_26
REMARK                            x       y       z     vdW  Elec       q    Type
REMARK                         _______ _______ _______ _____ _____    ______ ____
ROOT
ATOM      1  O   UNL     1      34.947 -16.517 -20.340  0.00  0.00    -0.332 OA
ATOM      2  C   UNL     1      34.250 -17.021 -22.549  0.00  0.00    +0.203 C 
ATOM      3  C   UNL     1      34.319 -15.517 -22.394  0.00  0.00    +0.172 C 
ATOM      4  C   UNL     1      35.096 -17.497 -21.380  0.00  0.00    +0.237 C 
ATOM      5  C   UNL     1      34.289 -15.350 -20.881  0.00  0.00    +0.176 C 
ENDROOT
BRANCH   4   7
ATOM      6  O   UNL     1      36.807 -19.505 -20.391  0.00  0.00    -0.193 OA
ATOM      7  N   UNL     1      34.674 -18.775 -20.881  0.00  0.00    -0.178 N 
ATOM      8  N   UNL     1      35.117 -20.949 -19.932  0.00  0.00    -0.306 NA
ATOM      9  N   UNL     1      33.381 -22.424 -19.465  0.00  0.00    -0.332 N 
ATOM     10  C   UNL     1      33.320 -19.073 -20.876  0.00  0.00    +0.083 C 
ATOM     11  C   UNL     1      35.597 -19.737 -20.398  0.00  0.00    +0.276 C 
ATOM     12  C   UNL     1      32.838 -20.233 -20.432  0.00  0.00    +0.065 C 
ATOM     13  C   UNL     1      33.837 -21.214 -19.933  0.00  0.00    +0.193 C 
ATOM     14  H   UNL     1      34.020 -23.094 -19.128  0.00  0.00    +0.145 HD
ATOM     15  H   UNL     1      32.417 -22.622 -19.467  0.00  0.00    +0.145 HD
ENDBRANCH   4   7
BRANCH   3  16
ATOM     16  O   UNL     1      35.574 -15.028 -22.865  0.00  0.00    -0.379 OA
ATOM     17  H   UNL     1      36.028 -15.728 -23.361  0.00  0.00    +0.211 HD
ENDBRANCH   3  16
BRANCH   2  18
ATOM     18  O   UNL     1      34.752 -17.456 -23.795  0.00  0.00    -0.269 OA
BRANCH  18  19
ATOM     19  P   UNL     1      34.159 -16.786 -25.146  0.00  0.00    +0.473 P 
ATOM     20  O   UNL     1      33.355 -15.537 -24.932  0.00  0.00    -0.227 OA
BRANCH  19  21
ATOM     21  O   UNL     1      33.368 -18.002 -25.862  0.00  0.00    -0.303 OA
ATOM     22  H   UNL     1      33.350 -17.856 -26.821  0.00  0.00    +0.222 HD
ENDBRANCH  19  21
BRANCH  19  23
ATOM     23  O   UNL     1      35.473 -16.604 -26.071  0.00  0.00    -0.303 OA
ATOM     24  H   UNL     1      35.363 -15.825 -26.640  0.00  0.00    +0.222 HD
ENDBRANCH  19  23
ENDBRANCH  18  19
ENDBRANCH   2  18
BRANCH   5  25
ATOM     25  C   UNL     1      32.878 -15.292 -20.309  0.00  0.00    +0.169 C 
BRANCH  25  26
ATOM     26  O   UNL     1      31.983 -14.933 -21.347  0.00  0.00    -0.379 OA
ATOM     27  H   UNL     1      31.540 -15.728 -21.682  0.00  0.00    +0.211 HD
ENDBRANCH  25  26
ENDBRANCH   5  25
TORSDOF 8
ENDMDL
MODEL 9
REMARK VINA RESULT:      -6.8      2.401      5.015
REMARK  Name = 101544
REMARK  8 active torsions:
REMARK  status: ('A' for Active; 'I' for Inactive)
REMARK    1  A    between atoms: C_2  and  O_18
REMARK    2  A    between atoms: C_3  and  O_16
REMARK    3  A    between atoms: C_4  and  N_7
REMARK    4  A    between atoms: C_5  and  C_25
REMARK    5  A    between atoms: O_18  and  P_19
REMARK    6  A    between atoms: P_19  and  O_21
REMARK    7  A    between atoms: P_19  and  O_23
REMARK    8  A    between atoms: C_25  and  O_26
REMARK                            x       y       z     vdW  Elec       q    Type
REMARK                         _______ _______ _______ _____ _____    ______ ____
ROOT
ATOM      1  O   UNL     1      35.737 -22.040 -14.836  0.00  0.00    -0.332 OA
ATOM      2  C   UNL     1      37.329 -23.747 -15.247  0.00  0.00    +0.203 C 
ATOM      3  C   UNL     1      36.938 -23.120 -16.569  0.00  0.00    +0.172 C 
ATOM      4  C   UNL     1      36.877 -22.691 -14.252  0.00  0.00    +0.237 C 
ATOM      5  C   UNL     1      35.623 -22.435 -16.220  0.00  0.00    +0.176 C 
ENDROOT
BRANCH   4   7
ATOM      6  O   UNL     1      38.334 -22.446 -11.853  0.00  0.00    -0.193 OA
ATOM      7  N   UNL     1      36.496 -23.256 -12.989  0.00  0.00    -0.178 N 
ATOM      8  N   UNL     1      36.853 -23.662 -10.637  0.00  0.00    -0.306 NA
ATOM      9  N   UNL     1      35.333 -24.910  -9.397  0.00  0.00    -0.332 N 
ATOM     10  C   UNL     1      35.321 -23.988 -12.914  0.00  0.00    +0.083 C 
ATOM     11  C   UNL     1      37.283 -23.089 -11.822  0.00  0.00    +0.276 C 
ATOM     12  C   UNL     1      34.890 -24.548 -11.785  0.00  0.00    +0.065 C 
ATOM     13  C   UNL     1      35.743 -24.349 -10.583  0.00  0.00    +0.193 C 
ATOM     14  H   UNL     1      35.877 -24.795  -8.584  0.00  0.00    +0.145 HD
ATOM     15  H   UNL     1      34.496 -25.427  -9.359  0.00  0.00    +0.145 HD
ENDBRANCH   4   7
BRANCH   3  16
ATOM     16  O   UNL     1      37.877 -22.109 -16.934  0.00  0.00    -0.379 OA
ATOM     17  H   UNL     1      37.420 -21.257 -17.013  0.00  0.00    +0.211 HD
ENDBRANCH   3  16
BRANCH   2  18
ATOM     18  O   UNL     1      38.715 -24.010 -15.167  0.00  0.00    -0.269 OA
BRANCH  18  19
ATOM     19  P   UNL     1      39.199 -25.525 -14.856  0.00  0.00    +0.473 P 
ATOM     20  O   UNL     1      39.545 -25.796 -13.421  0.00  0.00    -0.227 OA
BRANCH  19  21
ATOM     21  O   UNL     1      40.397 -25.771 -15.914  0.00  0.00    -0.303 OA
ATOM     22  H   UNL     1      40.939 -26.518 -15.620  0.00  0.00    +0.222 HD
ENDBRANCH  19  21
BRANCH  19  23
ATOM     23  O   UNL     1      37.990 -26.423 -15.448  0.00  0.00    -0.303 OA
ATOM     24  H   UNL     1      37.211 -26.332 -14.877  0.00  0.00    +0.222 HD
ENDBRANCH  19  23
ENDBRANCH  18  19
ENDBRANCH   2  18
BRANCH   5  25
ATOM     25  C   UNL     1      34.414 -23.350 -16.355  0.00  0.00    +0.169 C 
BRANCH  25  26
ATOM     26  O   UNL     1      34.120 -23.513 -17.732  0.00  0.00    -0.379 OA
ATOM     27  H   UNL     1      34.077 -22.643 -18.159  0.00  0.00    +0.211 HD
ENDBRANCH  25  26
ENDBRANCH   5  25
TORSDOF 8
ENDMDL
