MODEL 1
REMARK VINA RESULT:      -8.7      0.000      0.000
REMARK  Name = 5736
REMARK  4 active torsions:
REMARK  status: ('A' for Active; 'I' for Inactive)
REMARK    1  A    between atoms: C_3  and  O_17
REMARK    2  A    between atoms: O_17  and  C_18
REMARK    3  A    between atoms: C_18  and  C_19
REMARK    4  A    between atoms: C_19  and  N_20
REMARK                            x       y       z     vdW  Elec       q    Type
REMARK                         _______ _______ _______ _____ _____    ______ ____
ROOT
ATOM      1 CL   UNL     1      35.304 -17.600 -21.479  0.00  0.00    -0.082 Cl
ATOM      2  S   UNL     1      32.930 -13.867 -25.979  0.00  0.00    -0.087 S 
ATOM      3  C   UNL     1      32.777 -13.293 -22.828  0.00  0.00    +0.139 C 
ATOM      4  C   UNL     1      33.467 -14.515 -23.292  0.00  0.00    +0.041 C 
ATOM      5  C   UNL     1      33.794 -11.662 -24.468  0.00  0.00    +0.009 C 
ATOM      6  C   UNL     1      33.581 -14.875 -24.650  0.00  0.00    +0.032 C 
ATOM      7  C   UNL     1      32.934 -12.059 -23.341  0.00  0.00    +0.037 C 
ATOM      8  C   UNL     1      33.861 -12.368 -25.684  0.00  0.00    +0.030 C 
ATOM      9  C   UNL     1      34.009 -15.381 -22.322  0.00  0.00    +0.015 C 
ATOM     10  C   UNL     1      34.217 -16.075 -25.007  0.00  0.00    +0.007 C 
ATOM     11  C   UNL     1      34.530 -10.474 -24.331  0.00  0.00    +0.001 C 
ATOM     12  C   UNL     1      34.669 -11.885 -26.726  0.00  0.00    +0.006 C 
ATOM     13  C   UNL     1      34.647 -16.567 -22.689  0.00  0.00    +0.058 C 
ATOM     14  C   UNL     1      34.750 -16.915 -24.030  0.00  0.00    +0.012 C 
ATOM     15  C   UNL     1      35.335 -10.006 -25.371  0.00  0.00    +0.000 C 
ATOM     16  C   UNL     1      35.405 -10.712 -26.567  0.00  0.00    +0.001 C 
ENDROOT
BRANCH   3  17
ATOM     17  O   UNL     1      31.937 -13.509 -21.746  0.00  0.00    -0.478 OA
BRANCH  17  18
ATOM     18  C   UNL     1      32.063 -12.463 -20.808  0.00  0.00    +0.183 C 
BRANCH  18  19
ATOM     19  C   UNL     1      30.855 -11.549 -20.930  0.00  0.00    -0.029 C 
BRANCH  19  20
ATOM     20  N   UNL     1      31.020 -10.366 -20.099  0.00  0.00    +0.387 N 
ATOM     21  C   UNL     1      31.918  -9.404 -20.741  0.00  0.00    -0.101 C 
ATOM     22  C   UNL     1      31.532 -10.729 -18.776  0.00  0.00    -0.101 C 
ATOM     23  H   UNL     1      30.105  -9.931 -19.985  0.00  0.00    -0.080 HD
ENDBRANCH  19  20
ENDBRANCH  18  19
ENDBRANCH  17  18
ENDBRANCH   3  17
TORSDOF 4
ENDMDL
MODEL 2
REMARK VINA RESULT:      -8.2     11.037     14.086
REMARK  Name = 5736
REMARK  4 active torsions:
REMARK  status: ('A' for Active; 'I' for Inactive)
REMARK    1  A    between atoms: C_3  and  O_17
REMARK    2  A    between atoms: O_17  and  C_18
REMARK    3  A    between atoms: C_18  and  C_19
REMARK    4  A    between atoms: C_19  and  N_20
REMARK                            x       y       z     vdW  Elec       q    Type
REMARK                         _______ _______ _______ _____ _____    ______ ____
ROOT
ATOM      1 CL   UNL     1      33.781 -21.956 -20.248  0.00  0.00    -0.082 Cl
ATOM      2  S   UNL     1      37.207 -22.480 -14.974  0.00  0.00    -0.087 S 
ATOM      3  C   UNL     1      34.247 -23.644 -15.381  0.00  0.00    +0.139 C 
ATOM      4  C   UNL     1      34.890 -22.936 -16.508  0.00  0.00    +0.041 C 
ATOM      5  C   UNL     1      36.204 -25.089 -14.699  0.00  0.00    +0.009 C 
ATOM      6  C   UNL     1      36.180 -22.373 -16.437  0.00  0.00    +0.032 C 
ATOM      7  C   UNL     1      34.824 -24.581 -14.608  0.00  0.00    +0.037 C 
ATOM      8  C   UNL     1      37.332 -24.259 -14.842  0.00  0.00    +0.030 C 
ATOM      9  C   UNL     1      34.161 -22.792 -17.705  0.00  0.00    +0.015 C 
ATOM     10  C   UNL     1      36.705 -21.681 -17.541  0.00  0.00    +0.007 C 
ATOM     11  C   UNL     1      36.392 -26.474 -14.566  0.00  0.00    +0.001 C 
ATOM     12  C   UNL     1      38.615 -24.827 -14.865  0.00  0.00    +0.006 C 
ATOM     13  C   UNL     1      34.696 -22.110 -18.798  0.00  0.00    +0.058 C 
ATOM     14  C   UNL     1      35.966 -21.553 -18.717  0.00  0.00    +0.012 C 
ATOM     15  C   UNL     1      37.672 -27.029 -14.597  0.00  0.00    +0.000 C 
ATOM     16  C   UNL     1      38.783 -26.206 -14.747  0.00  0.00    +0.001 C 
ENDROOT
BRANCH   3  17
ATOM     17  O   UNL     1      32.923 -23.279 -15.183  0.00  0.00    -0.478 OA
BRANCH  17  18
ATOM     18  C   UNL     1      32.510 -23.616 -13.877  0.00  0.00    +0.183 C 
BRANCH  18  19
ATOM     19  C   UNL     1      30.993 -23.541 -13.809  0.00  0.00    -0.029 C 
BRANCH  19  20
ATOM     20  N   UNL     1      30.399 -24.025 -15.045  0.00  0.00    +0.387 N 
ATOM     21  C   UNL     1      29.256 -23.194 -15.431  0.00  0.00    -0.101 C 
ATOM     22  C   UNL     1      29.983 -25.423 -14.908  0.00  0.00    -0.101 C 
ATOM     23  H   UNL     1      31.105 -23.967 -15.778  0.00  0.00    -0.080 HD
ENDBRANCH  19  20
ENDBRANCH  18  19
ENDBRANCH  17  18
ENDBRANCH   3  17
TORSDOF 4
ENDMDL
MODEL 3
REMARK VINA RESULT:      -7.8     10.756     13.888
REMARK  Name = 5736
REMARK  4 active torsions:
REMARK  status: ('A' for Active; 'I' for Inactive)
REMARK    1  A    between atoms: C_3  and  O_17
REMARK    2  A    between atoms: O_17  and  C_18
REMARK    3  A    between atoms: C_18  and  C_19
REMARK    4  A    between atoms: C_19  and  N_20
REMARK                            x       y       z     vdW  Elec       q    Type
REMARK                         _______ _______ _______ _____ _____    ______ ____
ROOT
ATOM      1 CL   UNL     1      37.690 -26.337 -14.789  0.00  0.00    -0.082 Cl
ATOM      2  S   UNL     1      32.639 -22.768 -13.532  0.00  0.00    -0.087 S 
ATOM      3  C   UNL     1      33.835 -23.317 -16.456  0.00  0.00    +0.139 C 
ATOM      4  C   UNL     1      34.491 -23.951 -15.293  0.00  0.00    +0.041 C 
ATOM      5  C   UNL     1      31.439 -23.827 -15.840  0.00  0.00    +0.009 C 
ATOM      6  C   UNL     1      34.061 -23.768 -13.963  0.00  0.00    +0.032 C 
ATOM      7  C   UNL     1      32.511 -23.277 -16.687  0.00  0.00    +0.037 C 
ATOM      8  C   UNL     1      31.380 -23.652 -14.444  0.00  0.00    +0.030 C 
ATOM      9  C   UNL     1      35.625 -24.753 -15.525  0.00  0.00    +0.015 C 
ATOM     10  C   UNL     1      34.763 -24.374 -12.909  0.00  0.00    +0.007 C 
ATOM     11  C   UNL     1      30.390 -24.504 -16.484  0.00  0.00    +0.001 C 
ATOM     12  C   UNL     1      30.291 -24.166 -13.724  0.00  0.00    +0.006 C 
ATOM     13  C   UNL     1      36.311 -25.357 -14.470  0.00  0.00    +0.058 C 
ATOM     14  C   UNL     1      35.881 -25.167 -13.163  0.00  0.00    +0.012 C 
ATOM     15  C   UNL     1      29.315 -25.016 -15.757  0.00  0.00    +0.000 C 
ATOM     16  C   UNL     1      29.266 -24.848 -14.378  0.00  0.00    +0.001 C 
ENDROOT
BRANCH   3  17
ATOM     17  O   UNL     1      34.730 -22.764 -17.361  0.00  0.00    -0.478 OA
BRANCH  17  18
ATOM     18  C   UNL     1      34.083 -22.486 -18.584  0.00  0.00    +0.183 C 
BRANCH  18  19
ATOM     19  C   UNL     1      35.075 -21.813 -19.519  0.00  0.00    -0.029 C 
BRANCH  19  20
ATOM     20  N   UNL     1      34.618 -20.480 -19.880  0.00  0.00    +0.387 N 
ATOM     21  C   UNL     1      33.191 -20.494 -20.213  0.00  0.00    -0.101 C 
ATOM     22  C   UNL     1      35.393 -19.952 -21.005  0.00  0.00    -0.101 C 
ATOM     23  H   UNL     1      34.758 -19.870 -19.075  0.00  0.00    -0.080 HD
ENDBRANCH  19  20
ENDBRANCH  18  19
ENDBRANCH  17  18
ENDBRANCH   3  17
TORSDOF 4
ENDMDL
MODEL 4
REMARK VINA RESULT:      -7.3      4.365      8.021
REMARK  Name = 5736
REMARK  4 active torsions:
REMARK  status: ('A' for Active; 'I' for Inactive)
REMARK    1  A    between atoms: C_3  and  O_17
REMARK    2  A    between atoms: O_17  and  C_18
REMARK    3  A    between atoms: C_18  and  C_19
REMARK    4  A    between atoms: C_19  and  N_20
REMARK                            x       y       z     vdW  Elec       q    Type
REMARK                         _______ _______ _______ _____ _____    ______ ____
ROOT
ATOM      1 CL   UNL     1      33.314 -13.760 -20.589  0.00  0.00    -0.082 Cl
ATOM      2  S   UNL     1      32.738 -20.006 -21.288  0.00  0.00    -0.087 S 
ATOM      3  C   UNL     1      35.248 -18.260 -22.254  0.00  0.00    +0.139 C 
ATOM      4  C   UNL     1      34.129 -17.574 -21.574  0.00  0.00    +0.041 C 
ATOM      5  C   UNL     1      35.472 -20.227 -20.684  0.00  0.00    +0.009 C 
ATOM      6  C   UNL     1      32.971 -18.238 -21.121  0.00  0.00    +0.032 C 
ATOM      7  C   UNL     1      35.828 -19.406 -21.854  0.00  0.00    +0.037 C 
ATOM      8  C   UNL     1      34.150 -20.571 -20.346  0.00  0.00    +0.030 C 
ATOM      9  C   UNL     1      34.212 -16.179 -21.399  0.00  0.00    +0.015 C 
ATOM     10  C   UNL     1      31.934 -17.507 -20.519  0.00  0.00    +0.007 C 
ATOM     11  C   UNL     1      36.526 -20.743 -19.912  0.00  0.00    +0.001 C 
ATOM     12  C   UNL     1      33.908 -21.404 -19.243  0.00  0.00    +0.006 C 
ATOM     13  C   UNL     1      33.179 -15.464 -20.792  0.00  0.00    +0.058 C 
ATOM     14  C   UNL     1      32.040 -16.127 -20.353  0.00  0.00    +0.012 C 
ATOM     15  C   UNL     1      36.274 -21.565 -18.813  0.00  0.00    +0.000 C 
ATOM     16  C   UNL     1      34.966 -21.894 -18.479  0.00  0.00    +0.001 C 
ENDROOT
BRANCH   3  17
ATOM     17  O   UNL     1      35.707 -17.587 -23.377  0.00  0.00    -0.478 OA
BRANCH  17  18
ATOM     18  C   UNL     1      34.783 -17.708 -24.435  0.00  0.00    +0.183 C 
BRANCH  18  19
ATOM     19  C   UNL     1      34.803 -16.425 -25.251  0.00  0.00    -0.029 C 
BRANCH  19  20
ATOM     20  N   UNL     1      33.583 -15.661 -25.038  0.00  0.00    +0.387 N 
ATOM     21  C   UNL     1      32.940 -15.347 -26.315  0.00  0.00    -0.101 C 
ATOM     22  C   UNL     1      33.866 -14.429 -24.298  0.00  0.00    -0.101 C 
ATOM     23  H   UNL     1      32.946 -16.233 -24.484  0.00  0.00    -0.080 HD
ENDBRANCH  19  20
ENDBRANCH  18  19
ENDBRANCH  17  18
ENDBRANCH   3  17
TORSDOF 4
ENDMDL
MODEL 5
REMARK VINA RESULT:      -7.2     11.315     14.444
REMARK  Name = 5736
REMARK  4 active torsions:
REMARK  status: ('A' for Active; 'I' for Inactive)
REMARK    1  A    between atoms: C_3  and  O_17
REMARK    2  A    between atoms: O_17  and  C_18
REMARK    3  A    between atoms: C_18  and  C_19
REMARK    4  A    between atoms: C_19  and  N_20
REMARK                            x       y       z     vdW  Elec       q    Type
REMARK                         _______ _______ _______ _____ _____    ______ ____
ROOT
ATOM      1 CL   UNL     1      40.273 -26.480 -14.995  0.00  0.00    -0.082 Cl
ATOM      2  S   UNL     1      35.330 -23.522 -12.417  0.00  0.00    -0.087 S 
ATOM      3  C   UNL     1      36.679 -22.766 -15.226  0.00  0.00    +0.139 C 
ATOM      4  C   UNL     1      37.230 -23.905 -14.460  0.00  0.00    +0.041 C 
ATOM      5  C   UNL     1      34.227 -23.329 -14.993  0.00  0.00    +0.009 C 
ATOM      6  C   UNL     1      36.726 -24.316 -13.210  0.00  0.00    +0.032 C 
ATOM      7  C   UNL     1      35.375 -22.532 -15.458  0.00  0.00    +0.037 C 
ATOM      8  C   UNL     1      34.089 -23.803 -13.675  0.00  0.00    +0.030 C 
ATOM      9  C   UNL     1      38.336 -24.593 -14.996  0.00  0.00    +0.015 C 
ATOM     10  C   UNL     1      37.332 -25.383 -12.526  0.00  0.00    +0.007 C 
ATOM     11  C   UNL     1      33.189 -23.563 -15.911  0.00  0.00    +0.001 C 
ATOM     12  C   UNL     1      32.934 -24.510 -13.306  0.00  0.00    +0.006 C 
ATOM     13  C   UNL     1      38.925 -25.657 -14.311  0.00  0.00    +0.058 C 
ATOM     14  C   UNL     1      38.424 -26.051 -13.077  0.00  0.00    +0.012 C 
ATOM     15  C   UNL     1      32.048 -24.272 -15.535  0.00  0.00    +0.000 C 
ATOM     16  C   UNL     1      31.921 -24.746 -14.234  0.00  0.00    +0.001 C 
ENDROOT
BRANCH   3  17
ATOM     17  O   UNL     1      37.653 -21.928 -15.748  0.00  0.00    -0.478 OA
BRANCH  17  18
ATOM     18  C   UNL     1      37.104 -21.096 -16.746  0.00  0.00    +0.183 C 
BRANCH  18  19
ATOM     19  C   UNL     1      36.832 -21.932 -17.986  0.00  0.00    -0.029 C 
BRANCH  19  20
ATOM     20  N   UNL     1      35.865 -21.273 -18.849  0.00  0.00    +0.387 N 
ATOM     21  C   UNL     1      34.796 -22.198 -19.231  0.00  0.00    -0.101 C 
ATOM     22  C   UNL     1      36.519 -20.736 -20.045  0.00  0.00    -0.101 C 
ATOM     23  H   UNL     1      35.455 -20.498 -18.328  0.00  0.00    -0.080 HD
ENDBRANCH  19  20
ENDBRANCH  18  19
ENDBRANCH  17  18
ENDBRANCH   3  17
TORSDOF 4
ENDMDL
MODEL 6
REMARK VINA RESULT:      -7.0      3.068      5.502
REMARK  Name = 5736
REMARK  4 active torsions:
REMARK  status: ('A' for Active; 'I' for Inactive)
REMARK    1  A    between atoms: C_3  and  O_17
REMARK    2  A    between atoms: O_17  and  C_18
REMARK    3  A    between atoms: C_18  and  C_19
REMARK    4  A    between atoms: C_19  and  N_20
REMARK                            x       y       z     vdW  Elec       q    Type
REMARK                         _______ _______ _______ _____ _____    ______ ____
ROOT
ATOM      1 CL   UNL     1      30.065 -11.007 -19.833  0.00  0.00    -0.082 Cl
ATOM      2  S   UNL     1      34.371 -11.427 -24.427  0.00  0.00    -0.087 S 
ATOM      3  C   UNL     1      33.605 -13.781 -22.389  0.00  0.00    +0.139 C 
ATOM      4  C   UNL     1      32.897 -12.488 -22.275  0.00  0.00    +0.041 C 
ATOM      5  C   UNL     1      33.470 -14.046 -24.898  0.00  0.00    +0.009 C 
ATOM      6  C   UNL     1      33.162 -11.381 -23.107  0.00  0.00    +0.032 C 
ATOM      7  C   UNL     1      33.841 -14.451 -23.531  0.00  0.00    +0.037 C 
ATOM      8  C   UNL     1      33.673 -12.749 -25.409  0.00  0.00    +0.030 C 
ATOM      9  C   UNL     1      31.930 -12.347 -21.261  0.00  0.00    +0.015 C 
ATOM     10  C   UNL     1      32.473 -10.174 -22.909  0.00  0.00    +0.007 C 
ATOM     11  C   UNL     1      32.950 -15.036 -25.747  0.00  0.00    +0.001 C 
ATOM     12  C   UNL     1      33.339 -12.467 -26.742  0.00  0.00    +0.006 C 
ATOM     13  C   UNL     1      31.245 -11.145 -21.079  0.00  0.00    +0.058 C 
ATOM     14  C   UNL     1      31.517 -10.058 -21.901  0.00  0.00    +0.012 C 
ATOM     15  C   UNL     1      32.615 -14.743 -27.069  0.00  0.00    +0.000 C 
ATOM     16  C   UNL     1      32.809 -13.459 -27.566  0.00  0.00    +0.001 C 
ENDROOT
BRANCH   3  17
ATOM     17  O   UNL     1      34.004 -14.301 -21.166  0.00  0.00    -0.478 OA
BRANCH  17  18
ATOM     18  C   UNL     1      33.577 -15.640 -21.039  0.00  0.00    +0.183 C 
BRANCH  18  19
ATOM     19  C   UNL     1      34.800 -16.543 -21.010  0.00  0.00    -0.029 C 
BRANCH  19  20
ATOM     20  N   UNL     1      34.591 -17.718 -21.840  0.00  0.00    +0.387 N 
ATOM     21  C   UNL     1      34.489 -18.924 -21.015  0.00  0.00    -0.101 C 
ATOM     22  C   UNL     1      35.675 -17.864 -22.815  0.00  0.00    -0.101 C 
ATOM     23  H   UNL     1      33.714 -17.595 -22.346  0.00  0.00    -0.080 HD
ENDBRANCH  19  20
ENDBRANCH  18  19
ENDBRANCH  17  18
ENDBRANCH   3  17
TORSDOF 4
ENDMDL
MODEL 7
REMARK VINA RESULT:      -7.0      0.761      1.018
REMARK  Name = 5736
REMARK  4 active torsions:
REMARK  status: ('A' for Active; 'I' for Inactive)
REMARK    1  A    between atoms: C_3  and  O_17
REMARK    2  A    between atoms: O_17  and  C_18
REMARK    3  A    between atoms: C_18  and  C_19
REMARK    4  A    between atoms: C_19  and  N_20
REMARK                            x       y       z     vdW  Elec       q    Type
REMARK                         _______ _______ _______ _____ _____    ______ ____
ROOT
ATOM      1 CL   UNL     1      35.560 -16.873 -20.810  0.00  0.00    -0.082 Cl
ATOM      2  S   UNL     1      33.115 -13.663 -25.663  0.00  0.00    -0.087 S 
ATOM      3  C   UNL     1      32.720 -12.922 -22.568  0.00  0.00    +0.139 C 
ATOM      4  C   UNL     1      33.549 -14.096 -22.915  0.00  0.00    +0.041 C 
ATOM      5  C   UNL     1      33.673 -11.299 -24.253  0.00  0.00    +0.009 C 
ATOM      6  C   UNL     1      33.779 -14.522 -24.238  0.00  0.00    +0.032 C 
ATOM      7  C   UNL     1      32.788 -11.712 -23.150  0.00  0.00    +0.037 C 
ATOM      8  C   UNL     1      33.880 -12.065 -25.416  0.00  0.00    +0.030 C 
ATOM      9  C   UNL     1      34.112 -14.845 -21.863  0.00  0.00    +0.015 C 
ATOM     10  C   UNL     1      34.547 -15.672 -24.482  0.00  0.00    +0.007 C 
ATOM     11  C   UNL     1      34.284 -10.037 -24.153  0.00  0.00    +0.001 C 
ATOM     12  C   UNL     1      34.699 -11.567 -26.441  0.00  0.00    +0.006 C 
ATOM     13  C   UNL     1      34.881 -15.982 -22.118  0.00  0.00    +0.058 C 
ATOM     14  C   UNL     1      35.097 -16.396 -23.426  0.00  0.00    +0.012 C 
ATOM     15  C   UNL     1      35.101  -9.555 -25.176  0.00  0.00    +0.000 C 
ATOM     16  C   UNL     1      35.309 -10.320 -26.318  0.00  0.00    +0.001 C 
ENDROOT
BRANCH   3  17
ATOM     17  O   UNL     1      31.840 -13.157 -21.522  0.00  0.00    -0.478 OA
BRANCH  17  18
ATOM     18  C   UNL     1      31.996 -12.178 -20.519  0.00  0.00    +0.183 C 
BRANCH  18  19
ATOM     19  C   UNL     1      31.072 -11.010 -20.827  0.00  0.00    -0.029 C 
BRANCH  19  20
ATOM     20  N   UNL     1      31.785  -9.747 -20.712  0.00  0.00    +0.387 N 
ATOM     21  C   UNL     1      31.570  -9.150 -19.392  0.00  0.00    -0.101 C 
ATOM     22  C   UNL     1      31.363  -8.816 -21.762  0.00  0.00    -0.101 C 
ATOM     23  H   UNL     1      32.780  -9.935 -20.826  0.00  0.00    -0.080 HD
ENDBRANCH  19  20
ENDBRANCH  18  19
ENDBRANCH  17  18
ENDBRANCH   3  17
TORSDOF 4
ENDMDL
MODEL 8
REMARK VINA RESULT:      -6.8      4.120      6.816
REMARK  Name = 5736
REMARK  4 active torsions:
REMARK  status: ('A' for Active; 'I' for Inactive)
REMARK    1  A    between atoms: C_3  and  O_17
REMARK    2  A    between atoms: O_17  and  C_18
REMARK    3  A    between atoms: C_18  and  C_19
REMARK    4  A    between atoms: C_19  and  N_20
REMARK                            x       y       z     vdW  Elec       q    Type
REMARK                         _______ _______ _______ _____ _____    ______ ____
ROOT
ATOM      1 CL   UNL     1      31.362 -12.753 -21.722  0.00  0.00    -0.082 Cl
ATOM      2  S   UNL     1      32.928  -6.693 -20.913  0.00  0.00    -0.087 S 
ATOM      3  C   UNL     1      33.825  -8.520 -23.391  0.00  0.00    +0.139 C 
ATOM      4  C   UNL     1      32.963  -9.116 -22.348  0.00  0.00    +0.041 C 
ATOM      5  C   UNL     1      32.585  -6.337 -23.679  0.00  0.00    +0.009 C 
ATOM      6  C   UNL     1      32.521  -8.411 -21.210  0.00  0.00    +0.032 C 
ATOM      7  C   UNL     1      33.646  -7.318 -23.967  0.00  0.00    +0.037 C 
ATOM      8  C   UNL     1      32.197  -5.969 -22.377  0.00  0.00    +0.030 C 
ATOM      9  C   UNL     1      32.591 -10.467 -22.485  0.00  0.00    +0.015 C 
ATOM     10  C   UNL     1      31.736  -9.061 -20.243  0.00  0.00    +0.007 C 
ATOM     11  C   UNL     1      31.986  -5.694 -24.774  0.00  0.00    +0.001 C 
ATOM     12  C   UNL     1      31.213  -4.984 -22.196  0.00  0.00    +0.006 C 
ATOM     13  C   UNL     1      31.804 -11.101 -21.522  0.00  0.00    +0.058 C 
ATOM     14  C   UNL     1      31.378 -10.399 -20.401  0.00  0.00    +0.012 C 
ATOM     15  C   UNL     1      31.004  -4.721 -24.583  0.00  0.00    +0.000 C 
ATOM     16  C   UNL     1      30.617  -4.367 -23.295  0.00  0.00    +0.001 C 
ENDROOT
BRANCH   3  17
ATOM     17  O   UNL     1      34.869  -9.345 -23.782  0.00  0.00    -0.478 OA
BRANCH  17  18
ATOM     18  C   UNL     1      34.908  -9.456 -25.188  0.00  0.00    +0.183 C 
BRANCH  18  19
ATOM     19  C   UNL     1      35.130 -10.914 -25.558  0.00  0.00    -0.029 C 
BRANCH  19  20
ATOM     20  N   UNL     1      33.869 -11.639 -25.569  0.00  0.00    +0.387 N 
ATOM     21  C   UNL     1      33.841 -12.646 -24.506  0.00  0.00    -0.101 C 
ATOM     22  C   UNL     1      33.647 -12.273 -26.871  0.00  0.00    -0.101 C 
ATOM     23  H   UNL     1      33.119 -10.969 -25.402  0.00  0.00    -0.080 HD
ENDBRANCH  19  20
ENDBRANCH  18  19
ENDBRANCH  17  18
ENDBRANCH   3  17
TORSDOF 4
ENDMDL
MODEL 9
REMARK VINA RESULT:      -6.8     10.812     13.955
REMARK  Name = 5736
REMARK  4 active torsions:
REMARK  status: ('A' for Active; 'I' for Inactive)
REMARK    1  A    between atoms: C_3  and  O_17
REMARK    2  A    between atoms: O_17  and  C_18
REMARK    3  A    between atoms: C_18  and  C_19
REMARK    4  A    between atoms: C_19  and  N_20
REMARK                            x       y       z     vdW  Elec       q    Type
REMARK                         _______ _______ _______ _____ _____    ______ ____
ROOT
ATOM      1 CL   UNL     1      37.269 -20.152 -19.247  0.00  0.00    -0.082 Cl
ATOM      2  S   UNL     1      32.748 -24.265 -17.676  0.00  0.00    -0.087 S 
ATOM      3  C   UNL     1      35.325 -23.580 -15.896  0.00  0.00    +0.139 C 
ATOM      4  C   UNL     1      35.149 -22.879 -17.186  0.00  0.00    +0.041 C 
ATOM      5  C   UNL     1      32.963 -23.342 -15.032  0.00  0.00    +0.009 C 
ATOM      6  C   UNL     1      34.064 -23.112 -18.054  0.00  0.00    +0.032 C 
ATOM      7  C   UNL     1      34.371 -23.767 -14.966  0.00  0.00    +0.037 C 
ATOM      8  C   UNL     1      32.145 -23.525 -16.163  0.00  0.00    +0.030 C 
ATOM      9  C   UNL     1      36.136 -21.954 -17.579  0.00  0.00    +0.015 C 
ATOM     10  C   UNL     1      33.991 -22.433 -19.282  0.00  0.00    +0.007 C 
ATOM     11  C   UNL     1      32.401 -22.785 -13.871  0.00  0.00    +0.001 C 
ATOM     12  C   UNL     1      30.797 -23.138 -16.117  0.00  0.00    +0.006 C 
ATOM     13  C   UNL     1      36.048 -21.280 -18.798  0.00  0.00    +0.058 C 
ATOM     14  C   UNL     1      34.977 -21.519 -19.649  0.00  0.00    +0.012 C 
ATOM     15  C   UNL     1      31.061 -22.397 -13.839  0.00  0.00    +0.000 C 
ATOM     16  C   UNL     1      30.260 -22.572 -14.961  0.00  0.00    +0.001 C 
ENDROOT
BRANCH   3  17
ATOM     17  O   UNL     1      36.621 -24.028 -15.682  0.00  0.00    -0.478 OA
BRANCH  17  18
ATOM     18  C   UNL     1      36.655 -24.940 -14.606  0.00  0.00    +0.183 C 
BRANCH  18  19
ATOM     19  C   UNL     1      37.529 -26.122 -14.995  0.00  0.00    -0.029 C 
BRANCH  19  20
ATOM     20  N   UNL     1      38.606 -26.303 -14.035  0.00  0.00    +0.387 N 
ATOM     21  C   UNL     1      38.268 -25.679 -12.754  0.00  0.00    -0.101 C 
ATOM     22  C   UNL     1      39.859 -25.747 -14.552  0.00  0.00    -0.101 C 
ATOM     23  H   UNL     1      38.732 -27.303 -13.887  0.00  0.00    -0.080 HD
ENDBRANCH  19  20
ENDBRANCH  18  19
ENDBRANCH  17  18
ENDBRANCH   3  17
TORSDOF 4
ENDMDL
