MODEL 1
REMARK VINA RESULT:      -7.6      0.000      0.000
REMARK  Name = 73927
REMARK  4 active torsions:
REMARK  status: ('A' for Active; 'I' for Inactive)
REMARK    1  A    between atoms: C_1  and  C_8
REMARK    2  A    between atoms: C_8  and  C_9
REMARK    3  A    between atoms: C_9  and  C_11
REMARK    4  A    between atoms: C_11  and  O_12
REMARK                            x       y       z     vdW  Elec       q    Type
REMARK                         _______ _______ _______ _____ _____    ______ ____
ROOT
ATOM      1  C   UNL     1      34.911 -19.421 -21.248  0.00  0.00    -0.022 C 
ATOM      2  C   UNL     1      33.536 -19.558 -21.053  0.00  0.00    -0.005 C 
ATOM      3  C   UNL     1      35.798 -20.263 -20.578  0.00  0.00    -0.005 C 
ATOM      4  C   UNL     1      33.936 -21.380 -19.518  0.00  0.00    -0.022 C 
ATOM      5  C   UNL     1      33.049 -20.537 -20.188  0.00  0.00    -0.005 C 
ATOM      6  C   UNL     1      35.310 -21.242 -19.712  0.00  0.00    -0.005 C 
ATOM      7  C   UNL     1      33.415 -22.426 -18.592  0.00  0.00    +0.031 C 
ENDROOT
BRANCH   1   8
ATOM      8  C   UNL     1      35.433 -18.374 -22.174  0.00  0.00    +0.038 C 
BRANCH   8   9
ATOM      9  C   UNL     1      35.014 -18.629 -23.624  0.00  0.00    +0.114 C 
BRANCH   9  11
ATOM     10  O   UNL     1      34.521 -17.245 -25.541  0.00  0.00    -0.250 OA
ATOM     11  C   UNL     1      35.019 -17.355 -24.429  0.00  0.00    +0.314 C 
BRANCH  11  12
ATOM     12  O   UNL     1      35.625 -16.330 -23.777  0.00  0.00    -0.480 OA
ATOM     13  H   UNL     1      35.807 -15.531 -24.230  0.00  0.00    +0.295 HD
ENDBRANCH  11  12
ENDBRANCH   9  11
ENDBRANCH   8   9
ENDBRANCH   1   8
TORSDOF 4
ENDMDL
MODEL 2
REMARK VINA RESULT:      -7.6      0.015      1.395
REMARK  Name = 73927
REMARK  4 active torsions:
REMARK  status: ('A' for Active; 'I' for Inactive)
REMARK    1  A    between atoms: C_1  and  C_8
REMARK    2  A    between atoms: C_8  and  C_9
REMARK    3  A    between atoms: C_9  and  C_11
REMARK    4  A    between atoms: C_11  and  O_12
REMARK                            x       y       z     vdW  Elec       q    Type
REMARK                         _______ _______ _______ _____ _____    ______ ____
ROOT
ATOM      1  C   UNL     1      34.906 -19.418 -21.244  0.00  0.00    -0.022 C 
ATOM      2  C   UNL     1      35.795 -20.260 -20.576  0.00  0.00    -0.005 C 
ATOM      3  C   UNL     1      33.531 -19.558 -21.050  0.00  0.00    -0.005 C 
ATOM      4  C   UNL     1      33.935 -21.382 -19.518  0.00  0.00    -0.022 C 
ATOM      5  C   UNL     1      35.309 -21.242 -19.713  0.00  0.00    -0.005 C 
ATOM      6  C   UNL     1      33.047 -20.540 -20.187  0.00  0.00    -0.005 C 
ATOM      7  C   UNL     1      33.416 -22.432 -18.596  0.00  0.00    +0.031 C 
ENDROOT
BRANCH   1   8
ATOM      8  C   UNL     1      35.425 -18.367 -22.167  0.00  0.00    +0.038 C 
BRANCH   8   9
ATOM      9  C   UNL     1      35.040 -18.640 -23.624  0.00  0.00    +0.114 C 
BRANCH   9  11
ATOM     10  O   UNL     1      34.504 -17.269 -25.539  0.00  0.00    -0.250 OA
ATOM     11  C   UNL     1      35.019 -17.369 -24.433  0.00  0.00    +0.314 C 
BRANCH  11  12
ATOM     12  O   UNL     1      35.623 -16.335 -23.794  0.00  0.00    -0.480 OA
ATOM     13  H   UNL     1      35.439 -15.454 -24.053  0.00  0.00    +0.295 HD
ENDBRANCH  11  12
ENDBRANCH   9  11
ENDBRANCH   8   9
ENDBRANCH   1   8
TORSDOF 4
ENDMDL
MODEL 3
REMARK VINA RESULT:      -7.3      1.109      1.560
REMARK  Name = 73927
REMARK  4 active torsions:
REMARK  status: ('A' for Active; 'I' for Inactive)
REMARK    1  A    between atoms: C_1  and  C_8
REMARK    2  A    between atoms: C_8  and  C_9
REMARK    3  A    between atoms: C_9  and  C_11
REMARK    4  A    between atoms: C_11  and  O_12
REMARK                            x       y       z     vdW  Elec       q    Type
REMARK                         _______ _______ _______ _____ _____    ______ ____
ROOT
ATOM      1  C   UNL     1      34.793 -19.360 -21.184  0.00  0.00    -0.022 C 
ATOM      2  C   UNL     1      33.441 -19.597 -20.933  0.00  0.00    -0.005 C 
ATOM      3  C   UNL     1      35.765 -20.161 -20.584  0.00  0.00    -0.005 C 
ATOM      4  C   UNL     1      34.034 -21.437 -19.483  0.00  0.00    -0.022 C 
ATOM      5  C   UNL     1      33.062 -20.635 -20.082  0.00  0.00    -0.005 C 
ATOM      6  C   UNL     1      35.385 -21.199 -19.733  0.00  0.00    -0.005 C 
ATOM      7  C   UNL     1      33.628 -22.546 -18.573  0.00  0.00    +0.031 C 
ENDROOT
BRANCH   1   8
ATOM      8  C   UNL     1      35.199 -18.250 -22.094  0.00  0.00    +0.038 C 
BRANCH   8   9
ATOM      9  C   UNL     1      34.783 -16.880 -21.551  0.00  0.00    +0.114 C 
BRANCH   9  11
ATOM     10  O   UNL     1      34.443 -14.689 -22.506  0.00  0.00    -0.250 OA
ATOM     11  C   UNL     1      34.930 -15.808 -22.598  0.00  0.00    +0.314 C 
BRANCH  11  12
ATOM     12  O   UNL     1      35.679 -16.211 -23.656  0.00  0.00    -0.480 OA
ATOM     13  H   UNL     1      36.610 -16.113 -23.634  0.00  0.00    +0.295 HD
ENDBRANCH  11  12
ENDBRANCH   9  11
ENDBRANCH   8   9
ENDBRANCH   1   8
TORSDOF 4
ENDMDL
MODEL 4
REMARK VINA RESULT:      -6.8      3.460      5.640
REMARK  Name = 73927
REMARK  4 active torsions:
REMARK  status: ('A' for Active; 'I' for Inactive)
REMARK    1  A    between atoms: C_1  and  C_8
REMARK    2  A    between atoms: C_8  and  C_9
REMARK    3  A    between atoms: C_9  and  C_11
REMARK    4  A    between atoms: C_11  and  O_12
REMARK                            x       y       z     vdW  Elec       q    Type
REMARK                         _______ _______ _______ _____ _____    ______ ____
ROOT
ATOM      1  C   UNL     1      34.876 -19.174 -21.522  0.00  0.00    -0.022 C 
ATOM      2  C   UNL     1      34.823 -17.853 -21.074  0.00  0.00    -0.005 C 
ATOM      3  C   UNL     1      34.872 -19.448 -22.889  0.00  0.00    -0.005 C 
ATOM      4  C   UNL     1      34.762 -17.082 -23.363  0.00  0.00    -0.022 C 
ATOM      5  C   UNL     1      34.765 -16.808 -21.995  0.00  0.00    -0.005 C 
ATOM      6  C   UNL     1      34.814 -18.402 -23.810  0.00  0.00    -0.005 C 
ATOM      7  C   UNL     1      34.700 -15.964 -24.347  0.00  0.00    +0.031 C 
ENDROOT
BRANCH   1   8
ATOM      8  C   UNL     1      34.938 -20.293 -20.537  0.00  0.00    +0.038 C 
BRANCH   8   9
ATOM      9  C   UNL     1      33.546 -20.717 -20.061  0.00  0.00    +0.114 C 
BRANCH   9  11
ATOM     10  O   UNL     1      32.685 -22.404 -18.562  0.00  0.00    -0.250 OA
ATOM     11  C   UNL     1      33.606 -21.986 -19.251  0.00  0.00    +0.314 C 
BRANCH  11  12
ATOM     12  O   UNL     1      34.794 -22.629 -19.378  0.00  0.00    -0.480 OA
ATOM     13  H   UNL     1      35.587 -22.203 -19.120  0.00  0.00    +0.295 HD
ENDBRANCH  11  12
ENDBRANCH   9  11
ENDBRANCH   8   9
ENDBRANCH   1   8
TORSDOF 4
ENDMDL
MODEL 5
REMARK VINA RESULT:      -6.8      4.410      6.206
REMARK  Name = 73927
REMARK  4 active torsions:
REMARK  status: ('A' for Active; 'I' for Inactive)
REMARK    1  A    between atoms: C_1  and  C_8
REMARK    2  A    between atoms: C_8  and  C_9
REMARK    3  A    between atoms: C_9  and  C_11
REMARK    4  A    between atoms: C_11  and  O_12
REMARK                            x       y       z     vdW  Elec       q    Type
REMARK                         _______ _______ _______ _____ _____    ______ ____
ROOT
ATOM      1  C   UNL     1      34.682 -21.122 -19.836  0.00  0.00    -0.022 C 
ATOM      2  C   UNL     1      33.522 -20.475 -20.265  0.00  0.00    -0.005 C 
ATOM      3  C   UNL     1      35.933 -20.592 -20.149  0.00  0.00    -0.005 C 
ATOM      4  C   UNL     1      34.867 -18.767 -21.319  0.00  0.00    -0.022 C 
ATOM      5  C   UNL     1      33.615 -19.298 -21.007  0.00  0.00    -0.005 C 
ATOM      6  C   UNL     1      36.026 -19.415 -20.891  0.00  0.00    -0.005 C 
ATOM      7  C   UNL     1      34.966 -17.509 -22.112  0.00  0.00    +0.031 C 
ENDROOT
BRANCH   1   8
ATOM      8  C   UNL     1      34.582 -22.382 -19.043  0.00  0.00    +0.038 C 
BRANCH   8   9
ATOM      9  C   UNL     1      33.230 -22.511 -18.337  0.00  0.00    +0.114 C 
BRANCH   9  11
ATOM     10  O   UNL     1      32.419 -23.518 -16.297  0.00  0.00    -0.250 OA
ATOM     11  C   UNL     1      33.360 -23.264 -17.038  0.00  0.00    +0.314 C 
BRANCH  11  12
ATOM     12  O   UNL     1      34.636 -23.646 -16.783  0.00  0.00    -0.480 OA
ATOM     13  H   UNL     1      34.804 -24.466 -16.362  0.00  0.00    +0.295 HD
ENDBRANCH  11  12
ENDBRANCH   9  11
ENDBRANCH   8   9
ENDBRANCH   1   8
TORSDOF 4
ENDMDL
MODEL 6
REMARK VINA RESULT:      -6.7      8.456      9.374
REMARK  Name = 73927
REMARK  4 active torsions:
REMARK  status: ('A' for Active; 'I' for Inactive)
REMARK    1  A    between atoms: C_1  and  C_8
REMARK    2  A    between atoms: C_8  and  C_9
REMARK    3  A    between atoms: C_9  and  C_11
REMARK    4  A    between atoms: C_11  and  O_12
REMARK                            x       y       z     vdW  Elec       q    Type
REMARK                         _______ _______ _______ _____ _____    ______ ____
ROOT
ATOM      1  C   UNL     1      30.109 -24.077 -15.129  0.00  0.00    -0.022 C 
ATOM      2  C   UNL     1      31.043 -23.137 -15.566  0.00  0.00    -0.005 C 
ATOM      3  C   UNL     1      30.474 -25.038 -14.186  0.00  0.00    -0.005 C 
ATOM      4  C   UNL     1      32.707 -24.119 -14.116  0.00  0.00    -0.022 C 
ATOM      5  C   UNL     1      32.342 -23.159 -15.060  0.00  0.00    -0.005 C 
ATOM      6  C   UNL     1      31.773 -25.059 -13.680  0.00  0.00    -0.005 C 
ATOM      7  C   UNL     1      34.096 -24.143 -13.575  0.00  0.00    +0.031 C 
ENDROOT
BRANCH   1   8
ATOM      8  C   UNL     1      28.719 -24.054 -15.671  0.00  0.00    +0.038 C 
BRANCH   8   9
ATOM      9  C   UNL     1      28.151 -22.634 -15.736  0.00  0.00    +0.114 C 
BRANCH   9  11
ATOM     10  O   UNL     1      26.961 -21.308 -17.367  0.00  0.00    -0.250 OA
ATOM     11  C   UNL     1      27.531 -22.353 -17.081  0.00  0.00    +0.314 C 
BRANCH  11  12
ATOM     12  O   UNL     1      27.685 -23.383 -17.951  0.00  0.00    -0.480 OA
ATOM     13  H   UNL     1      27.566 -23.241 -18.869  0.00  0.00    +0.295 HD
ENDBRANCH  11  12
ENDBRANCH   9  11
ENDBRANCH   8   9
ENDBRANCH   1   8
TORSDOF 4
ENDMDL
MODEL 7
REMARK VINA RESULT:      -6.6      5.008      6.809
REMARK  Name = 73927
REMARK  4 active torsions:
REMARK  status: ('A' for Active; 'I' for Inactive)
REMARK    1  A    between atoms: C_1  and  C_8
REMARK    2  A    between atoms: C_8  and  C_9
REMARK    3  A    between atoms: C_9  and  C_11
REMARK    4  A    between atoms: C_11  and  O_12
REMARK                            x       y       z     vdW  Elec       q    Type
REMARK                         _______ _______ _______ _____ _____    ______ ____
ROOT
ATOM      1  C   UNL     1      34.245 -21.799 -18.933  0.00  0.00    -0.022 C 
ATOM      2  C   UNL     1      33.104 -21.194 -19.462  0.00  0.00    -0.005 C 
ATOM      3  C   UNL     1      35.505 -21.471 -19.435  0.00  0.00    -0.005 C 
ATOM      4  C   UNL     1      34.484 -19.933 -20.993  0.00  0.00    -0.022 C 
ATOM      5  C   UNL     1      33.224 -20.262 -20.492  0.00  0.00    -0.005 C 
ATOM      6  C   UNL     1      35.624 -20.539 -20.465  0.00  0.00    -0.005 C 
ATOM      7  C   UNL     1      34.612 -18.937 -22.095  0.00  0.00    +0.031 C 
ENDROOT
BRANCH   1   8
ATOM      8  C   UNL     1      34.117 -22.796 -17.831  0.00  0.00    +0.038 C 
BRANCH   8   9
ATOM      9  C   UNL     1      35.225 -22.643 -16.786  0.00  0.00    +0.114 C 
BRANCH   9  11
ATOM     10  O   UNL     1      35.239 -24.803 -15.707  0.00  0.00    -0.250 OA
ATOM     11  C   UNL     1      35.032 -23.599 -15.637  0.00  0.00    +0.314 C 
BRANCH  11  12
ATOM     12  O   UNL     1      34.616 -22.976 -14.506  0.00  0.00    -0.480 OA
ATOM     13  H   UNL     1      35.172 -22.954 -13.752  0.00  0.00    +0.295 HD
ENDBRANCH  11  12
ENDBRANCH   9  11
ENDBRANCH   8   9
ENDBRANCH   1   8
TORSDOF 4
ENDMDL
MODEL 8
REMARK VINA RESULT:      -6.5      3.392      5.729
REMARK  Name = 73927
REMARK  4 active torsions:
REMARK  status: ('A' for Active; 'I' for Inactive)
REMARK    1  A    between atoms: C_1  and  C_8
REMARK    2  A    between atoms: C_8  and  C_9
REMARK    3  A    between atoms: C_9  and  C_11
REMARK    4  A    between atoms: C_11  and  O_12
REMARK                            x       y       z     vdW  Elec       q    Type
REMARK                         _______ _______ _______ _____ _____    ______ ____
ROOT
ATOM      1  C   UNL     1      34.974 -17.249 -21.653  0.00  0.00    -0.022 C 
ATOM      2  C   UNL     1      34.927 -17.107 -23.040  0.00  0.00    -0.005 C 
ATOM      3  C   UNL     1      34.694 -16.158 -20.830  0.00  0.00    -0.005 C 
ATOM      4  C   UNL     1      34.320 -14.783 -22.780  0.00  0.00    -0.022 C 
ATOM      5  C   UNL     1      34.600 -15.874 -23.603  0.00  0.00    -0.005 C 
ATOM      6  C   UNL     1      34.368 -14.925 -21.394  0.00  0.00    -0.005 C 
ATOM      7  C   UNL     1      33.971 -13.465 -23.383  0.00  0.00    +0.031 C 
ENDROOT
BRANCH   1   8
ATOM      8  C   UNL     1      35.323 -18.568 -21.049  0.00  0.00    +0.038 C 
BRANCH   8   9
ATOM      9  C   UNL     1      34.343 -19.668 -21.466  0.00  0.00    +0.114 C 
BRANCH   9  11
ATOM     10  O   UNL     1      32.646 -20.427 -19.924  0.00  0.00    -0.250 OA
ATOM     11  C   UNL     1      33.820 -20.419 -20.269  0.00  0.00    +0.314 C 
BRANCH  11  12
ATOM     12  O   UNL     1      34.794 -21.105 -19.618  0.00  0.00    -0.480 OA
ATOM     13  H   UNL     1      34.653 -21.997 -19.371  0.00  0.00    +0.295 HD
ENDBRANCH  11  12
ENDBRANCH   9  11
ENDBRANCH   8   9
ENDBRANCH   1   8
TORSDOF 4
ENDMDL
MODEL 9
REMARK VINA RESULT:      -6.4      3.470      5.129
REMARK  Name = 73927
REMARK  4 active torsions:
REMARK  status: ('A' for Active; 'I' for Inactive)
REMARK    1  A    between atoms: C_1  and  C_8
REMARK    2  A    between atoms: C_8  and  C_9
REMARK    3  A    between atoms: C_9  and  C_11
REMARK    4  A    between atoms: C_11  and  O_12
REMARK                            x       y       z     vdW  Elec       q    Type
REMARK                         _______ _______ _______ _____ _____    ______ ____
ROOT
ATOM      1  C   UNL     1      34.098 -16.355 -24.912  0.00  0.00    -0.022 C 
ATOM      2  C   UNL     1      34.410 -15.689 -23.726  0.00  0.00    -0.005 C 
ATOM      3  C   UNL     1      34.431 -17.701 -25.064  0.00  0.00    -0.005 C 
ATOM      4  C   UNL     1      35.387 -17.715 -22.846  0.00  0.00    -0.022 C 
ATOM      5  C   UNL     1      35.055 -16.369 -22.694  0.00  0.00    -0.005 C 
ATOM      6  C   UNL     1      35.076 -18.381 -24.031  0.00  0.00    -0.005 C 
ATOM      7  C   UNL     1      36.077 -18.442 -21.742  0.00  0.00    +0.031 C 
ENDROOT
BRANCH   1   8
ATOM      8  C   UNL     1      33.408 -15.628 -26.017  0.00  0.00    +0.038 C 
BRANCH   8   9
ATOM      9  C   UNL     1      33.030 -14.200 -25.616  0.00  0.00    +0.114 C 
BRANCH   9  11
ATOM     10  O   UNL     1      33.765 -13.467 -27.797  0.00  0.00    -0.250 OA
ATOM     11  C   UNL     1      33.524 -13.198 -26.628  0.00  0.00    +0.314 C 
BRANCH  11  12
ATOM     12  O   UNL     1      33.657 -11.953 -26.105  0.00  0.00    -0.480 OA
ATOM     13  H   UNL     1      34.467 -11.490 -26.199  0.00  0.00    +0.295 HD
ENDBRANCH  11  12
ENDBRANCH   9  11
ENDBRANCH   8   9
ENDBRANCH   1   8
TORSDOF 4
ENDMDL
