MODEL 1
REMARK VINA RESULT:     -10.2      0.000      0.000
REMARK  Name = 17754079
REMARK  14 active torsions:
REMARK  status: ('A' for Active; 'I' for Inactive)
REMARK    1  A    between atoms: C_1  and  N_3
REMARK    2  A    between atoms: C_1  and  C_20
REMARK    3  A    between atoms: C_1  and  C_31
REMARK    4  A    between atoms: C_4  and  C_6
REMARK    5  A    between atoms: C_6  and  O_7
REMARK    6  A    between atoms: C_6  and  C_14
REMARK    7  A    between atoms: O_7  and  P_8
REMARK    8  A    between atoms: P_8  and  O_10
REMARK    9  A    between atoms: P_8  and  O_12
REMARK   10  A    between atoms: C_14  and  C_15
REMARK   11  A    between atoms: C_15  and  C_16
REMARK   12  A    between atoms: N_19  and  C_22
REMARK   13  A    between atoms: C_27  and  N_30
REMARK   14  A    between atoms: C_31  and  C_32
REMARK                            x       y       z     vdW  Elec       q    Type
REMARK                         _______ _______ _______ _____ _____    ______ ____
ROOT
ATOM      1  C   UNL     1      34.911 -24.018 -15.483  0.00  0.00    +0.149 C 
ENDROOT
BRANCH   1   3
ATOM      2  O   UNL     1      36.157 -26.603 -15.726  0.00  0.00    -0.272 OA
ATOM      3  N   UNL     1      36.078 -24.487 -14.775  0.00  0.00    -0.296 N 
ATOM      4  C   UNL     1      36.609 -25.755 -14.960  0.00  0.00    +0.251 C 
ATOM      5  H   UNL     1      36.517 -23.881 -14.136  0.00  0.00    +0.150 HD
BRANCH   4   6
ATOM      6  C   UNL     1      37.826 -26.012 -14.081  0.00  0.00    +0.202 C 
BRANCH   6   7
ATOM      7  O   UNL     1      38.836 -25.076 -14.428  0.00  0.00    -0.267 OA
BRANCH   7   8
ATOM      8  P   UNL     1      40.334 -25.626 -14.697  0.00  0.00    +0.473 P 
ATOM      9  O   UNL     1      40.778 -26.731 -13.785  0.00  0.00    -0.227 OA
BRANCH   8  10
ATOM     10  O   UNL     1      40.299 -26.010 -16.268  0.00  0.00    -0.303 OA
ATOM     11  H   UNL     1      39.382 -26.164 -16.542  0.00  0.00    +0.222 HD
ENDBRANCH   8  10
BRANCH   8  12
ATOM     12  O   UNL     1      41.246 -24.291 -14.662  0.00  0.00    -0.303 OA
ATOM     13  H   UNL     1      42.040 -24.427 -15.204  0.00  0.00    +0.222 HD
ENDBRANCH   8  12
ENDBRANCH   7   8
ENDBRANCH   6   7
BRANCH   6  14
ATOM     14  C   UNL     1      37.475 -25.890 -12.594  0.00  0.00    +0.040 C 
BRANCH  14  15
ATOM     15  C   UNL     1      38.041 -24.607 -11.974  0.00  0.00    +0.003 C 
BRANCH  15  16
ATOM     16  C   UNL     1      36.959 -23.651 -11.467  0.00  0.00    +0.000 C 
ATOM     17  C   UNL     1      35.632 -24.336 -11.176  0.00  0.00    +0.000 C 
ENDBRANCH  15  16
ENDBRANCH  14  15
ENDBRANCH   6  14
ENDBRANCH   4   6
ENDBRANCH   1   3
BRANCH   1  20
ATOM     18  O   UNL     1      36.228 -22.076 -16.052  0.00  0.00    -0.273 OA
ATOM     19  N   UNL     1      34.630 -22.863 -17.580  0.00  0.00    -0.283 N 
ATOM     20  C   UNL     1      35.361 -22.875 -16.395  0.00  0.00    +0.244 C 
ATOM     21  H   UNL     1      33.945 -23.563 -17.676  0.00  0.00    +0.155 HD
BRANCH  19  22
ATOM     22  C   UNL     1      34.758 -21.962 -18.664  0.00  0.00    +0.050 C 
ATOM     23  C   UNL     1      33.616 -21.448 -19.281  0.00  0.00    +0.016 C 
ATOM     24  C   UNL     1      36.023 -21.585 -19.113  0.00  0.00    +0.016 C 
ATOM     25  C   UNL     1      33.741 -20.557 -20.347  0.00  0.00    +0.025 C 
ATOM     26  C   UNL     1      36.148 -20.694 -20.179  0.00  0.00    +0.025 C 
ATOM     27  C   UNL     1      35.007 -20.181 -20.796  0.00  0.00    +0.143 C 
BRANCH  27  30
ATOM     28  O   UNL     1      36.085 -18.454 -21.880  0.00  0.00    -0.126 OA
ATOM     29  O   UNL     1      34.295 -19.317 -22.813  0.00  0.00    -0.126 OA
ATOM     30  N   UNL     1      35.135 -19.274 -21.882  0.00  0.00    +0.058 N 
ENDBRANCH  27  30
ENDBRANCH  19  22
ENDBRANCH   1  20
BRANCH   1  31
ATOM     31  C   UNL     1      33.810 -23.532 -14.530  0.00  0.00    +0.029 C 
BRANCH  31  32
ATOM     32  C   UNL     1      32.392 -24.033 -14.870  0.00  0.00    +0.002 C 
ATOM     33  C   UNL     1      31.388 -22.888 -15.009  0.00  0.00    +0.000 C 
ATOM     34  C   UNL     1      31.916 -25.008 -13.789  0.00  0.00    +0.000 C 
ENDBRANCH  31  32
ENDBRANCH   1  31
TORSDOF 14
ENDMDL
MODEL 2
REMARK VINA RESULT:      -9.8      2.322      3.089
REMARK  Name = 17754079
REMARK  14 active torsions:
REMARK  status: ('A' for Active; 'I' for Inactive)
REMARK    1  A    between atoms: C_1  and  N_3
REMARK    2  A    between atoms: C_1  and  C_20
REMARK    3  A    between atoms: C_1  and  C_31
REMARK    4  A    between atoms: C_4  and  C_6
REMARK    5  A    between atoms: C_6  and  O_7
REMARK    6  A    between atoms: C_6  and  C_14
REMARK    7  A    between atoms: O_7  and  P_8
REMARK    8  A    between atoms: P_8  and  O_10
REMARK    9  A    between atoms: P_8  and  O_12
REMARK   10  A    between atoms: C_14  and  C_15
REMARK   11  A    between atoms: C_15  and  C_16
REMARK   12  A    between atoms: N_19  and  C_22
REMARK   13  A    between atoms: C_27  and  N_30
REMARK   14  A    between atoms: C_31  and  C_32
REMARK                            x       y       z     vdW  Elec       q    Type
REMARK                         _______ _______ _______ _____ _____    ______ ____
ROOT
ATOM      1  C   UNL     1      34.187 -23.748 -16.115  0.00  0.00    +0.149 C 
ENDROOT
BRANCH   1   3
ATOM      2  O   UNL     1      35.688 -26.161 -15.644  0.00  0.00    -0.272 OA
ATOM      3  N   UNL     1      35.152 -23.977 -15.066  0.00  0.00    -0.296 N 
ATOM      4  C   UNL     1      35.829 -25.179 -14.918  0.00  0.00    +0.251 C 
ATOM      5  H   UNL     1      35.337 -23.251 -14.429  0.00  0.00    +0.150 HD
BRANCH   4   6
ATOM      6  C   UNL     1      36.774 -25.173 -13.723  0.00  0.00    +0.202 C 
BRANCH   6   7
ATOM      7  O   UNL     1      36.025 -25.479 -12.557  0.00  0.00    -0.267 OA
BRANCH   7   8
ATOM      8  P   UNL     1      35.817 -24.318 -11.450  0.00  0.00    +0.473 P 
ATOM      9  O   UNL     1      37.032 -23.483 -11.169  0.00  0.00    -0.227 OA
BRANCH   8  10
ATOM     10  O   UNL     1      34.545 -23.500 -12.021  0.00  0.00    -0.303 OA
ATOM     11  H   UNL     1      33.742 -24.031 -11.907  0.00  0.00    +0.222 HD
ENDBRANCH   8  10
BRANCH   8  12
ATOM     12  O   UNL     1      35.210 -25.105 -10.175  0.00  0.00    -0.303 OA
ATOM     13  H   UNL     1      34.534 -25.734 -10.475  0.00  0.00    +0.222 HD
ENDBRANCH   8  12
ENDBRANCH   7   8
ENDBRANCH   6   7
BRANCH   6  14
ATOM     14  C   UNL     1      37.911 -26.184 -13.908  0.00  0.00    +0.040 C 
BRANCH  14  15
ATOM     15  C   UNL     1      39.181 -25.762 -13.161  0.00  0.00    +0.003 C 
BRANCH  15  16
ATOM     16  C   UNL     1      40.419 -25.700 -14.059  0.00  0.00    +0.000 C 
ATOM     17  C   UNL     1      40.123 -25.197 -15.464  0.00  0.00    +0.000 C 
ENDBRANCH  15  16
ENDBRANCH  14  15
ENDBRANCH   6  14
ENDBRANCH   4   6
ENDBRANCH   1   3
BRANCH   1  20
ATOM     18  O   UNL     1      36.007 -22.454 -17.031  0.00  0.00    -0.273 OA
ATOM     19  N   UNL     1      33.914 -22.393 -18.090  0.00  0.00    -0.283 N 
ATOM     20  C   UNL     1      34.835 -22.804 -17.129  0.00  0.00    +0.244 C 
ATOM     21  H   UNL     1      33.000 -22.748 -17.996  0.00  0.00    +0.155 HD
BRANCH  19  22
ATOM     22  C   UNL     1      34.138 -21.524 -19.184  0.00  0.00    +0.050 C 
ATOM     23  C   UNL     1      33.065 -20.853 -19.773  0.00  0.00    +0.016 C 
ATOM     24  C   UNL     1      35.430 -21.335 -19.672  0.00  0.00    +0.016 C 
ATOM     25  C   UNL     1      33.285 -19.995 -20.849  0.00  0.00    +0.025 C 
ATOM     26  C   UNL     1      35.651 -20.476 -20.749  0.00  0.00    +0.025 C 
ATOM     27  C   UNL     1      34.578 -19.806 -21.337  0.00  0.00    +0.143 C 
BRANCH  27  30
ATOM     28  O   UNL     1      34.618 -19.359 -23.599  0.00  0.00    -0.126 OA
ATOM     29  O   UNL     1      35.179 -17.757 -22.208  0.00  0.00    -0.126 OA
ATOM     30  N   UNL     1      34.803 -18.932 -22.434  0.00  0.00    +0.058 N 
ENDBRANCH  27  30
ENDBRANCH  19  22
ENDBRANCH   1  20
BRANCH   1  31
ATOM     31  C   UNL     1      32.883 -23.139 -15.582  0.00  0.00    +0.029 C 
BRANCH  31  32
ATOM     32  C   UNL     1      31.731 -24.145 -15.388  0.00  0.00    +0.002 C 
ATOM     33  C   UNL     1      30.356 -23.491 -15.538  0.00  0.00    +0.000 C 
ATOM     34  C   UNL     1      31.842 -24.798 -14.008  0.00  0.00    +0.000 C 
ENDBRANCH  31  32
ENDBRANCH   1  31
TORSDOF 14
ENDMDL
MODEL 3
REMARK VINA RESULT:      -9.3      2.607      3.413
REMARK  Name = 17754079
REMARK  14 active torsions:
REMARK  status: ('A' for Active; 'I' for Inactive)
REMARK    1  A    between atoms: C_1  and  N_3
REMARK    2  A    between atoms: C_1  and  C_20
REMARK    3  A    between atoms: C_1  and  C_31
REMARK    4  A    between atoms: C_4  and  C_6
REMARK    5  A    between atoms: C_6  and  O_7
REMARK    6  A    between atoms: C_6  and  C_14
REMARK    7  A    between atoms: O_7  and  P_8
REMARK    8  A    between atoms: P_8  and  O_10
REMARK    9  A    between atoms: P_8  and  O_12
REMARK   10  A    between atoms: C_14  and  C_15
REMARK   11  A    between atoms: C_15  and  C_16
REMARK   12  A    between atoms: N_19  and  C_22
REMARK   13  A    between atoms: C_27  and  N_30
REMARK   14  A    between atoms: C_31  and  C_32
REMARK                            x       y       z     vdW  Elec       q    Type
REMARK                         _______ _______ _______ _____ _____    ______ ____
ROOT
ATOM      1  C   UNL     1      33.215 -23.643 -16.883  0.00  0.00    +0.149 C 
ENDROOT
BRANCH   1   3
ATOM      2  O   UNL     1      33.686 -25.003 -14.387  0.00  0.00    -0.272 OA
ATOM      3  N   UNL     1      34.395 -23.553 -16.057  0.00  0.00    -0.296 N 
ATOM      4  C   UNL     1      34.532 -24.250 -14.864  0.00  0.00    +0.251 C 
ATOM      5  H   UNL     1      35.133 -22.974 -16.351  0.00  0.00    +0.150 HD
BRANCH   4   6
ATOM      6  C   UNL     1      35.859 -23.966 -14.173  0.00  0.00    +0.202 C 
BRANCH   6   7
ATOM      7  O   UNL     1      36.038 -24.919 -13.136  0.00  0.00    -0.267 OA
BRANCH   7   8
ATOM      8  P   UNL     1      36.276 -24.380 -11.629  0.00  0.00    +0.473 P 
ATOM      9  O   UNL     1      35.316 -24.912 -10.606  0.00  0.00    -0.227 OA
BRANCH   8  10
ATOM     10  O   UNL     1      37.830 -24.740 -11.360  0.00  0.00    -0.303 OA
ATOM     11  H   UNL     1      38.131 -24.289 -10.557  0.00  0.00    +0.222 HD
ENDBRANCH   8  10
BRANCH   8  12
ATOM     12  O   UNL     1      36.291 -22.772 -11.793  0.00  0.00    -0.303 OA
ATOM     13  H   UNL     1      35.450 -22.478 -12.180  0.00  0.00    +0.222 HD
ENDBRANCH   8  12
ENDBRANCH   7   8
ENDBRANCH   6   7
BRANCH   6  14
ATOM     14  C   UNL     1      37.027 -24.030 -15.163  0.00  0.00    +0.040 C 
BRANCH  14  15
ATOM     15  C   UNL     1      37.924 -25.249 -14.917  0.00  0.00    +0.003 C 
BRANCH  15  16
ATOM     16  C   UNL     1      39.417 -24.914 -14.927  0.00  0.00    +0.000 C 
ATOM     17  C   UNL     1      40.271 -25.928 -14.181  0.00  0.00    +0.000 C 
ENDBRANCH  15  16
ENDBRANCH  14  15
ENDBRANCH   6  14
ENDBRANCH   4   6
ENDBRANCH   1   3
BRANCH   1  20
ATOM     18  O   UNL     1      33.838 -24.035 -19.182  0.00  0.00    -0.273 OA
ATOM     19  N   UNL     1      33.728 -21.830 -18.386  0.00  0.00    -0.283 N 
ATOM     20  C   UNL     1      33.615 -23.215 -18.296  0.00  0.00    +0.244 C 
ATOM     21  H   UNL     1      33.544 -21.324 -17.562  0.00  0.00    +0.155 HD
BRANCH  19  22
ATOM     22  C   UNL     1      34.077 -21.065 -19.524  0.00  0.00    +0.050 C 
ATOM     23  C   UNL     1      35.415 -20.950 -19.903  0.00  0.00    +0.016 C 
ATOM     24  C   UNL     1      33.085 -20.427 -20.268  0.00  0.00    +0.016 C 
ATOM     25  C   UNL     1      35.760 -20.199 -21.026  0.00  0.00    +0.025 C 
ATOM     26  C   UNL     1      33.430 -19.676 -21.392  0.00  0.00    +0.025 C 
ATOM     27  C   UNL     1      34.768 -19.561 -21.770  0.00  0.00    +0.143 C 
BRANCH  27  30
ATOM     28  O   UNL     1      34.957 -19.295 -24.053  0.00  0.00    -0.126 OA
ATOM     29  O   UNL     1      35.579 -17.640 -22.754  0.00  0.00    -0.126 OA
ATOM     30  N   UNL     1      35.118 -18.795 -22.913  0.00  0.00    +0.058 N 
ENDBRANCH  27  30
ENDBRANCH  19  22
ENDBRANCH   1  20
BRANCH   1  31
ATOM     31  C   UNL     1      32.074 -22.757 -16.365  0.00  0.00    +0.029 C 
BRANCH  31  32
ATOM     32  C   UNL     1      30.850 -23.526 -15.828  0.00  0.00    +0.002 C 
ATOM     33  C   UNL     1      29.546 -23.081 -16.492  0.00  0.00    +0.000 C 
ATOM     34  C   UNL     1      30.746 -23.338 -14.312  0.00  0.00    +0.000 C 
ENDBRANCH  31  32
ENDBRANCH   1  31
TORSDOF 14
ENDMDL
MODEL 4
REMARK VINA RESULT:      -9.1      1.792      2.483
REMARK  Name = 17754079
REMARK  14 active torsions:
REMARK  status: ('A' for Active; 'I' for Inactive)
REMARK    1  A    between atoms: C_1  and  N_3
REMARK    2  A    between atoms: C_1  and  C_20
REMARK    3  A    between atoms: C_1  and  C_31
REMARK    4  A    between atoms: C_4  and  C_6
REMARK    5  A    between atoms: C_6  and  O_7
REMARK    6  A    between atoms: C_6  and  C_14
REMARK    7  A    between atoms: O_7  and  P_8
REMARK    8  A    between atoms: P_8  and  O_10
REMARK    9  A    between atoms: P_8  and  O_12
REMARK   10  A    between atoms: C_14  and  C_15
REMARK   11  A    between atoms: C_15  and  C_16
REMARK   12  A    between atoms: N_19  and  C_22
REMARK   13  A    between atoms: C_27  and  N_30
REMARK   14  A    between atoms: C_31  and  C_32
REMARK                            x       y       z     vdW  Elec       q    Type
REMARK                         _______ _______ _______ _____ _____    ______ ____
ROOT
ATOM      1  C   UNL     1      33.167 -23.766 -16.905  0.00  0.00    +0.149 C 
ENDROOT
BRANCH   1   3
ATOM      2  O   UNL     1      33.441 -25.008 -14.320  0.00  0.00    -0.272 OA
ATOM      3  N   UNL     1      34.382 -23.913 -16.138  0.00  0.00    -0.296 N 
ATOM      4  C   UNL     1      34.415 -24.529 -14.896  0.00  0.00    +0.251 C 
ATOM      5  H   UNL     1      35.220 -23.561 -16.513  0.00  0.00    +0.150 HD
BRANCH   4   6
ATOM      6  C   UNL     1      35.812 -24.536 -14.287  0.00  0.00    +0.202 C 
BRANCH   6   7
ATOM      7  O   UNL     1      36.728 -24.993 -15.270  0.00  0.00    -0.267 OA
BRANCH   7   8
ATOM      8  P   UNL     1      37.385 -26.460 -15.087  0.00  0.00    +0.473 P 
ATOM      9  O   UNL     1      38.883 -26.481 -15.012  0.00  0.00    -0.227 OA
BRANCH   8  10
ATOM     10  O   UNL     1      36.628 -27.031 -13.776  0.00  0.00    -0.303 OA
ATOM     11  H   UNL     1      36.688 -27.999 -13.765  0.00  0.00    +0.222 HD
ENDBRANCH   8  10
BRANCH   8  12
ATOM     12  O   UNL     1      36.741 -27.323 -16.293  0.00  0.00    -0.303 OA
ATOM     13  H   UNL     1      37.450 -27.762 -16.791  0.00  0.00    +0.222 HD
ENDBRANCH   8  12
ENDBRANCH   7   8
ENDBRANCH   6   7
BRANCH   6  14
ATOM     14  C   UNL     1      36.210 -23.142 -13.792  0.00  0.00    +0.040 C 
BRANCH  14  15
ATOM     15  C   UNL     1      37.368 -23.197 -12.789  0.00  0.00    +0.003 C 
BRANCH  15  16
ATOM     16  C   UNL     1      36.906 -23.185 -11.330  0.00  0.00    +0.000 C 
ATOM     17  C   UNL     1      35.807 -24.194 -11.034  0.00  0.00    +0.000 C 
ENDBRANCH  15  16
ENDBRANCH  14  15
ENDBRANCH   6  14
ENDBRANCH   4   6
ENDBRANCH   1   3
BRANCH   1  20
ATOM     18  O   UNL     1      33.786 -24.100 -19.214  0.00  0.00    -0.273 OA
ATOM     19  N   UNL     1      33.686 -21.916 -18.361  0.00  0.00    -0.283 N 
ATOM     20  C   UNL     1      33.568 -23.303 -18.307  0.00  0.00    +0.244 C 
ATOM     21  H   UNL     1      33.505 -21.431 -17.524  0.00  0.00    +0.155 HD
BRANCH  19  22
ATOM     22  C   UNL     1      34.037 -21.123 -19.479  0.00  0.00    +0.050 C 
ATOM     23  C   UNL     1      33.046 -20.456 -20.200  0.00  0.00    +0.016 C 
ATOM     24  C   UNL     1      35.374 -21.006 -19.859  0.00  0.00    +0.016 C 
ATOM     25  C   UNL     1      33.392 -19.673 -21.300  0.00  0.00    +0.025 C 
ATOM     26  C   UNL     1      35.720 -20.221 -20.960  0.00  0.00    +0.025 C 
ATOM     27  C   UNL     1      34.728 -19.555 -21.680  0.00  0.00    +0.143 C 
BRANCH  27  30
ATOM     28  O   UNL     1      35.776 -17.728 -22.620  0.00  0.00    -0.126 OA
ATOM     29  O   UNL     1      34.690 -19.103 -23.941  0.00  0.00    -0.126 OA
ATOM     30  N   UNL     1      35.081 -18.758 -22.801  0.00  0.00    +0.058 N 
ENDBRANCH  27  30
ENDBRANCH  19  22
ENDBRANCH   1  20
BRANCH   1  31
ATOM     31  C   UNL     1      32.198 -22.759 -16.272  0.00  0.00    +0.029 C 
BRANCH  31  32
ATOM     32  C   UNL     1      30.847 -23.353 -15.825  0.00  0.00    +0.002 C 
ATOM     33  C   UNL     1      29.665 -22.748 -16.584  0.00  0.00    +0.000 C 
ATOM     34  C   UNL     1      30.659 -23.135 -14.321  0.00  0.00    +0.000 C 
ENDBRANCH  31  32
ENDBRANCH   1  31
TORSDOF 14
ENDMDL
MODEL 5
REMARK VINA RESULT:      -9.1      2.701      3.627
REMARK  Name = 17754079
REMARK  14 active torsions:
REMARK  status: ('A' for Active; 'I' for Inactive)
REMARK    1  A    between atoms: C_1  and  N_3
REMARK    2  A    between atoms: C_1  and  C_20
REMARK    3  A    between atoms: C_1  and  C_31
REMARK    4  A    between atoms: C_4  and  C_6
REMARK    5  A    between atoms: C_6  and  O_7
REMARK    6  A    between atoms: C_6  and  C_14
REMARK    7  A    between atoms: O_7  and  P_8
REMARK    8  A    between atoms: P_8  and  O_10
REMARK    9  A    between atoms: P_8  and  O_12
REMARK   10  A    between atoms: C_14  and  C_15
REMARK   11  A    between atoms: C_15  and  C_16
REMARK   12  A    between atoms: N_19  and  C_22
REMARK   13  A    between atoms: C_27  and  N_30
REMARK   14  A    between atoms: C_31  and  C_32
REMARK                            x       y       z     vdW  Elec       q    Type
REMARK                         _______ _______ _______ _____ _____    ______ ____
ROOT
ATOM      1  C   UNL     1      32.036 -23.830 -16.157  0.00  0.00    +0.149 C 
ENDROOT
BRANCH   1   3
ATOM      2  O   UNL     1      32.539 -24.797 -13.491  0.00  0.00    -0.272 OA
ATOM      3  N   UNL     1      33.309 -23.874 -15.478  0.00  0.00    -0.296 N 
ATOM      4  C   UNL     1      33.454 -24.361 -14.187  0.00  0.00    +0.251 C 
ATOM      5  H   UNL     1      34.107 -23.547 -15.950  0.00  0.00    +0.150 HD
BRANCH   4   6
ATOM      6  C   UNL     1      34.892 -24.280 -13.691  0.00  0.00    +0.202 C 
BRANCH   6   7
ATOM      7  O   UNL     1      34.976 -24.952 -12.444  0.00  0.00    -0.267 OA
BRANCH   7   8
ATOM      8  P   UNL     1      35.943 -24.337 -11.302  0.00  0.00    +0.473 P 
ATOM      9  O   UNL     1      35.407 -24.422  -9.903  0.00  0.00    -0.227 OA
BRANCH   8  10
ATOM     10  O   UNL     1      37.335 -25.122 -11.549  0.00  0.00    -0.303 OA
ATOM     11  H   UNL     1      37.394 -25.390 -12.479  0.00  0.00    +0.222 HD
ENDBRANCH   8  10
BRANCH   8  12
ATOM     12  O   UNL     1      36.261 -22.842 -11.831  0.00  0.00    -0.303 OA
ATOM     13  H   UNL     1      36.885 -22.887 -12.573  0.00  0.00    +0.222 HD
ENDBRANCH   8  12
ENDBRANCH   7   8
ENDBRANCH   6   7
BRANCH   6  14
ATOM     14  C   UNL     1      35.863 -24.902 -14.700  0.00  0.00    +0.040 C 
BRANCH  14  15
ATOM     15  C   UNL     1      36.976 -23.927 -15.103  0.00  0.00    +0.003 C 
BRANCH  15  16
ATOM     16  C   UNL     1      36.453 -22.666 -15.795  0.00  0.00    +0.000 C 
ATOM     17  C   UNL     1      37.557 -21.770 -16.334  0.00  0.00    +0.000 C 
ENDBRANCH  15  16
ENDBRANCH  14  15
ENDBRANCH   6  14
ENDBRANCH   4   6
ENDBRANCH   1   3
BRANCH   1  20
ATOM     18  O   UNL     1      31.175 -22.048 -17.540  0.00  0.00    -0.273 OA
ATOM     19  N   UNL     1      33.401 -22.738 -17.817  0.00  0.00    -0.283 N 
ATOM     20  C   UNL     1      32.135 -22.750 -17.238  0.00  0.00    +0.244 C 
ATOM     21  H   UNL     1      34.044 -23.399 -17.473  0.00  0.00    +0.155 HD
BRANCH  19  22
ATOM     22  C   UNL     1      33.871 -21.886 -18.846  0.00  0.00    +0.050 C 
ATOM     23  C   UNL     1      32.973 -21.084 -19.551  0.00  0.00    +0.016 C 
ATOM     24  C   UNL     1      35.231 -21.847 -19.153  0.00  0.00    +0.016 C 
ATOM     25  C   UNL     1      33.436 -20.243 -20.562  0.00  0.00    +0.025 C 
ATOM     26  C   UNL     1      35.693 -21.005 -20.164  0.00  0.00    +0.025 C 
ATOM     27  C   UNL     1      34.795 -20.204 -20.869  0.00  0.00    +0.143 C 
BRANCH  27  30
ATOM     28  O   UNL     1      34.818 -19.491 -23.063  0.00  0.00    -0.126 OA
ATOM     29  O   UNL     1      36.119 -18.470 -21.620  0.00  0.00    -0.126 OA
ATOM     30  N   UNL     1      35.267 -19.348 -21.900  0.00  0.00    +0.058 N 
ENDBRANCH  27  30
ENDBRANCH  19  22
ENDBRANCH   1  20
BRANCH   1  31
ATOM     31  C   UNL     1      30.878 -23.516 -15.201  0.00  0.00    +0.029 C 
BRANCH  31  32
ATOM     32  C   UNL     1      29.531 -24.165 -15.580  0.00  0.00    +0.002 C 
ATOM     33  C   UNL     1      28.395 -23.145 -15.664  0.00  0.00    +0.000 C 
ATOM     34  C   UNL     1      29.176 -25.250 -14.558  0.00  0.00    +0.000 C 
ENDBRANCH  31  32
ENDBRANCH   1  31
TORSDOF 14
ENDMDL
MODEL 6
REMARK VINA RESULT:      -8.8      7.156     13.017
REMARK  Name = 17754079
REMARK  14 active torsions:
REMARK  status: ('A' for Active; 'I' for Inactive)
REMARK    1  A    between atoms: C_1  and  N_3
REMARK    2  A    between atoms: C_1  and  C_20
REMARK    3  A    between atoms: C_1  and  C_31
REMARK    4  A    between atoms: C_4  and  C_6
REMARK    5  A    between atoms: C_6  and  O_7
REMARK    6  A    between atoms: C_6  and  C_14
REMARK    7  A    between atoms: O_7  and  P_8
REMARK    8  A    between atoms: P_8  and  O_10
REMARK    9  A    between atoms: P_8  and  O_12
REMARK   10  A    between atoms: C_14  and  C_15
REMARK   11  A    between atoms: C_15  and  C_16
REMARK   12  A    between atoms: N_19  and  C_22
REMARK   13  A    between atoms: C_27  and  N_30
REMARK   14  A    between atoms: C_31  and  C_32
REMARK                            x       y       z     vdW  Elec       q    Type
REMARK                         _______ _______ _______ _____ _____    ______ ____
ROOT
ATOM      1  C   UNL     1      33.839 -15.671 -22.823  0.00  0.00    +0.149 C 
ENDROOT
BRANCH   1   3
ATOM      2  O   UNL     1      32.188 -13.592 -23.940  0.00  0.00    -0.272 OA
ATOM      3  N   UNL     1      33.593 -14.364 -22.261  0.00  0.00    -0.296 N 
ATOM      4  C   UNL     1      32.778 -13.424 -22.875  0.00  0.00    +0.251 C 
ATOM      5  H   UNL     1      34.022 -14.130 -21.407  0.00  0.00    +0.150 HD
BRANCH   4   6
ATOM      6  C   UNL     1      32.700 -12.120 -22.093  0.00  0.00    +0.202 C 
BRANCH   6   7
ATOM      7  O   UNL     1      32.066 -11.145 -22.906  0.00  0.00    -0.267 OA
BRANCH   7   8
ATOM      8  P   UNL     1      32.875  -9.787 -23.252  0.00  0.00    +0.473 P 
ATOM      9  O   UNL     1      34.183  -9.989 -23.958  0.00  0.00    -0.227 OA
BRANCH   8  10
ATOM     10  O   UNL     1      31.784  -8.917 -24.070  0.00  0.00    -0.303 OA
ATOM     11  H   UNL     1      32.241  -8.309 -24.671  0.00  0.00    +0.222 HD
ENDBRANCH   8  10
BRANCH   8  12
ATOM     12  O   UNL     1      32.968  -9.022 -21.830  0.00  0.00    -0.303 OA
ATOM     13  H   UNL     1      33.862  -8.662 -21.714  0.00  0.00    +0.222 HD
ENDBRANCH   8  12
ENDBRANCH   7   8
ENDBRANCH   6   7
BRANCH   6  14
ATOM     14  C   UNL     1      31.929 -12.303 -20.781  0.00  0.00    +0.040 C 
BRANCH  14  15
ATOM     15  C   UNL     1      30.670 -11.430 -20.728  0.00  0.00    +0.003 C 
BRANCH  15  16
ATOM     16  C   UNL     1      30.675 -10.432 -19.568  0.00  0.00    +0.000 C 
ATOM     17  C   UNL     1      31.983 -10.410 -18.792  0.00  0.00    +0.000 C 
ENDBRANCH  15  16
ENDBRANCH  14  15
ENDBRANCH   6  14
ENDBRANCH   4   6
ENDBRANCH   1   3
BRANCH   1  20
ATOM     18  O   UNL     1      34.601 -16.199 -20.594  0.00  0.00    -0.273 OA
ATOM     19  N   UNL     1      33.912 -17.940 -22.010  0.00  0.00    -0.283 N 
ATOM     20  C   UNL     1      34.153 -16.614 -21.659  0.00  0.00    +0.244 C 
ATOM     21  H   UNL     1      33.584 -18.095 -22.925  0.00  0.00    +0.155 HD
BRANCH  19  22
ATOM     22  C   UNL     1      34.084 -19.090 -21.204  0.00  0.00    +0.050 C 
ATOM     23  C   UNL     1      35.366 -19.587 -20.964  0.00  0.00    +0.016 C 
ATOM     24  C   UNL     1      32.975 -19.727 -20.650  0.00  0.00    +0.016 C 
ATOM     25  C   UNL     1      35.537 -20.719 -20.168  0.00  0.00    +0.025 C 
ATOM     26  C   UNL     1      33.146 -20.859 -19.853  0.00  0.00    +0.025 C 
ATOM     27  C   UNL     1      34.427 -21.355 -19.613  0.00  0.00    +0.143 C 
BRANCH  27  30
ATOM     28  O   UNL     1      33.893 -23.521 -19.026  0.00  0.00    -0.126 OA
ATOM     29  O   UNL     1      35.457 -22.486 -17.886  0.00  0.00    -0.126 OA
ATOM     30  N   UNL     1      34.601 -22.509 -18.803  0.00  0.00    +0.058 N 
ENDBRANCH  27  30
ENDBRANCH  19  22
ENDBRANCH   1  20
BRANCH   1  31
ATOM     31  C   UNL     1      34.999 -15.664 -23.826  0.00  0.00    +0.029 C 
BRANCH  31  32
ATOM     32  C   UNL     1      34.673 -16.286 -25.199  0.00  0.00    +0.002 C 
ATOM     33  C   UNL     1      33.378 -15.733 -25.796  0.00  0.00    +0.000 C 
ATOM     34  C   UNL     1      34.568 -17.808 -25.064  0.00  0.00    +0.000 C 
ENDBRANCH  31  32
ENDBRANCH   1  31
TORSDOF 14
ENDMDL
MODEL 7
REMARK VINA RESULT:      -8.7      1.983      2.799
REMARK  Name = 17754079
REMARK  14 active torsions:
REMARK  status: ('A' for Active; 'I' for Inactive)
REMARK    1  A    between atoms: C_1  and  N_3
REMARK    2  A    between atoms: C_1  and  C_20
REMARK    3  A    between atoms: C_1  and  C_31
REMARK    4  A    between atoms: C_4  and  C_6
REMARK    5  A    between atoms: C_6  and  O_7
REMARK    6  A    between atoms: C_6  and  C_14
REMARK    7  A    between atoms: O_7  and  P_8
REMARK    8  A    between atoms: P_8  and  O_10
REMARK    9  A    between atoms: P_8  and  O_12
REMARK   10  A    between atoms: C_14  and  C_15
REMARK   11  A    between atoms: C_15  and  C_16
REMARK   12  A    between atoms: N_19  and  C_22
REMARK   13  A    between atoms: C_27  and  N_30
REMARK   14  A    between atoms: C_31  and  C_32
REMARK                            x       y       z     vdW  Elec       q    Type
REMARK                         _______ _______ _______ _____ _____    ______ ____
ROOT
ATOM      1  C   UNL     1      32.900 -23.633 -16.876  0.00  0.00    +0.149 C 
ENDROOT
BRANCH   1   3
ATOM      2  O   UNL     1      34.988 -25.385 -15.943  0.00  0.00    -0.272 OA
ATOM      3  N   UNL     1      33.913 -23.328 -15.894  0.00  0.00    -0.296 N 
ATOM      4  C   UNL     1      34.883 -24.241 -15.507  0.00  0.00    +0.251 C 
ATOM      5  H   UNL     1      33.916 -22.434 -15.482  0.00  0.00    +0.150 HD
BRANCH   4   6
ATOM      6  C   UNL     1      35.819 -23.682 -14.443  0.00  0.00    +0.202 C 
BRANCH   6   7
ATOM      7  O   UNL     1      36.311 -22.428 -14.892  0.00  0.00    -0.267 OA
BRANCH   7   8
ATOM      8  P   UNL     1      37.358 -22.409 -16.125  0.00  0.00    +0.473 P 
ATOM      9  O   UNL     1      38.601 -23.223 -15.916  0.00  0.00    -0.227 OA
BRANCH   8  10
ATOM     10  O   UNL     1      36.445 -22.867 -17.379  0.00  0.00    -0.303 OA
ATOM     11  H   UNL     1      35.847 -22.144 -17.624  0.00  0.00    +0.222 HD
ENDBRANCH   8  10
BRANCH   8  12
ATOM     12  O   UNL     1      37.601 -20.834 -16.399  0.00  0.00    -0.303 OA
ATOM     13  H   UNL     1      37.698 -20.369 -15.553  0.00  0.00    +0.222 HD
ENDBRANCH   8  12
ENDBRANCH   7   8
ENDBRANCH   6   7
BRANCH   6  14
ATOM     14  C   UNL     1      35.102 -23.523 -13.099  0.00  0.00    +0.040 C 
BRANCH  14  15
ATOM     15  C   UNL     1      35.739 -24.386 -12.003  0.00  0.00    +0.003 C 
BRANCH  15  16
ATOM     16  C   UNL     1      37.257 -24.516 -12.142  0.00  0.00    +0.000 C 
ATOM     17  C   UNL     1      37.721 -25.941 -12.403  0.00  0.00    +0.000 C 
ENDBRANCH  15  16
ENDBRANCH  14  15
ENDBRANCH   6  14
ENDBRANCH   4   6
ENDBRANCH   1   3
BRANCH   1  20
ATOM     18  O   UNL     1      33.858 -24.032 -19.055  0.00  0.00    -0.273 OA
ATOM     19  N   UNL     1      33.449 -21.825 -18.372  0.00  0.00    -0.283 N 
ATOM     20  C   UNL     1      33.447 -23.211 -18.240  0.00  0.00    +0.244 C 
ATOM     21  H   UNL     1      33.113 -21.314 -17.600  0.00  0.00    +0.155 HD
BRANCH  19  22
ATOM     22  C   UNL     1      33.880 -21.064 -19.485  0.00  0.00    +0.050 C 
ATOM     23  C   UNL     1      32.949 -20.364 -20.254  0.00  0.00    +0.016 C 
ATOM     24  C   UNL     1      35.235 -21.011 -19.812  0.00  0.00    +0.016 C 
ATOM     25  C   UNL     1      33.374 -19.613 -21.349  0.00  0.00    +0.025 C 
ATOM     26  C   UNL     1      35.659 -20.259 -20.907  0.00  0.00    +0.025 C 
ATOM     27  C   UNL     1      34.728 -19.560 -21.676  0.00  0.00    +0.143 C 
BRANCH  27  30
ATOM     28  O   UNL     1      36.224 -18.133 -22.699  0.00  0.00    -0.126 OA
ATOM     29  O   UNL     1      34.471 -18.801 -23.838  0.00  0.00    -0.126 OA
ATOM     30  N   UNL     1      35.161 -18.795 -22.791  0.00  0.00    +0.058 N 
ENDBRANCH  27  30
ENDBRANCH  19  22
ENDBRANCH   1  20
BRANCH   1  31
ATOM     31  C   UNL     1      31.577 -22.910 -16.590  0.00  0.00    +0.029 C 
BRANCH  31  32
ATOM     32  C   UNL     1      30.637 -23.643 -15.611  0.00  0.00    +0.002 C 
ATOM     33  C   UNL     1      29.161 -23.399 -15.929  0.00  0.00    +0.000 C 
ATOM     34  C   UNL     1      30.935 -23.198 -14.177  0.00  0.00    +0.000 C 
ENDBRANCH  31  32
ENDBRANCH   1  31
TORSDOF 14
ENDMDL
MODEL 8
REMARK VINA RESULT:      -8.7      9.552     15.164
REMARK  Name = 17754079
REMARK  14 active torsions:
REMARK  status: ('A' for Active; 'I' for Inactive)
REMARK    1  A    between atoms: C_1  and  N_3
REMARK    2  A    between atoms: C_1  and  C_20
REMARK    3  A    between atoms: C_1  and  C_31
REMARK    4  A    between atoms: C_4  and  C_6
REMARK    5  A    between atoms: C_6  and  O_7
REMARK    6  A    between atoms: C_6  and  C_14
REMARK    7  A    between atoms: O_7  and  P_8
REMARK    8  A    between atoms: P_8  and  O_10
REMARK    9  A    between atoms: P_8  and  O_12
REMARK   10  A    between atoms: C_14  and  C_15
REMARK   11  A    between atoms: C_15  and  C_16
REMARK   12  A    between atoms: N_19  and  C_22
REMARK   13  A    between atoms: C_27  and  N_30
REMARK   14  A    between atoms: C_31  and  C_32
REMARK                            x       y       z     vdW  Elec       q    Type
REMARK                         _______ _______ _______ _____ _____    ______ ____
ROOT
ATOM      1  C   UNL     1      33.124 -11.569 -23.625  0.00  0.00    +0.149 C 
ENDROOT
BRANCH   1   3
ATOM      2  O   UNL     1      31.491  -9.195 -23.607  0.00  0.00    -0.272 OA
ATOM      3  N   UNL     1      32.836 -10.723 -22.491  0.00  0.00    -0.296 N 
ATOM      4  C   UNL     1      32.034  -9.595 -22.579  0.00  0.00    +0.251 C 
ATOM      5  H   UNL     1      33.225 -10.958 -21.618  0.00  0.00    +0.150 HD
BRANCH   4   6
ATOM      6  C   UNL     1      31.904  -8.866 -21.248  0.00  0.00    +0.202 C 
BRANCH   6   7
ATOM      7  O   UNL     1      32.295  -9.752 -20.211  0.00  0.00    -0.267 OA
BRANCH   7   8
ATOM      8  P   UNL     1      31.325 -10.998 -19.857  0.00  0.00    +0.473 P 
ATOM      9  O   UNL     1      30.056 -11.061 -20.656  0.00  0.00    -0.227 OA
BRANCH   8  10
ATOM     10  O   UNL     1      32.303 -12.274 -20.027  0.00  0.00    -0.303 OA
ATOM     11  H   UNL     1      31.845 -13.074 -19.726  0.00  0.00    +0.222 HD
ENDBRANCH   8  10
BRANCH   8  12
ATOM     12  O   UNL     1      31.128 -10.891 -18.256  0.00  0.00    -0.303 OA
ATOM     13  H   UNL     1      31.987 -10.998 -17.817  0.00  0.00    +0.222 HD
ENDBRANCH   8  12
ENDBRANCH   7   8
ENDBRANCH   6   7
BRANCH   6  14
ATOM     14  C   UNL     1      32.767  -7.600 -21.222  0.00  0.00    +0.040 C 
BRANCH  14  15
ATOM     15  C   UNL     1      31.929  -6.337 -20.990  0.00  0.00    +0.003 C 
BRANCH  15  16
ATOM     16  C   UNL     1      31.185  -5.867 -22.242  0.00  0.00    +0.000 C 
ATOM     17  C   UNL     1      32.067  -5.796 -23.480  0.00  0.00    +0.000 C 
ENDBRANCH  15  16
ENDBRANCH  14  15
ENDBRANCH   6  14
ENDBRANCH   4   6
ENDBRANCH   1   3
BRANCH   1  20
ATOM     18  O   UNL     1      31.917 -13.525 -22.889  0.00  0.00    -0.273 OA
ATOM     19  N   UNL     1      34.258 -13.612 -23.032  0.00  0.00    -0.283 N 
ATOM     20  C   UNL     1      33.003 -13.019 -23.153  0.00  0.00    +0.244 C 
ATOM     21  H   UNL     1      35.030 -13.044 -23.255  0.00  0.00    +0.155 HD
BRANCH  19  22
ATOM     22  C   UNL     1      34.552 -14.935 -22.624  0.00  0.00    +0.050 C 
ATOM     23  C   UNL     1      34.527 -15.268 -21.269  0.00  0.00    +0.016 C 
ATOM     24  C   UNL     1      34.863 -15.906 -23.575  0.00  0.00    +0.016 C 
ATOM     25  C   UNL     1      34.814 -16.571 -20.867  0.00  0.00    +0.025 C 
ATOM     26  C   UNL     1      35.149 -17.210 -23.172  0.00  0.00    +0.025 C 
ATOM     27  C   UNL     1      35.125 -17.542 -21.818  0.00  0.00    +0.143 C 
BRANCH  27  30
ATOM     28  O   UNL     1      36.279 -19.056 -20.515  0.00  0.00    -0.126 OA
ATOM     29  O   UNL     1      34.806 -19.823 -21.950  0.00  0.00    -0.126 OA
ATOM     30  N   UNL     1      35.417 -18.871 -21.408  0.00  0.00    +0.058 N 
ENDBRANCH  27  30
ENDBRANCH  19  22
ENDBRANCH   1  20
BRANCH   1  31
ATOM     31  C   UNL     1      34.524 -11.314 -24.199  0.00  0.00    +0.029 C 
BRANCH  31  32
ATOM     32  C   UNL     1      34.630 -10.085 -25.126  0.00  0.00    +0.002 C 
ATOM     33  C   UNL     1      35.661 -10.282 -26.238  0.00  0.00    +0.000 C 
ATOM     34  C   UNL     1      34.990  -8.846 -24.301  0.00  0.00    +0.000 C 
ENDBRANCH  31  32
ENDBRANCH   1  31
TORSDOF 14
ENDMDL
MODEL 9
REMARK VINA RESULT:      -8.5      6.603     12.012
REMARK  Name = 17754079
REMARK  14 active torsions:
REMARK  status: ('A' for Active; 'I' for Inactive)
REMARK    1  A    between atoms: C_1  and  N_3
REMARK    2  A    between atoms: C_1  and  C_20
REMARK    3  A    between atoms: C_1  and  C_31
REMARK    4  A    between atoms: C_4  and  C_6
REMARK    5  A    between atoms: C_6  and  O_7
REMARK    6  A    between atoms: C_6  and  C_14
REMARK    7  A    between atoms: O_7  and  P_8
REMARK    8  A    between atoms: P_8  and  O_10
REMARK    9  A    between atoms: P_8  and  O_12
REMARK   10  A    between atoms: C_14  and  C_15
REMARK   11  A    between atoms: C_15  and  C_16
REMARK   12  A    between atoms: N_19  and  C_22
REMARK   13  A    between atoms: C_27  and  N_30
REMARK   14  A    between atoms: C_31  and  C_32
REMARK                            x       y       z     vdW  Elec       q    Type
REMARK                         _______ _______ _______ _____ _____    ______ ____
ROOT
ATOM      1  C   UNL     1      33.693 -14.783 -21.753  0.00  0.00    +0.149 C 
ENDROOT
BRANCH   1   3
ATOM      2  O   UNL     1      35.628 -15.840 -23.608  0.00  0.00    -0.272 OA
ATOM      3  N   UNL     1      33.435 -15.284 -23.082  0.00  0.00    -0.296 N 
ATOM      4  C   UNL     1      34.437 -15.776 -23.906  0.00  0.00    +0.251 C 
ATOM      5  H   UNL     1      32.510 -15.277 -23.417  0.00  0.00    +0.150 HD
BRANCH   4   6
ATOM      6  C   UNL     1      33.908 -16.223 -25.263  0.00  0.00    +0.202 C 
BRANCH   6   7
ATOM      7  O   UNL     1      34.302 -15.267 -26.235  0.00  0.00    -0.267 OA
BRANCH   7   8
ATOM      8  P   UNL     1      33.384 -13.949 -26.434  0.00  0.00    +0.473 P 
ATOM      9  O   UNL     1      33.460 -12.948 -25.319  0.00  0.00    -0.227 OA
BRANCH   8  10
ATOM     10  O   UNL     1      33.856 -13.398 -27.879  0.00  0.00    -0.303 OA
ATOM     11  H   UNL     1      34.169 -14.138 -28.421  0.00  0.00    +0.222 HD
ENDBRANCH   8  10
BRANCH   8  12
ATOM     12  O   UNL     1      31.911 -14.547 -26.728  0.00  0.00    -0.303 OA
ATOM     13  H   UNL     1      31.762 -14.585 -27.686  0.00  0.00    +0.222 HD
ENDBRANCH   8  12
ENDBRANCH   7   8
ENDBRANCH   6   7
BRANCH   6  14
ATOM     14  C   UNL     1      34.436 -17.612 -25.636  0.00  0.00    +0.040 C 
BRANCH  14  15
ATOM     15  C   UNL     1      33.888 -18.703 -24.710  0.00  0.00    +0.003 C 
BRANCH  15  16
ATOM     16  C   UNL     1      34.971 -19.641 -24.171  0.00  0.00    +0.000 C 
ATOM     17  C   UNL     1      35.317 -20.776 -25.122  0.00  0.00    +0.000 C 
ENDBRANCH  15  16
ENDBRANCH  14  15
ENDBRANCH   6  14
ENDBRANCH   4   6
ENDBRANCH   1   3
BRANCH   1  20
ATOM     18  O   UNL     1      34.898 -15.806 -19.927  0.00  0.00    -0.273 OA
ATOM     19  N   UNL     1      33.728 -17.173 -21.435  0.00  0.00    -0.283 N 
ATOM     20  C   UNL     1      34.175 -15.964 -20.907  0.00  0.00    +0.244 C 
ATOM     21  H   UNL     1      33.182 -17.115 -22.251  0.00  0.00    +0.155 HD
BRANCH  19  22
ATOM     22  C   UNL     1      33.968 -18.474 -20.934  0.00  0.00    +0.050 C 
ATOM     23  C   UNL     1      32.897 -19.286 -20.559  0.00  0.00    +0.016 C 
ATOM     24  C   UNL     1      35.275 -18.947 -20.817  0.00  0.00    +0.016 C 
ATOM     25  C   UNL     1      33.134 -20.569 -20.068  0.00  0.00    +0.025 C 
ATOM     26  C   UNL     1      35.512 -20.231 -20.326  0.00  0.00    +0.025 C 
ATOM     27  C   UNL     1      34.440 -21.042 -19.951  0.00  0.00    +0.143 C 
BRANCH  27  30
ATOM     28  O   UNL     1      33.981 -23.300 -19.872  0.00  0.00    -0.126 OA
ATOM     29  O   UNL     1      35.589 -22.517 -18.601  0.00  0.00    -0.126 OA
ATOM     30  N   UNL     1      34.682 -22.349 -19.450  0.00  0.00    +0.058 N 
ENDBRANCH  27  30
ENDBRANCH  19  22
ENDBRANCH   1  20
BRANCH   1  31
ATOM     31  C   UNL     1      32.447 -14.152 -21.118  0.00  0.00    +0.029 C 
BRANCH  31  32
ATOM     32  C   UNL     1      32.433 -12.610 -21.113  0.00  0.00    +0.002 C 
ATOM     33  C   UNL     1      31.704 -12.038 -19.896  0.00  0.00    +0.000 C 
ATOM     34  C   UNL     1      31.776 -12.095 -22.397  0.00  0.00    +0.000 C 
ENDBRANCH  31  32
ENDBRANCH   1  31
TORSDOF 14
ENDMDL
