MODEL 1
REMARK VINA RESULT:      -8.5      0.000      0.000
REMARK  Name = 16122663
REMARK  8 active torsions:
REMARK  status: ('A' for Active; 'I' for Inactive)
REMARK    1  A    between atoms: C_4  and  O_18
REMARK    2  A    between atoms: C_5  and  N_9
REMARK    3  A    between atoms: C_6  and  C_24
REMARK    4  A    between atoms: O_18  and  C_20
REMARK    5  A    between atoms: C_20  and  C_21
REMARK    6  A    between atoms: C_24  and  O_25
REMARK    7  A    between atoms: O_25  and  C_27
REMARK    8  A    between atoms: C_27  and  C_28
REMARK                            x       y       z     vdW  Elec       q    Type
REMARK                         _______ _______ _______ _____ _____    ______ ____
ROOT
ATOM      1  F   UNL     1      30.778  -7.088 -21.982  0.00  0.00    -0.232 F 
ATOM      2  O   UNL     1      33.939  -7.204 -23.486  0.00  0.00    -0.329 OA
ATOM      3  C   UNL     1      31.659  -7.539 -22.913  0.00  0.00    +0.216 C 
ATOM      4  C   UNL     1      32.468  -8.696 -22.342  0.00  0.00    +0.233 C 
ATOM      5  C   UNL     1      32.741  -6.491 -23.151  0.00  0.00    +0.241 C 
ATOM      6  C   UNL     1      33.842  -8.554 -22.995  0.00  0.00    +0.203 C 
ATOM      7  C   UNL     1      30.859  -7.940 -24.147  0.00  0.00    +0.044 C 
ENDROOT
BRANCH   5   9
ATOM      8  O   UNL     1      30.873  -4.395 -22.944  0.00  0.00    -0.193 OA
ATOM      9  N   UNL     1      32.456  -5.533 -24.179  0.00  0.00    -0.178 N 
ATOM     10  N   UNL     1      31.275  -3.612 -25.036  0.00  0.00    -0.306 NA
ATOM     11  N   UNL     1      31.691  -2.817 -27.182  0.00  0.00    -0.332 N 
ATOM     12  C   UNL     1      33.139  -5.624 -25.380  0.00  0.00    +0.083 C 
ATOM     13  C   UNL     1      31.500  -4.503 -24.000  0.00  0.00    +0.276 C 
ATOM     14  C   UNL     1      32.937  -4.779 -26.390  0.00  0.00    +0.065 C 
ATOM     15  C   UNL     1      31.929  -3.712 -26.164  0.00  0.00    +0.193 C 
ATOM     16  H   UNL     1      31.028  -2.099 -27.061  0.00  0.00    +0.145 HD
ATOM     17  H   UNL     1      32.184  -2.894 -28.031  0.00  0.00    +0.145 HD
ENDBRANCH   5   9
BRANCH   4  18
ATOM     18  O   UNL     1      32.615  -8.530 -20.930  0.00  0.00    -0.447 OA
BRANCH  18  20
ATOM     19  O   UNL     1      31.513  -9.201 -19.018  0.00  0.00    -0.250 OA
ATOM     20  C   UNL     1      31.948  -9.434 -20.138  0.00  0.00    +0.316 C 
BRANCH  20  21
ATOM     21  C   UNL     1      31.840 -10.772 -20.849  0.00  0.00    +0.099 C 
ATOM     22  C   UNL     1      30.524 -10.871 -21.617  0.00  0.00    +0.012 C 
ATOM     23  C   UNL     1      31.968 -11.904 -19.838  0.00  0.00    +0.012 C 
ENDBRANCH  20  21
ENDBRANCH  18  20
ENDBRANCH   4  18
BRANCH   6  24
ATOM     24  C   UNL     1      34.079  -9.508 -24.155  0.00  0.00    +0.242 C 
BRANCH  24  25
ATOM     25  O   UNL     1      33.810 -10.832 -23.722  0.00  0.00    -0.446 OA
BRANCH  25  27
ATOM     26  O   UNL     1      34.237 -11.650 -25.836  0.00  0.00    -0.250 OA
ATOM     27  C   UNL     1      33.810 -11.796 -24.698  0.00  0.00    +0.316 C 
BRANCH  27  28
ATOM     28  C   UNL     1      33.188 -13.074 -24.164  0.00  0.00    +0.099 C 
ATOM     29  C   UNL     1      34.037 -13.659 -23.037  0.00  0.00    +0.012 C 
ATOM     30  C   UNL     1      33.018 -14.077 -25.297  0.00  0.00    +0.012 C 
ENDBRANCH  27  28
ENDBRANCH  25  27
ENDBRANCH  24  25
ENDBRANCH   6  24
TORSDOF 8
ENDMDL
MODEL 2
REMARK VINA RESULT:      -8.5     14.480     17.745
REMARK  Name = 16122663
REMARK  8 active torsions:
REMARK  status: ('A' for Active; 'I' for Inactive)
REMARK    1  A    between atoms: C_4  and  O_18
REMARK    2  A    between atoms: C_5  and  N_9
REMARK    3  A    between atoms: C_6  and  C_24
REMARK    4  A    between atoms: O_18  and  C_20
REMARK    5  A    between atoms: C_20  and  C_21
REMARK    6  A    between atoms: C_24  and  O_25
REMARK    7  A    between atoms: O_25  and  C_27
REMARK    8  A    between atoms: C_27  and  C_28
REMARK                            x       y       z     vdW  Elec       q    Type
REMARK                         _______ _______ _______ _____ _____    ______ ____
ROOT
ATOM      1  F   UNL     1      37.117 -23.592 -16.183  0.00  0.00    -0.232 F 
ATOM      2  O   UNL     1      33.662 -24.109 -15.917  0.00  0.00    -0.329 OA
ATOM      3  C   UNL     1      35.878 -23.276 -15.723  0.00  0.00    +0.216 C 
ATOM      4  C   UNL     1      35.566 -24.094 -14.476  0.00  0.00    +0.233 C 
ATOM      5  C   UNL     1      34.820 -23.781 -16.698  0.00  0.00    +0.241 C 
ATOM      6  C   UNL     1      34.060 -24.337 -14.552  0.00  0.00    +0.203 C 
ATOM      7  C   UNL     1      35.855 -21.776 -15.456  0.00  0.00    +0.044 C 
ENDROOT
BRANCH   5   9
ATOM      8  O   UNL     1      32.180 -23.220 -17.499  0.00  0.00    -0.193 OA
ATOM      9  N   UNL     1      34.447 -22.862 -17.733  0.00  0.00    -0.178 N 
ATOM     10  N   UNL     1      32.806 -21.729 -19.092  0.00  0.00    -0.306 NA
ATOM     11  N   UNL     1      33.456 -20.204 -20.723  0.00  0.00    -0.332 N 
ATOM     12  C   UNL     1      35.447 -22.184 -18.411  0.00  0.00    +0.083 C 
ATOM     13  C   UNL     1      33.093 -22.631 -18.081  0.00  0.00    +0.276 C 
ATOM     14  C   UNL     1      35.193 -21.313 -19.387  0.00  0.00    +0.065 C 
ATOM     15  C   UNL     1      33.762 -21.097 -19.722  0.00  0.00    +0.193 C 
ATOM     16  H   UNL     1      32.516 -20.041 -20.967  0.00  0.00    +0.145 HD
ATOM     17  H   UNL     1      34.177 -19.730 -21.197  0.00  0.00    +0.145 HD
ENDBRANCH   5   9
BRANCH   4  18
ATOM     18  O   UNL     1      36.235 -25.355 -14.547  0.00  0.00    -0.447 OA
BRANCH  18  20
ATOM     19  O   UNL     1      36.831 -26.593 -12.695  0.00  0.00    -0.250 OA
ATOM     20  C   UNL     1      37.039 -25.678 -13.480  0.00  0.00    +0.316 C 
BRANCH  20  21
ATOM     21  C   UNL     1      38.219 -24.724 -13.407  0.00  0.00    +0.099 C 
ATOM     22  C   UNL     1      39.519 -25.443 -13.756  0.00  0.00    +0.012 C 
ATOM     23  C   UNL     1      38.294 -24.104 -12.017  0.00  0.00    +0.012 C 
ENDBRANCH  20  21
ENDBRANCH  18  20
ENDBRANCH   4  18
BRANCH   6  24
ATOM     24  C   UNL     1      33.239 -23.427 -13.652  0.00  0.00    +0.242 C 
BRANCH  24  25
ATOM     25  O   UNL     1      32.002 -23.147 -14.289  0.00  0.00    -0.446 OA
BRANCH  25  27
ATOM     26  O   UNL     1      30.800 -24.457 -12.819  0.00  0.00    -0.250 OA
ATOM     27  C   UNL     1      30.942 -23.935 -13.917  0.00  0.00    +0.316 C 
BRANCH  27  28
ATOM     28  C   UNL     1      29.972 -24.076 -15.076  0.00  0.00    +0.099 C 
ATOM     29  C   UNL     1      29.297 -22.741 -15.382  0.00  0.00    +0.012 C 
ATOM     30  C   UNL     1      28.938 -25.149 -14.754  0.00  0.00    +0.012 C 
ENDBRANCH  27  28
ENDBRANCH  25  27
ENDBRANCH  24  25
ENDBRANCH   6  24
TORSDOF 8
ENDMDL
MODEL 3
REMARK VINA RESULT:      -8.5      1.333      1.575
REMARK  Name = 16122663
REMARK  8 active torsions:
REMARK  status: ('A' for Active; 'I' for Inactive)
REMARK    1  A    between atoms: C_4  and  O_18
REMARK    2  A    between atoms: C_5  and  N_9
REMARK    3  A    between atoms: C_6  and  C_24
REMARK    4  A    between atoms: O_18  and  C_20
REMARK    5  A    between atoms: C_20  and  C_21
REMARK    6  A    between atoms: C_24  and  O_25
REMARK    7  A    between atoms: O_25  and  C_27
REMARK    8  A    between atoms: C_27  and  C_28
REMARK                            x       y       z     vdW  Elec       q    Type
REMARK                         _______ _______ _______ _____ _____    ______ ____
ROOT
ATOM      1  F   UNL     1      30.192  -7.921 -22.848  0.00  0.00    -0.232 F 
ATOM      2  O   UNL     1      33.478  -6.705 -22.854  0.00  0.00    -0.329 OA
ATOM      3  C   UNL     1      31.417  -7.746 -23.410  0.00  0.00    +0.216 C 
ATOM      4  C   UNL     1      32.373  -8.821 -22.911  0.00  0.00    +0.233 C 
ATOM      5  C   UNL     1      32.062  -6.477 -22.862  0.00  0.00    +0.241 C 
ATOM      6  C   UNL     1      33.731  -8.122 -22.858  0.00  0.00    +0.203 C 
ATOM      7  C   UNL     1      31.237  -7.784 -24.924  0.00  0.00    +0.044 C 
ENDROOT
BRANCH   5   9
ATOM      8  O   UNL     1      30.233  -4.488 -22.071  0.00  0.00    -0.193 OA
ATOM      9  N   UNL     1      31.779  -5.277 -23.593  0.00  0.00    -0.178 N 
ATOM     10  N   UNL     1      30.618  -3.182 -23.887  0.00  0.00    -0.306 NA
ATOM     11  N   UNL     1      31.017  -1.850 -25.752  0.00  0.00    -0.332 N 
ATOM     12  C   UNL     1      32.443  -5.054 -24.788  0.00  0.00    +0.083 C 
ATOM     13  C   UNL     1      30.842  -4.320 -23.130  0.00  0.00    +0.276 C 
ATOM     14  C   UNL     1      32.241  -3.968 -25.532  0.00  0.00    +0.065 C 
ATOM     15  C   UNL     1      31.254  -2.987 -25.013  0.00  0.00    +0.193 C 
ATOM     16  H   UNL     1      30.368  -1.182 -25.432  0.00  0.00    +0.145 HD
ATOM     17  H   UNL     1      31.496  -1.705 -26.599  0.00  0.00    +0.145 HD
ENDBRANCH   5   9
BRANCH   4  18
ATOM     18  O   UNL     1      32.010  -9.211 -21.584  0.00  0.00    -0.447 OA
BRANCH  18  20
ATOM     19  O   UNL     1      30.667 -10.976 -22.217  0.00  0.00    -0.250 OA
ATOM     20  C   UNL     1      31.471 -10.468 -21.447  0.00  0.00    +0.316 C 
BRANCH  20  21
ATOM     21  C   UNL     1      32.006 -11.131 -20.190  0.00  0.00    +0.099 C 
ATOM     22  C   UNL     1      31.984 -12.651 -20.330  0.00  0.00    +0.012 C 
ATOM     23  C   UNL     1      31.191 -10.683 -18.983  0.00  0.00    +0.012 C 
ENDBRANCH  20  21
ENDBRANCH  18  20
ENDBRANCH   4  18
BRANCH   6  24
ATOM     24  C   UNL     1      34.642  -8.447 -24.032  0.00  0.00    +0.242 C 
BRANCH  24  25
ATOM     25  O   UNL     1      34.995  -9.819 -23.973  0.00  0.00    -0.446 OA
BRANCH  25  27
ATOM     26  O   UNL     1      35.673 -10.396 -26.101  0.00  0.00    -0.250 OA
ATOM     27  C   UNL     1      34.908 -10.514 -25.152  0.00  0.00    +0.316 C 
BRANCH  27  28
ATOM     28  C   UNL     1      33.710 -11.446 -25.116  0.00  0.00    +0.099 C 
ATOM     29  C   UNL     1      33.721 -12.291 -23.844  0.00  0.00    +0.012 C 
ATOM     30  C   UNL     1      33.707 -12.330 -26.358  0.00  0.00    +0.012 C 
ENDBRANCH  27  28
ENDBRANCH  25  27
ENDBRANCH  24  25
ENDBRANCH   6  24
TORSDOF 8
ENDMDL
MODEL 4
REMARK VINA RESULT:      -8.4      2.072      4.271
REMARK  Name = 16122663
REMARK  8 active torsions:
REMARK  status: ('A' for Active; 'I' for Inactive)
REMARK    1  A    between atoms: C_4  and  O_18
REMARK    2  A    between atoms: C_5  and  N_9
REMARK    3  A    between atoms: C_6  and  C_24
REMARK    4  A    between atoms: O_18  and  C_20
REMARK    5  A    between atoms: C_20  and  C_21
REMARK    6  A    between atoms: C_24  and  O_25
REMARK    7  A    between atoms: O_25  and  C_27
REMARK    8  A    between atoms: C_27  and  C_28
REMARK                            x       y       z     vdW  Elec       q    Type
REMARK                         _______ _______ _______ _____ _____    ______ ____
ROOT
ATOM      1  F   UNL     1      34.527  -7.934 -24.360  0.00  0.00    -0.232 F 
ATOM      2  O   UNL     1      31.246  -8.867 -23.564  0.00  0.00    -0.329 OA
ATOM      3  C   UNL     1      33.554  -8.314 -23.491  0.00  0.00    +0.216 C 
ATOM      4  C   UNL     1      33.429  -9.831 -23.485  0.00  0.00    +0.233 C 
ATOM      5  C   UNL     1      32.190  -7.891 -24.025  0.00  0.00    +0.241 C 
ATOM      6  C   UNL     1      31.942 -10.086 -23.241  0.00  0.00    +0.203 C 
ATOM      7  C   UNL     1      33.919  -7.754 -22.120  0.00  0.00    +0.044 C 
ENDROOT
BRANCH   5   9
ATOM      8  O   UNL     1      32.812  -5.496 -25.367  0.00  0.00    -0.193 OA
ATOM      9  N   UNL     1      31.751  -6.584 -23.631  0.00  0.00    -0.178 N 
ATOM     10  N   UNL     1      31.647  -4.191 -23.921  0.00  0.00    -0.306 NA
ATOM     11  N   UNL     1      30.452  -2.861 -22.433  0.00  0.00    -0.332 N 
ATOM     12  C   UNL     1      30.958  -6.462 -22.502  0.00  0.00    +0.083 C 
ATOM     13  C   UNL     1      32.107  -5.422 -24.359  0.00  0.00    +0.276 C 
ATOM     14  C   UNL     1      30.507  -5.288 -22.062  0.00  0.00    +0.065 C 
ATOM     15  C   UNL     1      30.899  -4.093 -22.853  0.00  0.00    +0.193 C 
ATOM     16  H   UNL     1      30.696  -2.051 -22.938  0.00  0.00    +0.145 HD
ATOM     17  H   UNL     1      29.890  -2.789 -21.629  0.00  0.00    +0.145 HD
ENDBRANCH   5   9
BRANCH   4  18
ATOM     18  O   UNL     1      33.774 -10.348 -24.772  0.00  0.00    -0.447 OA
BRANCH  18  20
ATOM     19  O   UNL     1      34.285 -12.438 -23.940  0.00  0.00    -0.250 OA
ATOM     20  C   UNL     1      33.928 -11.711 -24.858  0.00  0.00    +0.316 C 
BRANCH  20  21
ATOM     21  C   UNL     1      33.605 -12.187 -26.264  0.00  0.00    +0.099 C 
ATOM     22  C   UNL     1      33.241 -13.669 -26.264  0.00  0.00    +0.012 C 
ATOM     23  C   UNL     1      34.789 -11.916 -27.184  0.00  0.00    +0.012 C 
ENDBRANCH  20  21
ENDBRANCH  18  20
ENDBRANCH   4  18
BRANCH   6  24
ATOM     24  C   UNL     1      31.605 -10.470 -21.809  0.00  0.00    +0.242 C 
BRANCH  24  25
ATOM     25  O   UNL     1      31.462 -11.879 -21.734  0.00  0.00    -0.446 OA
BRANCH  25  27
ATOM     26  O   UNL     1      31.845 -12.066 -19.467  0.00  0.00    -0.250 OA
ATOM     27  C   UNL     1      31.978 -12.477 -20.612  0.00  0.00    +0.316 C 
BRANCH  27  28
ATOM     28  C   UNL     1      32.754 -13.723 -21.001  0.00  0.00    +0.099 C 
ATOM     29  C   UNL     1      32.429 -14.137 -22.434  0.00  0.00    +0.012 C 
ATOM     30  C   UNL     1      32.443 -14.849 -20.023  0.00  0.00    +0.012 C 
ENDBRANCH  27  28
ENDBRANCH  25  27
ENDBRANCH  24  25
ENDBRANCH   6  24
TORSDOF 8
ENDMDL
MODEL 5
REMARK VINA RESULT:      -8.3      5.427      8.843
REMARK  Name = 16122663
REMARK  8 active torsions:
REMARK  status: ('A' for Active; 'I' for Inactive)
REMARK    1  A    between atoms: C_4  and  O_18
REMARK    2  A    between atoms: C_5  and  N_9
REMARK    3  A    between atoms: C_6  and  C_24
REMARK    4  A    between atoms: O_18  and  C_20
REMARK    5  A    between atoms: C_20  and  C_21
REMARK    6  A    between atoms: C_24  and  O_25
REMARK    7  A    between atoms: O_25  and  C_27
REMARK    8  A    between atoms: C_27  and  C_28
REMARK                            x       y       z     vdW  Elec       q    Type
REMARK                         _______ _______ _______ _____ _____    ______ ____
ROOT
ATOM      1  F   UNL     1      32.662 -14.485 -19.719  0.00  0.00    -0.232 F 
ATOM      2  O   UNL     1      32.944 -14.845 -23.193  0.00  0.00    -0.329 OA
ATOM      3  C   UNL     1      33.312 -14.332 -20.903  0.00  0.00    +0.216 C 
ATOM      4  C   UNL     1      32.825 -13.069 -21.601  0.00  0.00    +0.233 C 
ATOM      5  C   UNL     1      32.870 -15.416 -21.879  0.00  0.00    +0.241 C 
ATOM      6  C   UNL     1      32.896 -13.409 -23.089  0.00  0.00    +0.203 C 
ATOM      7  C   UNL     1      34.807 -14.293 -20.605  0.00  0.00    +0.044 C 
ENDROOT
BRANCH   5   9
ATOM      8  O   UNL     1      35.224 -15.887 -23.350  0.00  0.00    -0.193 OA
ATOM      9  N   UNL     1      33.638 -16.626 -21.846  0.00  0.00    -0.178 N 
ATOM     10  N   UNL     1      35.509 -17.986 -22.536  0.00  0.00    -0.306 NA
ATOM     11  N   UNL     1      35.793 -20.136 -21.697  0.00  0.00    -0.332 N 
ATOM     12  C   UNL     1      33.210 -17.664 -21.034  0.00  0.00    +0.083 C 
ATOM     13  C   UNL     1      34.816 -16.789 -22.617  0.00  0.00    +0.276 C 
ATOM     14  C   UNL     1      33.860 -18.823 -20.942  0.00  0.00    +0.065 C 
ATOM     15  C   UNL     1      35.090 -18.955 -21.764  0.00  0.00    +0.193 C 
ATOM     16  H   UNL     1      36.612 -20.253 -22.230  0.00  0.00    +0.145 HD
ATOM     17  H   UNL     1      35.476 -20.865 -21.116  0.00  0.00    +0.145 HD
ENDBRANCH   5   9
BRANCH   4  18
ATOM     18  O   UNL     1      31.460 -12.823 -21.254  0.00  0.00    -0.447 OA
BRANCH  18  20
ATOM     19  O   UNL     1      30.200 -11.012 -21.925  0.00  0.00    -0.250 OA
ATOM     20  C   UNL     1      31.070 -11.505 -21.220  0.00  0.00    +0.316 C 
BRANCH  20  21
ATOM     21  C   UNL     1      31.885 -10.744 -20.190  0.00  0.00    +0.099 C 
ATOM     22  C   UNL     1      31.275 -10.894 -18.799  0.00  0.00    +0.012 C 
ATOM     23  C   UNL     1      31.980  -9.277 -20.589  0.00  0.00    +0.012 C 
ENDBRANCH  20  21
ENDBRANCH  18  20
ENDBRANCH   4  18
BRANCH   6  24
ATOM     24  C   UNL     1      34.109 -12.832 -23.800  0.00  0.00    +0.242 C 
BRANCH  24  25
ATOM     25  O   UNL     1      33.671 -11.883 -24.759  0.00  0.00    -0.446 OA
BRANCH  25  27
ATOM     26  O   UNL     1      32.570 -10.022 -23.956  0.00  0.00    -0.250 OA
ATOM     27  C   UNL     1      33.593 -10.583 -24.326  0.00  0.00    +0.316 C 
BRANCH  27  28
ATOM     28  C   UNL     1      34.964  -9.935 -24.386  0.00  0.00    +0.099 C 
ATOM     29  C   UNL     1      34.876  -8.449 -24.046  0.00  0.00    +0.012 C 
ATOM     30  C   UNL     1      35.572 -10.143 -25.768  0.00  0.00    +0.012 C 
ENDBRANCH  27  28
ENDBRANCH  25  27
ENDBRANCH  24  25
ENDBRANCH   6  24
TORSDOF 8
ENDMDL
MODEL 6
REMARK VINA RESULT:      -8.2      5.169      8.547
REMARK  Name = 16122663
REMARK  8 active torsions:
REMARK  status: ('A' for Active; 'I' for Inactive)
REMARK    1  A    between atoms: C_4  and  O_18
REMARK    2  A    between atoms: C_5  and  N_9
REMARK    3  A    between atoms: C_6  and  C_24
REMARK    4  A    between atoms: O_18  and  C_20
REMARK    5  A    between atoms: C_20  and  C_21
REMARK    6  A    between atoms: C_24  and  O_25
REMARK    7  A    between atoms: O_25  and  C_27
REMARK    8  A    between atoms: C_27  and  C_28
REMARK                            x       y       z     vdW  Elec       q    Type
REMARK                         _______ _______ _______ _____ _____    ______ ____
ROOT
ATOM      1  F   UNL     1      32.990 -14.557 -20.135  0.00  0.00    -0.232 F 
ATOM      2  O   UNL     1      32.739 -14.220 -23.613  0.00  0.00    -0.329 OA
ATOM      3  C   UNL     1      33.459 -14.169 -21.350  0.00  0.00    +0.216 C 
ATOM      4  C   UNL     1      32.905 -12.796 -21.704  0.00  0.00    +0.233 C 
ATOM      5  C   UNL     1      32.848 -15.042 -22.442  0.00  0.00    +0.241 C 
ATOM      6  C   UNL     1      32.743 -12.834 -23.223  0.00  0.00    +0.203 C 
ATOM      7  C   UNL     1      34.982 -14.183 -21.281  0.00  0.00    +0.044 C 
ENDROOT
BRANCH   5   9
ATOM      8  O   UNL     1      33.146 -17.274 -20.753  0.00  0.00    -0.193 OA
ATOM      9  N   UNL     1      33.582 -16.230 -22.764  0.00  0.00    -0.178 N 
ATOM     10  N   UNL     1      34.413 -18.433 -22.236  0.00  0.00    -0.306 NA
ATOM     11  N   UNL     1      35.712 -19.615 -23.761  0.00  0.00    -0.332 N 
ATOM     12  C   UNL     1      34.207 -16.312 -23.998  0.00  0.00    +0.083 C 
ATOM     13  C   UNL     1      33.687 -17.315 -21.859  0.00  0.00    +0.276 C 
ATOM     14  C   UNL     1      34.910 -17.377 -24.380  0.00  0.00    +0.065 C 
ATOM     15  C   UNL     1      34.996 -18.495 -23.405  0.00  0.00    +0.193 C 
ATOM     16  H   UNL     1      35.787 -20.371 -23.135  0.00  0.00    +0.145 HD
ATOM     17  H   UNL     1      36.151 -19.659 -24.641  0.00  0.00    +0.145 HD
ENDBRANCH   5   9
BRANCH   4  18
ATOM     18  O   UNL     1      31.614 -12.631 -21.112  0.00  0.00    -0.447 OA
BRANCH  18  20
ATOM     19  O   UNL     1      30.322 -10.797 -21.651  0.00  0.00    -0.250 OA
ATOM     20  C   UNL     1      31.176 -11.336 -20.960  0.00  0.00    +0.316 C 
BRANCH  20  21
ATOM     21  C   UNL     1      31.918 -10.665 -19.818  0.00  0.00    +0.099 C 
ATOM     22  C   UNL     1      31.224 -10.940 -18.486  0.00  0.00    +0.012 C 
ATOM     23  C   UNL     1      32.021  -9.167 -20.079  0.00  0.00    +0.012 C 
ENDBRANCH  20  21
ENDBRANCH  18  20
ENDBRANCH   4  18
BRANCH   6  24
ATOM     24  C   UNL     1      33.850 -12.122 -23.982  0.00  0.00    +0.242 C 
BRANCH  24  25
ATOM     25  O   UNL     1      33.436 -10.793 -24.258  0.00  0.00    -0.446 OA
BRANCH  25  27
ATOM     26  O   UNL     1      35.547  -9.872 -24.398  0.00  0.00    -0.250 OA
ATOM     27  C   UNL     1      34.375  -9.815 -24.048  0.00  0.00    +0.316 C 
BRANCH  27  28
ATOM     28  C   UNL     1      33.750  -8.650 -23.303  0.00  0.00    +0.099 C 
ATOM     29  C   UNL     1      32.277  -8.495 -23.677  0.00  0.00    +0.012 C 
ATOM     30  C   UNL     1      34.525  -7.372 -23.601  0.00  0.00    +0.012 C 
ENDBRANCH  27  28
ENDBRANCH  25  27
ENDBRANCH  24  25
ENDBRANCH   6  24
TORSDOF 8
ENDMDL
MODEL 7
REMARK VINA RESULT:      -8.0     14.751     18.196
REMARK  Name = 16122663
REMARK  8 active torsions:
REMARK  status: ('A' for Active; 'I' for Inactive)
REMARK    1  A    between atoms: C_4  and  O_18
REMARK    2  A    between atoms: C_5  and  N_9
REMARK    3  A    between atoms: C_6  and  C_24
REMARK    4  A    between atoms: O_18  and  C_20
REMARK    5  A    between atoms: C_20  and  C_21
REMARK    6  A    between atoms: C_24  and  O_25
REMARK    7  A    between atoms: O_25  and  C_27
REMARK    8  A    between atoms: C_27  and  C_28
REMARK                            x       y       z     vdW  Elec       q    Type
REMARK                         _______ _______ _______ _____ _____    ______ ____
ROOT
ATOM      1  F   UNL     1      36.866 -23.589 -16.303  0.00  0.00    -0.232 F 
ATOM      2  O   UNL     1      33.747 -22.732 -14.958  0.00  0.00    -0.329 OA
ATOM      3  C   UNL     1      35.606 -23.882 -15.886  0.00  0.00    +0.216 C 
ATOM      4  C   UNL     1      34.612 -23.604 -17.005  0.00  0.00    +0.233 C 
ATOM      5  C   UNL     1      35.167 -22.879 -14.824  0.00  0.00    +0.241 C 
ATOM      6  C   UNL     1      33.350 -23.137 -16.282  0.00  0.00    +0.203 C 
ATOM      7  C   UNL     1      35.595 -25.342 -15.447  0.00  0.00    +0.044 C 
ENDROOT
BRANCH   5   9
ATOM      8  O   UNL     1      33.441 -24.233 -13.060  0.00  0.00    -0.193 OA
ATOM      9  N   UNL     1      35.481 -23.237 -13.471  0.00  0.00    -0.178 N 
ATOM     10  N   UNL     1      34.927 -24.233 -11.345  0.00  0.00    -0.306 NA
ATOM     11  N   UNL     1      36.456 -24.228  -9.592  0.00  0.00    -0.332 N 
ATOM     12  C   UNL     1      36.726 -22.899 -12.966  0.00  0.00    +0.083 C 
ATOM     13  C   UNL     1      34.557 -23.920 -12.642  0.00  0.00    +0.276 C 
ATOM     14  C   UNL     1      37.101 -23.190 -11.722  0.00  0.00    +0.065 C 
ATOM     15  C   UNL     1      36.107 -23.907 -10.884  0.00  0.00    +0.193 C 
ATOM     16  H   UNL     1      35.817 -24.704  -9.013  0.00  0.00    +0.145 HD
ATOM     17  H   UNL     1      37.344 -23.981  -9.246  0.00  0.00    +0.145 HD
ENDBRANCH   5   9
BRANCH   4  18
ATOM     18  O   UNL     1      35.093 -22.532 -17.821  0.00  0.00    -0.447 OA
BRANCH  18  20
ATOM     19  O   UNL     1      33.907 -23.279 -19.652  0.00  0.00    -0.250 OA
ATOM     20  C   UNL     1      34.498 -22.392 -19.052  0.00  0.00    +0.316 C 
BRANCH  20  21
ATOM     21  C   UNL     1      34.693 -20.977 -19.569  0.00  0.00    +0.099 C 
ATOM     22  C   UNL     1      33.485 -20.529 -20.388  0.00  0.00    +0.012 C 
ATOM     23  C   UNL     1      35.971 -20.902 -20.396  0.00  0.00    +0.012 C 
ENDBRANCH  20  21
ENDBRANCH  18  20
ENDBRANCH   4  18
BRANCH   6  24
ATOM     24  C   UNL     1      32.275 -24.205 -16.159  0.00  0.00    +0.242 C 
BRANCH  24  25
ATOM     25  O   UNL     1      31.147 -23.646 -15.505  0.00  0.00    -0.446 OA
BRANCH  25  27
ATOM     26  O   UNL     1      30.307 -22.256 -17.144  0.00  0.00    -0.250 OA
ATOM     27  C   UNL     1      30.162 -23.152 -16.323  0.00  0.00    +0.316 C 
BRANCH  27  28
ATOM     28  C   UNL     1      28.854 -23.874 -16.051  0.00  0.00    +0.099 C 
ATOM     29  C   UNL     1      27.720 -22.874 -15.833  0.00  0.00    +0.012 C 
ATOM     30  C   UNL     1      29.013 -24.790 -14.844  0.00  0.00    +0.012 C 
ENDBRANCH  27  28
ENDBRANCH  25  27
ENDBRANCH  24  25
ENDBRANCH   6  24
TORSDOF 8
ENDMDL
MODEL 8
REMARK VINA RESULT:      -8.0     14.010     17.394
REMARK  Name = 16122663
REMARK  8 active torsions:
REMARK  status: ('A' for Active; 'I' for Inactive)
REMARK    1  A    between atoms: C_4  and  O_18
REMARK    2  A    between atoms: C_5  and  N_9
REMARK    3  A    between atoms: C_6  and  C_24
REMARK    4  A    between atoms: O_18  and  C_20
REMARK    5  A    between atoms: C_20  and  C_21
REMARK    6  A    between atoms: C_24  and  O_25
REMARK    7  A    between atoms: O_25  and  C_27
REMARK    8  A    between atoms: C_27  and  C_28
REMARK                            x       y       z     vdW  Elec       q    Type
REMARK                         _______ _______ _______ _____ _____    ______ ____
ROOT
ATOM      1  F   UNL     1      37.573 -22.706 -16.835  0.00  0.00    -0.232 F 
ATOM      2  O   UNL     1      34.337 -24.046 -16.722  0.00  0.00    -0.329 OA
ATOM      3  C   UNL     1      36.299 -22.755 -16.363  0.00  0.00    +0.216 C 
ATOM      4  C   UNL     1      36.199 -23.788 -15.249  0.00  0.00    +0.233 C 
ATOM      5  C   UNL     1      35.378 -23.351 -17.423  0.00  0.00    +0.241 C 
ATOM      6  C   UNL     1      34.791 -24.363 -15.392  0.00  0.00    +0.203 C 
ATOM      7  C   UNL     1      35.928 -21.353 -15.893  0.00  0.00    +0.044 C 
ENDROOT
BRANCH   5   9
ATOM      8  O   UNL     1      36.807 -21.703 -19.202  0.00  0.00    -0.193 OA
ATOM      9  N   UNL     1      34.791 -22.409 -18.330  0.00  0.00    -0.178 N 
ATOM     10  N   UNL     1      34.944 -20.722 -20.048  0.00  0.00    -0.306 NA
ATOM     11  N   UNL     1      33.030 -19.720 -20.909  0.00  0.00    -0.332 N 
ATOM     12  C   UNL     1      33.412 -22.277 -18.351  0.00  0.00    +0.083 C 
ATOM     13  C   UNL     1      35.578 -21.612 -19.198  0.00  0.00    +0.276 C 
ATOM     14  C   UNL     1      32.782 -21.427 -19.160  0.00  0.00    +0.065 C 
ATOM     15  C   UNL     1      33.641 -20.610 -20.056  0.00  0.00    +0.193 C 
ATOM     16  H   UNL     1      33.573 -19.165 -21.514  0.00  0.00    +0.145 HD
ATOM     17  H   UNL     1      32.049 -19.637 -20.913  0.00  0.00    +0.145 HD
ENDBRANCH   5   9
BRANCH   4  18
ATOM     18  O   UNL     1      37.144 -24.837 -15.478  0.00  0.00    -0.447 OA
BRANCH  18  20
ATOM     19  O   UNL     1      39.046 -24.205 -14.337  0.00  0.00    -0.250 OA
ATOM     20  C   UNL     1      38.126 -24.988 -14.528  0.00  0.00    +0.316 C 
BRANCH  20  21
ATOM     21  C   UNL     1      37.913 -26.280 -13.758  0.00  0.00    +0.099 C 
ATOM     22  C   UNL     1      37.121 -27.283 -14.591  0.00  0.00    +0.012 C 
ATOM     23  C   UNL     1      37.204 -25.984 -12.442  0.00  0.00    +0.012 C 
ENDBRANCH  20  21
ENDBRANCH  18  20
ENDBRANCH   4  18
BRANCH   6  24
ATOM     24  C   UNL     1      33.789 -23.803 -14.394  0.00  0.00    +0.242 C 
BRANCH  24  25
ATOM     25  O   UNL     1      32.490 -23.872 -14.961  0.00  0.00    -0.446 OA
BRANCH  25  27
ATOM     26  O   UNL     1      31.679 -25.088 -13.176  0.00  0.00    -0.250 OA
ATOM     27  C   UNL     1      31.502 -24.357 -14.143  0.00  0.00    +0.316 C 
BRANCH  27  28
ATOM     28  C   UNL     1      30.147 -23.865 -14.620  0.00  0.00    +0.099 C 
ATOM     29  C   UNL     1      29.192 -25.036 -14.839  0.00  0.00    +0.012 C 
ATOM     30  C   UNL     1      30.316 -23.052 -15.898  0.00  0.00    +0.012 C 
ENDBRANCH  27  28
ENDBRANCH  25  27
ENDBRANCH  24  25
ENDBRANCH   6  24
TORSDOF 8
ENDMDL
MODEL 9
REMARK VINA RESULT:      -8.0     14.612     18.094
REMARK  Name = 16122663
REMARK  8 active torsions:
REMARK  status: ('A' for Active; 'I' for Inactive)
REMARK    1  A    between atoms: C_4  and  O_18
REMARK    2  A    between atoms: C_5  and  N_9
REMARK    3  A    between atoms: C_6  and  C_24
REMARK    4  A    between atoms: O_18  and  C_20
REMARK    5  A    between atoms: C_20  and  C_21
REMARK    6  A    between atoms: C_24  and  O_25
REMARK    7  A    between atoms: O_25  and  C_27
REMARK    8  A    between atoms: C_27  and  C_28
REMARK                            x       y       z     vdW  Elec       q    Type
REMARK                         _______ _______ _______ _____ _____    ______ ____
ROOT
ATOM      1  F   UNL     1      35.492 -23.247 -17.309  0.00  0.00    -0.232 F 
ATOM      2  O   UNL     1      33.361 -22.779 -14.568  0.00  0.00    -0.329 OA
ATOM      3  C   UNL     1      34.615 -23.688 -16.368  0.00  0.00    +0.216 C 
ATOM      4  C   UNL     1      33.187 -23.466 -16.849  0.00  0.00    +0.233 C 
ATOM      5  C   UNL     1      34.675 -22.783 -15.142  0.00  0.00    +0.241 C 
ATOM      6  C   UNL     1      32.403 -23.165 -15.573  0.00  0.00    +0.203 C 
ATOM      7  C   UNL     1      34.920 -25.159 -16.108  0.00  0.00    +0.044 C 
ENDROOT
BRANCH   5   9
ATOM      8  O   UNL     1      37.451 -22.339 -15.289  0.00  0.00    -0.193 OA
ATOM      9  N   UNL     1      35.628 -23.165 -14.141  0.00  0.00    -0.178 N 
ATOM     10  N   UNL     1      37.877 -23.303 -13.279  0.00  0.00    -0.306 NA
ATOM     11  N   UNL     1      38.306 -24.293 -11.219  0.00  0.00    -0.332 N 
ATOM     12  C   UNL     1      35.173 -23.806 -13.000  0.00  0.00    +0.083 C 
ATOM     13  C   UNL     1      37.013 -22.907 -14.286  0.00  0.00    +0.276 C 
ATOM     14  C   UNL     1      35.986 -24.197 -12.021  0.00  0.00    +0.065 C 
ATOM     15  C   UNL     1      37.431 -23.907 -12.209  0.00  0.00    +0.193 C 
ATOM     16  H   UNL     1      39.269 -24.115 -11.316  0.00  0.00    +0.145 HD
ATOM     17  H   UNL     1      37.968 -24.749 -10.414  0.00  0.00    +0.145 HD
ENDBRANCH   5   9
BRANCH   4  18
ATOM     18  O   UNL     1      33.137 -22.315 -17.696  0.00  0.00    -0.447 OA
BRANCH  18  20
ATOM     19  O   UNL     1      33.731 -23.526 -19.567  0.00  0.00    -0.250 OA
ATOM     20  C   UNL     1      33.661 -22.467 -18.958  0.00  0.00    +0.316 C 
BRANCH  20  21
ATOM     21  C   UNL     1      34.155 -21.130 -19.483  0.00  0.00    +0.099 C 
ATOM     22  C   UNL     1      33.145 -20.524 -20.454  0.00  0.00    +0.012 C 
ATOM     23  C   UNL     1      35.513 -21.309 -20.150  0.00  0.00    +0.012 C 
ENDBRANCH  20  21
ENDBRANCH  18  20
ENDBRANCH   4  18
BRANCH   6  24
ATOM     24  C   UNL     1      31.599 -24.343 -15.046  0.00  0.00    +0.242 C 
BRANCH  24  25
ATOM     25  O   UNL     1      30.420 -23.854 -14.428  0.00  0.00    -0.446 OA
BRANCH  25  27
ATOM     26  O   UNL     1      28.650 -25.314 -14.668  0.00  0.00    -0.250 OA
ATOM     27  C   UNL     1      29.234 -24.282 -14.971  0.00  0.00    +0.316 C 
BRANCH  27  28
ATOM     28  C   UNL     1      28.757 -23.291 -16.017  0.00  0.00    +0.099 C 
ATOM     29  C   UNL     1      27.760 -22.304 -15.413  0.00  0.00    +0.012 C 
ATOM     30  C   UNL     1      28.141 -24.040 -17.192  0.00  0.00    +0.012 C 
ENDBRANCH  27  28
ENDBRANCH  25  27
ENDBRANCH  24  25
ENDBRANCH   6  24
TORSDOF 8
ENDMDL
