MODEL 1
REMARK VINA RESULT:      -9.7      0.000      0.000
REMARK  Name = 54685311
REMARK  4 active torsions:
REMARK  status: ('A' for Active; 'I' for Inactive)
REMARK    1  A    between atoms: C_11  and  C_16
REMARK    2  A    between atoms: C_12  and  O_14
REMARK    3  A    between atoms: C_16  and  C_17
REMARK    4  A    between atoms: C_16  and  C_23
REMARK                            x       y       z     vdW  Elec       q    Type
REMARK                         _______ _______ _______ _____ _____    ______ ____
ROOT
ATOM      1  O   UNL     1      32.451 -23.051 -17.385  0.00  0.00    -0.426 OA
ATOM      2  O   UNL     1      34.469 -23.138 -18.391  0.00  0.00    -0.245 OA
ATOM      3  C   UNL     1      31.430 -23.117 -13.719  0.00  0.00    +0.032 C 
ATOM      4  C   UNL     1      32.246 -23.112 -14.989  0.00  0.00    +0.042 A 
ATOM      5  C   UNL     1      31.058 -24.527 -13.254  0.00  0.00    +0.005 C 
ATOM      6  C   UNL     1      30.421 -25.434 -14.314  0.00  0.00    +0.000 C 
ATOM      7  C   UNL     1      29.197 -24.844 -15.020  0.00  0.00    +0.000 C 
ATOM      8  C   UNL     1      29.464 -24.279 -16.422  0.00  0.00    +0.008 C 
ATOM      9  C   UNL     1      30.198 -22.936 -16.471  0.00  0.00    +0.064 C 
ATOM     10  C   UNL     1      31.675 -23.035 -16.203  0.00  0.00    +0.125 A 
ATOM     11  C   UNL     1      34.462 -23.248 -16.018  0.00  0.00    +0.091 A 
ATOM     12  C   UNL     1      33.692 -23.228 -14.913  0.00  0.00    +0.135 A 
ATOM     13  C   UNL     1      33.811 -23.142 -17.354  0.00  0.00    +0.345 A 
ENDROOT
BRANCH  12  14
ATOM     14  O   UNL     1      34.186 -23.322 -13.629  0.00  0.00    -0.506 OA
ATOM     15  H   UNL     1      33.999 -22.648 -13.004  0.00  0.00    +0.292 HD
ENDBRANCH  12  14
BRANCH  11  16
ATOM     16  C   UNL     1      35.959 -23.378 -16.057  0.00  0.00    +0.054 C 
BRANCH  16  17
ATOM     17  C   UNL     1      36.435 -24.472 -15.116  0.00  0.00    -0.018 C 
ATOM     18  C   UNL     1      36.092 -25.801 -15.363  0.00  0.00    -0.004 C 
ATOM     19  C   UNL     1      37.214 -24.147 -14.007  0.00  0.00    -0.004 C 
ATOM     20  C   UNL     1      36.529 -26.805 -14.501  0.00  0.00    -0.000 C 
ATOM     21  C   UNL     1      37.651 -25.151 -13.143  0.00  0.00    -0.000 C 
ATOM     22  C   UNL     1      37.309 -26.481 -13.390  0.00  0.00    -0.000 C 
ENDBRANCH  16  17
BRANCH  16  23
ATOM     23  C   UNL     1      36.614 -22.006 -15.790  0.00  0.00    +0.009 C 
ATOM     24  C   UNL     1      37.177 -21.359 -17.050  0.00  0.00    +0.001 C 
ENDBRANCH  16  23
ENDBRANCH  11  16
TORSDOF 4
ENDMDL
MODEL 2
REMARK VINA RESULT:      -9.2      7.413      9.914
REMARK  Name = 54685311
REMARK  4 active torsions:
REMARK  status: ('A' for Active; 'I' for Inactive)
REMARK    1  A    between atoms: C_11  and  C_16
REMARK    2  A    between atoms: C_12  and  O_14
REMARK    3  A    between atoms: C_16  and  C_17
REMARK    4  A    between atoms: C_16  and  C_23
REMARK                            x       y       z     vdW  Elec       q    Type
REMARK                         _______ _______ _______ _____ _____    ______ ____
ROOT
ATOM      1  O   UNL     1      34.662 -16.447 -24.172  0.00  0.00    -0.426 OA
ATOM      2  O   UNL     1      35.199 -18.608 -24.539  0.00  0.00    -0.245 OA
ATOM      3  C   UNL     1      34.612 -14.340 -21.003  0.00  0.00    +0.032 C 
ATOM      4  C   UNL     1      34.778 -15.487 -21.969  0.00  0.00    +0.042 A 
ATOM      5  C   UNL     1      33.218 -14.287 -20.374  0.00  0.00    +0.005 C 
ATOM      6  C   UNL     1      32.039 -14.348 -21.353  0.00  0.00    +0.000 C 
ATOM      7  C   UNL     1      32.077 -13.310 -22.478  0.00  0.00    +0.000 C 
ATOM      8  C   UNL     1      32.553 -13.840 -23.838  0.00  0.00    +0.008 C 
ATOM      9  C   UNL     1      34.057 -14.098 -23.963  0.00  0.00    +0.064 C 
ATOM     10  C   UNL     1      34.521 -15.358 -23.283  0.00  0.00    +0.125 A 
ATOM     11  C   UNL     1      35.339 -17.848 -22.293  0.00  0.00    +0.091 A 
ATOM     12  C   UNL     1      35.195 -16.788 -21.474  0.00  0.00    +0.135 A 
ATOM     13  C   UNL     1      35.067 -17.678 -23.749  0.00  0.00    +0.345 A 
ENDROOT
BRANCH  12  14
ATOM     14  O   UNL     1      35.416 -16.831 -20.113  0.00  0.00    -0.506 OA
ATOM     15  H   UNL     1      35.790 -17.598 -19.724  0.00  0.00    +0.292 HD
ENDBRANCH  12  14
BRANCH  11  16
ATOM     16  C   UNL     1      35.749 -19.236 -21.888  0.00  0.00    +0.054 C 
BRANCH  16  17
ATOM     17  C   UNL     1      34.683 -19.889 -21.026  0.00  0.00    -0.018 C 
ATOM     18  C   UNL     1      35.036 -20.884 -20.115  0.00  0.00    -0.004 C 
ATOM     19  C   UNL     1      33.351 -19.492 -21.144  0.00  0.00    -0.004 C 
ATOM     20  C   UNL     1      34.058 -21.484 -19.323  0.00  0.00    -0.000 C 
ATOM     21  C   UNL     1      32.372 -20.092 -20.351  0.00  0.00    -0.000 C 
ATOM     22  C   UNL     1      32.725 -21.088 -19.441  0.00  0.00    -0.000 C 
ENDBRANCH  16  17
BRANCH  16  23
ATOM     23  C   UNL     1      37.142 -19.201 -21.225  0.00  0.00    +0.009 C 
ATOM     24  C   UNL     1      38.232 -18.678 -22.155  0.00  0.00    +0.001 C 
ENDBRANCH  16  23
ENDBRANCH  11  16
TORSDOF 4
ENDMDL
MODEL 3
REMARK VINA RESULT:      -8.4     13.363     15.881
REMARK  Name = 54685311
REMARK  4 active torsions:
REMARK  status: ('A' for Active; 'I' for Inactive)
REMARK    1  A    between atoms: C_11  and  C_16
REMARK    2  A    between atoms: C_12  and  O_14
REMARK    3  A    between atoms: C_16  and  C_17
REMARK    4  A    between atoms: C_16  and  C_23
REMARK                            x       y       z     vdW  Elec       q    Type
REMARK                         _______ _______ _______ _____ _____    ______ ____
ROOT
ATOM      1  O   UNL     1      34.729  -9.623 -24.550  0.00  0.00    -0.426 OA
ATOM      2  O   UNL     1      34.978 -11.721 -25.344  0.00  0.00    -0.245 OA
ATOM      3  C   UNL     1      32.197  -8.091 -22.158  0.00  0.00    +0.032 C 
ATOM      4  C   UNL     1      32.962  -9.070 -23.015  0.00  0.00    +0.042 A 
ATOM      5  C   UNL     1      31.037  -7.425 -22.902  0.00  0.00    +0.005 C 
ATOM      6  C   UNL     1      31.384  -6.802 -24.260  0.00  0.00    +0.000 C 
ATOM      7  C   UNL     1      32.549  -5.809 -24.239  0.00  0.00    +0.000 C 
ATOM      8  C   UNL     1      33.888  -6.366 -24.744  0.00  0.00    +0.008 C 
ATOM      9  C   UNL     1      34.618  -7.314 -23.788  0.00  0.00    +0.064 C 
ATOM     10  C   UNL     1      34.034  -8.700 -23.737  0.00  0.00    +0.125 A 
ATOM     11  C   UNL     1      33.153 -11.356 -23.868  0.00  0.00    +0.091 A 
ATOM     12  C   UNL     1      32.516 -10.450 -23.101  0.00  0.00    +0.135 A 
ATOM     13  C   UNL     1      34.352 -10.930 -24.644  0.00  0.00    +0.345 A 
ENDROOT
BRANCH  12  14
ATOM     14  O   UNL     1      31.398 -10.732 -22.345  0.00  0.00    -0.506 OA
ATOM     15  H   UNL     1      30.872 -10.033 -22.008  0.00  0.00    +0.292 HD
ENDBRANCH  12  14
BRANCH  11  16
ATOM     16  C   UNL     1      32.772 -12.799 -24.041  0.00  0.00    +0.054 C 
BRANCH  16  17
ATOM     17  C   UNL     1      33.178 -13.619 -22.829  0.00  0.00    -0.018 C 
ATOM     18  C   UNL     1      32.309 -13.738 -21.745  0.00  0.00    -0.004 C 
ATOM     19  C   UNL     1      34.419 -14.253 -22.801  0.00  0.00    -0.004 C 
ATOM     20  C   UNL     1      32.680 -14.491 -20.633  0.00  0.00    -0.000 C 
ATOM     21  C   UNL     1      34.792 -15.006 -21.687  0.00  0.00    -0.000 C 
ATOM     22  C   UNL     1      33.923 -15.125 -20.603  0.00  0.00    -0.000 C 
ENDBRANCH  16  17
BRANCH  16  23
ATOM     23  C   UNL     1      33.343 -13.339 -25.370  0.00  0.00    +0.009 C 
ATOM     24  C   UNL     1      32.671 -14.629 -25.827  0.00  0.00    +0.001 C 
ENDBRANCH  16  23
ENDBRANCH  11  16
TORSDOF 4
ENDMDL
MODEL 4
REMARK VINA RESULT:      -7.8     12.716     15.395
REMARK  Name = 54685311
REMARK  4 active torsions:
REMARK  status: ('A' for Active; 'I' for Inactive)
REMARK    1  A    between atoms: C_11  and  C_16
REMARK    2  A    between atoms: C_12  and  O_14
REMARK    3  A    between atoms: C_16  and  C_17
REMARK    4  A    between atoms: C_16  and  C_23
REMARK                            x       y       z     vdW  Elec       q    Type
REMARK                         _______ _______ _______ _____ _____    ______ ____
ROOT
ATOM      1  O   UNL     1      31.404 -10.807 -22.341  0.00  0.00    -0.426 OA
ATOM      2  O   UNL     1      31.517 -12.928 -21.578  0.00  0.00    -0.245 OA
ATOM      3  C   UNL     1      33.667  -8.813 -24.663  0.00  0.00    +0.032 C 
ATOM      4  C   UNL     1      33.072  -9.925 -23.833  0.00  0.00    +0.042 A 
ATOM      5  C   UNL     1      34.677  -7.964 -23.887  0.00  0.00    +0.005 C 
ATOM      6  C   UNL     1      34.202  -7.435 -22.528  0.00  0.00    +0.000 C 
ATOM      7  C   UNL     1      32.879  -6.663 -22.560  0.00  0.00    +0.000 C 
ATOM      8  C   UNL     1      31.651  -7.455 -22.090  0.00  0.00    +0.008 C 
ATOM      9  C   UNL     1      31.118  -8.503 -23.071  0.00  0.00    +0.064 C 
ATOM     10  C   UNL     1      31.939  -9.762 -23.129  0.00  0.00    +0.125 A 
ATOM     11  C   UNL     1      33.274 -12.223 -23.013  0.00  0.00    +0.091 A 
ATOM     12  C   UNL     1      33.753 -11.206 -23.755  0.00  0.00    +0.135 A 
ATOM     13  C   UNL     1      32.005 -12.028 -22.256  0.00  0.00    +0.345 A 
ENDROOT
BRANCH  12  14
ATOM     14  O   UNL     1      34.917 -11.274 -24.492  0.00  0.00    -0.506 OA
ATOM     15  H   UNL     1      34.880 -11.257 -25.429  0.00  0.00    +0.292 HD
ENDBRANCH  12  14
BRANCH  11  16
ATOM     16  C   UNL     1      33.901 -13.578 -22.850  0.00  0.00    +0.054 C 
BRANCH  16  17
ATOM     17  C   UNL     1      33.662 -14.440 -24.077  0.00  0.00    -0.018 C 
ATOM     18  C   UNL     1      34.206 -15.722 -24.145  0.00  0.00    -0.004 C 
ATOM     19  C   UNL     1      32.898 -13.950 -25.135  0.00  0.00    -0.004 C 
ATOM     20  C   UNL     1      33.986 -16.514 -25.271  0.00  0.00    -0.000 C 
ATOM     21  C   UNL     1      32.678 -14.742 -26.263  0.00  0.00    -0.000 C 
ATOM     22  C   UNL     1      33.222 -16.024 -26.331  0.00  0.00    -0.000 C 
ENDBRANCH  16  17
BRANCH  16  23
ATOM     23  C   UNL     1      33.418 -14.228 -21.536  0.00  0.00    +0.009 C 
ATOM     24  C   UNL     1      34.541 -14.904 -20.757  0.00  0.00    +0.001 C 
ENDBRANCH  16  23
ENDBRANCH  11  16
TORSDOF 4
ENDMDL
MODEL 5
REMARK VINA RESULT:      -7.8     14.134     17.005
REMARK  Name = 54685311
REMARK  4 active torsions:
REMARK  status: ('A' for Active; 'I' for Inactive)
REMARK    1  A    between atoms: C_11  and  C_16
REMARK    2  A    between atoms: C_12  and  O_14
REMARK    3  A    between atoms: C_16  and  C_17
REMARK    4  A    between atoms: C_16  and  C_23
REMARK                            x       y       z     vdW  Elec       q    Type
REMARK                         _______ _______ _______ _____ _____    ______ ____
ROOT
ATOM      1  O   UNL     1      31.852 -12.617 -22.592  0.00  0.00    -0.426 OA
ATOM      2  O   UNL     1      30.481 -11.471 -21.214  0.00  0.00    -0.245 OA
ATOM      3  C   UNL     1      34.803 -11.522 -24.733  0.00  0.00    +0.032 C 
ATOM      4  C   UNL     1      33.638 -11.519 -23.774  0.00  0.00    +0.042 A 
ATOM      5  C   UNL     1      34.386 -11.238 -26.178  0.00  0.00    +0.005 C 
ATOM      6  C   UNL     1      33.232 -12.090 -26.722  0.00  0.00    +0.000 C 
ATOM      7  C   UNL     1      33.424 -13.603 -26.586  0.00  0.00    +0.000 C 
ATOM      8  C   UNL     1      32.663 -14.255 -25.423  0.00  0.00    +0.008 C 
ATOM      9  C   UNL     1      33.241 -14.010 -24.027  0.00  0.00    +0.064 C 
ATOM     10  C   UNL     1      32.954 -12.638 -23.478  0.00  0.00    +0.125 A 
ATOM     11  C   UNL     1      32.162 -10.212 -22.323  0.00  0.00    +0.091 A 
ATOM     12  C   UNL     1      33.208 -10.270 -23.170  0.00  0.00    +0.135 A 
ATOM     13  C   UNL     1      31.430 -11.467 -21.993  0.00  0.00    +0.345 A 
ENDROOT
BRANCH  12  14
ATOM     14  O   UNL     1      33.954  -9.172 -23.547  0.00  0.00    -0.506 OA
ATOM     15  H   UNL     1      34.672  -8.889 -23.015  0.00  0.00    +0.292 HD
ENDBRANCH  12  14
BRANCH  11  16
ATOM     16  C   UNL     1      31.625  -8.977 -21.655  0.00  0.00    +0.054 C 
BRANCH  16  17
ATOM     17  C   UNL     1      31.511  -7.830 -22.644  0.00  0.00    -0.018 C 
ATOM     18  C   UNL     1      32.135  -6.612 -22.373  0.00  0.00    -0.004 C 
ATOM     19  C   UNL     1      30.784  -7.993 -23.821  0.00  0.00    -0.004 C 
ATOM     20  C   UNL     1      32.032  -5.559 -23.280  0.00  0.00    -0.000 C 
ATOM     21  C   UNL     1      30.679  -6.939 -24.729  0.00  0.00    -0.000 C 
ATOM     22  C   UNL     1      31.303  -5.722 -24.458  0.00  0.00    -0.000 C 
ENDBRANCH  16  17
BRANCH  16  23
ATOM     23  C   UNL     1      32.475  -8.639 -20.412  0.00  0.00    +0.009 C 
ATOM     24  C   UNL     1      32.126  -9.495 -19.200  0.00  0.00    +0.001 C 
ENDBRANCH  16  23
ENDBRANCH  11  16
TORSDOF 4
ENDMDL
MODEL 6
REMARK VINA RESULT:      -7.6     16.444     18.960
REMARK  Name = 54685311
REMARK  4 active torsions:
REMARK  status: ('A' for Active; 'I' for Inactive)
REMARK    1  A    between atoms: C_11  and  C_16
REMARK    2  A    between atoms: C_12  and  O_14
REMARK    3  A    between atoms: C_16  and  C_17
REMARK    4  A    between atoms: C_16  and  C_23
REMARK                            x       y       z     vdW  Elec       q    Type
REMARK                         _______ _______ _______ _____ _____    ______ ____
ROOT
ATOM      1  O   UNL     1      31.739  -5.699 -21.197  0.00  0.00    -0.426 OA
ATOM      2  O   UNL     1      32.619  -7.388 -19.987  0.00  0.00    -0.245 OA
ATOM      3  C   UNL     1      30.469  -5.529 -24.782  0.00  0.00    +0.032 C 
ATOM      4  C   UNL     1      31.041  -6.026 -23.476  0.00  0.00    +0.042 A 
ATOM      5  C   UNL     1      31.541  -5.012 -25.744  0.00  0.00    +0.005 C 
ATOM      6  C   UNL     1      32.530  -3.995 -25.160  0.00  0.00    +0.000 C 
ATOM      7  C   UNL     1      31.886  -2.777 -24.489  0.00  0.00    +0.000 C 
ATOM      8  C   UNL     1      31.843  -2.826 -22.956  0.00  0.00    +0.008 C 
ATOM      9  C   UNL     1      30.801  -3.769 -22.348  0.00  0.00    +0.064 C 
ATOM     10  C   UNL     1      31.184  -5.223 -22.407  0.00  0.00    +0.125 A 
ATOM     11  C   UNL     1      32.022  -7.891 -22.231  0.00  0.00    +0.091 A 
ATOM     12  C   UNL     1      31.487  -7.404 -23.367  0.00  0.00    +0.135 A 
ATOM     13  C   UNL     1      32.154  -6.989 -21.051  0.00  0.00    +0.345 A 
ENDROOT
BRANCH  12  14
ATOM     14  O   UNL     1      31.321  -8.146 -24.518  0.00  0.00    -0.506 OA
ATOM     15  H   UNL     1      30.635  -8.784 -24.570  0.00  0.00    +0.292 HD
ENDBRANCH  12  14
BRANCH  11  16
ATOM     16  C   UNL     1      32.528  -9.289 -22.013  0.00  0.00    +0.054 C 
BRANCH  16  17
ATOM     17  C   UNL     1      33.397  -9.740 -23.173  0.00  0.00    -0.018 C 
ATOM     18  C   UNL     1      34.400  -8.902 -23.660  0.00  0.00    -0.004 C 
ATOM     19  C   UNL     1      33.194 -10.993 -23.751  0.00  0.00    -0.004 C 
ATOM     20  C   UNL     1      35.199  -9.316 -24.725  0.00  0.00    -0.000 C 
ATOM     21  C   UNL     1      33.993 -11.408 -24.817  0.00  0.00    -0.000 C 
ATOM     22  C   UNL     1      34.996 -10.569 -25.304  0.00  0.00    -0.000 C 
ENDBRANCH  16  17
BRANCH  16  23
ATOM     23  C   UNL     1      31.345 -10.238 -21.723  0.00  0.00    +0.009 C 
ATOM     24  C   UNL     1      31.314 -10.727 -20.279  0.00  0.00    +0.001 C 
ENDBRANCH  16  23
ENDBRANCH  11  16
TORSDOF 4
ENDMDL
MODEL 7
REMARK VINA RESULT:      -7.4     13.749     16.422
REMARK  Name = 54685311
REMARK  4 active torsions:
REMARK  status: ('A' for Active; 'I' for Inactive)
REMARK    1  A    between atoms: C_11  and  C_16
REMARK    2  A    between atoms: C_12  and  O_14
REMARK    3  A    between atoms: C_16  and  C_17
REMARK    4  A    between atoms: C_16  and  C_23
REMARK                            x       y       z     vdW  Elec       q    Type
REMARK                         _______ _______ _______ _____ _____    ______ ____
ROOT
ATOM      1  O   UNL     1      34.151 -11.976 -24.912  0.00  0.00    -0.426 OA
ATOM      2  O   UNL     1      35.139 -10.024 -25.465  0.00  0.00    -0.245 OA
ATOM      3  C   UNL     1      31.757 -12.911 -22.105  0.00  0.00    +0.032 C 
ATOM      4  C   UNL     1      32.667 -12.134 -23.025  0.00  0.00    +0.042 A 
ATOM      5  C   UNL     1      32.492 -13.502 -20.900  0.00  0.00    +0.005 C 
ATOM      6  C   UNL     1      33.760 -14.306 -21.217  0.00  0.00    +0.000 C 
ATOM      7  C   UNL     1      33.574 -15.430 -22.241  0.00  0.00    +0.000 C 
ATOM      8  C   UNL     1      34.059 -15.103 -23.661  0.00  0.00    +0.008 C 
ATOM      9  C   UNL     1      33.166 -14.157 -24.469  0.00  0.00    +0.064 C 
ATOM     10  C   UNL     1      33.287 -12.712 -24.069  0.00  0.00    +0.125 A 
ATOM     11  C   UNL     1      33.735  -9.995 -23.549  0.00  0.00    +0.091 A 
ATOM     12  C   UNL     1      32.917 -10.726 -22.768  0.00  0.00    +0.135 A 
ATOM     13  C   UNL     1      34.398 -10.649 -24.713  0.00  0.00    +0.345 A 
ENDROOT
BRANCH  12  14
ATOM     14  O   UNL     1      32.255 -10.226 -21.666  0.00  0.00    -0.506 OA
ATOM     15  H   UNL     1      32.393 -10.611 -20.822  0.00  0.00    +0.292 HD
ENDBRANCH  12  14
BRANCH  11  16
ATOM     16  C   UNL     1      34.075  -8.543 -23.367  0.00  0.00    +0.054 C 
BRANCH  16  17
ATOM     17  C   UNL     1      32.830  -7.726 -23.070  0.00  0.00    -0.018 C 
ATOM     18  C   UNL     1      32.804  -6.870 -21.969  0.00  0.00    -0.004 C 
ATOM     19  C   UNL     1      31.713  -7.830 -23.898  0.00  0.00    -0.004 C 
ATOM     20  C   UNL     1      31.662  -6.119 -21.696  0.00  0.00    -0.000 C 
ATOM     21  C   UNL     1      30.569  -7.079 -23.625  0.00  0.00    -0.000 C 
ATOM     22  C   UNL     1      30.544  -6.224 -22.524  0.00  0.00    -0.000 C 
ENDBRANCH  16  17
BRANCH  16  23
ATOM     23  C   UNL     1      34.872  -8.032 -24.587  0.00  0.00    +0.009 C 
ATOM     24  C   UNL     1      34.600  -6.566 -24.904  0.00  0.00    +0.001 C 
ENDBRANCH  16  23
ENDBRANCH  11  16
TORSDOF 4
ENDMDL
MODEL 8
REMARK VINA RESULT:      -7.2      8.362     10.712
REMARK  Name = 54685311
REMARK  4 active torsions:
REMARK  status: ('A' for Active; 'I' for Inactive)
REMARK    1  A    between atoms: C_11  and  C_16
REMARK    2  A    between atoms: C_12  and  O_14
REMARK    3  A    between atoms: C_16  and  C_17
REMARK    4  A    between atoms: C_16  and  C_23
REMARK                            x       y       z     vdW  Elec       q    Type
REMARK                         _______ _______ _______ _____ _____    ______ ____
ROOT
ATOM      1  O   UNL     1      34.106 -15.140 -24.626  0.00  0.00    -0.426 OA
ATOM      2  O   UNL     1      34.201 -17.122 -25.700  0.00  0.00    -0.245 OA
ATOM      3  C   UNL     1      34.324 -14.233 -20.936  0.00  0.00    +0.032 C 
ATOM      4  C   UNL     1      34.299 -15.006 -22.232  0.00  0.00    +0.042 A 
ATOM      5  C   UNL     1      32.939 -14.092 -20.300  0.00  0.00    +0.005 C 
ATOM      6  C   UNL     1      31.828 -13.574 -21.222  0.00  0.00    +0.000 C 
ATOM      7  C   UNL     1      32.143 -12.257 -21.938  0.00  0.00    +0.000 C 
ATOM      8  C   UNL     1      32.571 -12.400 -23.405  0.00  0.00    +0.008 C 
ATOM      9  C   UNL     1      33.993 -12.919 -23.637  0.00  0.00    +0.064 C 
ATOM     10  C   UNL     1      34.146 -14.400 -23.422  0.00  0.00    +0.125 A 
ATOM     11  C   UNL     1      34.373 -17.192 -23.333  0.00  0.00    +0.091 A 
ATOM     12  C   UNL     1      34.409 -16.455 -22.206  0.00  0.00    +0.135 A 
ATOM     13  C   UNL     1      34.222 -16.499 -24.644  0.00  0.00    +0.345 A 
ENDROOT
BRANCH  12  14
ATOM     14  O   UNL     1      34.542 -16.989 -20.941  0.00  0.00    -0.506 OA
ATOM     15  H   UNL     1      34.638 -16.422 -20.201  0.00  0.00    +0.292 HD
ENDBRANCH  12  14
BRANCH  11  16
ATOM     16  C   UNL     1      34.462 -18.689 -23.420  0.00  0.00    +0.054 C 
BRANCH  16  17
ATOM     17  C   UNL     1      35.114 -19.269 -22.177  0.00  0.00    -0.018 C 
ATOM     18  C   UNL     1      34.374 -20.075 -21.313  0.00  0.00    -0.004 C 
ATOM     19  C   UNL     1      36.453 -18.995 -21.900  0.00  0.00    -0.004 C 
ATOM     20  C   UNL     1      34.972 -20.609 -20.172  0.00  0.00    -0.000 C 
ATOM     21  C   UNL     1      37.052 -19.528 -20.758  0.00  0.00    -0.000 C 
ATOM     22  C   UNL     1      36.312 -20.335 -19.894  0.00  0.00    -0.000 C 
ENDBRANCH  16  17
BRANCH  16  23
ATOM     23  C   UNL     1      35.163 -19.099 -24.733  0.00  0.00    +0.009 C 
ATOM     24  C   UNL     1      34.889 -20.546 -25.127  0.00  0.00    +0.001 C 
ENDBRANCH  16  23
ENDBRANCH  11  16
TORSDOF 4
ENDMDL
MODEL 9
REMARK VINA RESULT:      -7.0      1.661      2.611
REMARK  Name = 54685311
REMARK  4 active torsions:
REMARK  status: ('A' for Active; 'I' for Inactive)
REMARK    1  A    between atoms: C_11  and  C_16
REMARK    2  A    between atoms: C_12  and  O_14
REMARK    3  A    between atoms: C_16  and  C_17
REMARK    4  A    between atoms: C_16  and  C_23
REMARK                            x       y       z     vdW  Elec       q    Type
REMARK                         _______ _______ _______ _____ _____    ______ ____
ROOT
ATOM      1  O   UNL     1      32.819 -23.005 -16.292  0.00  0.00    -0.426 OA
ATOM      2  O   UNL     1      35.009 -23.517 -16.466  0.00  0.00    -0.245 OA
ATOM      3  C   UNL     1      30.163 -24.010 -13.757  0.00  0.00    +0.032 C 
ATOM      4  C   UNL     1      31.474 -23.863 -14.491  0.00  0.00    +0.042 A 
ATOM      5  C   UNL     1      29.345 -25.211 -14.233  0.00  0.00    +0.005 C 
ATOM      6  C   UNL     1      29.134 -25.320 -15.748  0.00  0.00    +0.000 C 
ATOM      7  C   UNL     1      28.547 -24.070 -16.412  0.00  0.00    +0.000 C 
ATOM      8  C   UNL     1      29.564 -23.185 -17.146  0.00  0.00    +0.008 C 
ATOM      9  C   UNL     1      30.477 -22.339 -16.254  0.00  0.00    +0.064 C 
ATOM     10  C   UNL     1      31.589 -23.117 -15.604  0.00  0.00    +0.125 A 
ATOM     11  C   UNL     1      33.836 -24.488 -14.643  0.00  0.00    +0.091 A 
ATOM     12  C   UNL     1      32.649 -24.571 -14.012  0.00  0.00    +0.135 A 
ATOM     13  C   UNL     1      33.947 -23.640 -15.864  0.00  0.00    +0.345 A 
ENDROOT
BRANCH  12  14
ATOM     14  O   UNL     1      32.431 -25.326 -12.878  0.00  0.00    -0.506 OA
ATOM     15  H   UNL     1      31.646 -25.832 -12.796  0.00  0.00    +0.292 HD
ENDBRANCH  12  14
BRANCH  11  16
ATOM     16  C   UNL     1      35.105 -25.186 -14.245  0.00  0.00    +0.054 C 
BRANCH  16  17
ATOM     17  C   UNL     1      35.847 -24.400 -13.178  0.00  0.00    -0.018 C 
ATOM     18  C   UNL     1      35.538 -24.589 -11.832  0.00  0.00    -0.004 C 
ATOM     19  C   UNL     1      36.838 -23.490 -13.545  0.00  0.00    -0.004 C 
ATOM     20  C   UNL     1      36.220 -23.868 -10.852  0.00  0.00    -0.000 C 
ATOM     21  C   UNL     1      37.519 -22.768 -12.565  0.00  0.00    -0.000 C 
ATOM     22  C   UNL     1      37.210 -22.957 -11.219  0.00  0.00    -0.000 C 
ENDBRANCH  16  17
BRANCH  16  23
ATOM     23  C   UNL     1      35.958 -25.483 -15.497  0.00  0.00    +0.009 C 
ATOM     24  C   UNL     1      36.809 -26.740 -15.353  0.00  0.00    +0.001 C 
ENDBRANCH  16  23
ENDBRANCH  11  16
TORSDOF 4
ENDMDL
