MODEL 1
REMARK VINA RESULT:     -10.8      0.000      0.000
REMARK  Name = 5327067
REMARK  10 active torsions:
REMARK  status: ('A' for Active; 'I' for Inactive)
REMARK    1  A    between atoms: C_2  and  C_3
REMARK    2  A    between atoms: C_2  and  C_19
REMARK    3  A    between atoms: C_4  and  O_9
REMARK    4  A    between atoms: O_9  and  C_10
REMARK    5  A    between atoms: C_10  and  C_11
REMARK    6  A    between atoms: C_11  and  O_12
REMARK    7  A    between atoms: C_11  and  C_14
REMARK    8  A    between atoms: C_14  and  O_15
REMARK    9  A    between atoms: N_17  and  C_23
REMARK   10  A    between atoms: C_20  and  N_29
REMARK                            x       y       z     vdW  Elec       q    Type
REMARK                         _______ _______ _______ _____ _____    ______ ____
ROOT
ATOM      1  O   UNL     1      37.008 -18.657 -21.765  0.00  0.00    -0.286 OA
ATOM      2  C   UNL     1      35.772 -18.548 -21.742  0.00  0.00    +0.200 C 
ENDROOT
BRANCH   2   3
ATOM      3  C   UNL     1      34.999 -19.534 -21.003  0.00  0.00    +0.042 C 
ATOM      4  C   UNL     1      34.906 -21.456 -19.554  0.00  0.00    +0.139 C 
ATOM      5  C   UNL     1      35.652 -20.517 -20.258  0.00  0.00    +0.040 C 
ATOM      6  C   UNL     1      33.605 -19.496 -21.038  0.00  0.00    +0.003 C 
ATOM      7  C   UNL     1      33.515 -21.425 -19.585  0.00  0.00    +0.037 C 
ATOM      8  C   UNL     1      32.863 -20.442 -20.330  0.00  0.00    +0.003 C 
BRANCH   4   9
ATOM      9  O   UNL     1      35.546 -22.421 -18.823  0.00  0.00    -0.473 OA
BRANCH   9  10
ATOM     10  C   UNL     1      35.649 -22.198 -17.420  0.00  0.00    +0.237 C 
BRANCH  10  11
ATOM     11  C   UNL     1      37.116 -22.062 -17.025  0.00  0.00    +0.183 C 
BRANCH  11  12
ATOM     12  O   UNL     1      37.414 -20.676 -16.844  0.00  0.00    -0.378 OA
ATOM     13  H   UNL     1      36.613 -20.206 -16.564  0.00  0.00    +0.211 HD
ENDBRANCH  11  12
BRANCH  11  14
ATOM     14  C   UNL     1      37.407 -22.781 -15.715  0.00  0.00    +0.170 C 
BRANCH  14  15
ATOM     15  O   UNL     1      38.652 -23.465 -15.831  0.00  0.00    -0.379 OA
ATOM     16  H   UNL     1      39.025 -23.310 -16.713  0.00  0.00    +0.211 HD
ENDBRANCH  14  15
ENDBRANCH  11  14
ENDBRANCH  10  11
ENDBRANCH   9  10
ENDBRANCH   4   9
ENDBRANCH   2   3
BRANCH   2  19
ATOM     17  N   UNL     1      34.134 -15.595 -22.927  0.00  0.00    -0.177 N 
ATOM     18  N   UNL     1      34.196 -16.229 -24.111  0.00  0.00    -0.171 NA
ATOM     19  C   UNL     1      35.105 -17.445 -22.463  0.00  0.00    +0.088 C 
ATOM     20  C   UNL     1      34.678 -16.300 -21.895  0.00  0.00    +0.122 C 
ATOM     21  C   UNL     1      34.803 -17.379 -23.807  0.00  0.00    +0.124 C 
BRANCH  17  23
ATOM     22  F   UNL     1      31.821 -10.599 -22.648  0.00  0.00    -0.204 F 
ATOM     23  C   UNL     1      33.548 -14.329 -22.857  0.00  0.00    +0.075 C 
ATOM     24  C   UNL     1      33.986 -13.324 -23.707  0.00  0.00    +0.019 C 
ATOM     25  C   UNL     1      32.535 -14.095 -21.936  0.00  0.00    +0.019 C 
ATOM     26  C   UNL     1      33.401 -12.059 -23.637  0.00  0.00    +0.031 C 
ATOM     27  C   UNL     1      31.950 -12.831 -21.865  0.00  0.00    +0.031 C 
ATOM     28  C   UNL     1      32.383 -11.813 -22.715  0.00  0.00    +0.140 C 
ENDBRANCH  17  23
BRANCH  20  29
ATOM     29  N   UNL     1      34.703 -15.821 -20.632  0.00  0.00    -0.344 N 
ATOM     30  H   UNL     1      34.989 -14.895 -20.463  0.00  0.00    +0.144 HD
ATOM     31  H   UNL     1      34.435 -16.399 -19.880  0.00  0.00    +0.144 HD
ENDBRANCH  20  29
ENDBRANCH   2  19
TORSDOF 10
ENDMDL
MODEL 2
REMARK VINA RESULT:     -10.7      4.311      6.532
REMARK  Name = 5327067
REMARK  10 active torsions:
REMARK  status: ('A' for Active; 'I' for Inactive)
REMARK    1  A    between atoms: C_2  and  C_3
REMARK    2  A    between atoms: C_2  and  C_19
REMARK    3  A    between atoms: C_4  and  O_9
REMARK    4  A    between atoms: O_9  and  C_10
REMARK    5  A    between atoms: C_10  and  C_11
REMARK    6  A    between atoms: C_11  and  O_12
REMARK    7  A    between atoms: C_11  and  C_14
REMARK    8  A    between atoms: C_14  and  O_15
REMARK    9  A    between atoms: N_17  and  C_23
REMARK   10  A    between atoms: C_20  and  N_29
REMARK                            x       y       z     vdW  Elec       q    Type
REMARK                         _______ _______ _______ _____ _____    ______ ____
ROOT
ATOM      1  O   UNL     1      33.787 -23.972 -19.615  0.00  0.00    -0.286 OA
ATOM      2  C   UNL     1      33.982 -22.972 -18.906  0.00  0.00    +0.200 C 
ENDROOT
BRANCH   2   3
ATOM      3  C   UNL     1      33.499 -22.985 -17.534  0.00  0.00    +0.042 C 
ATOM      4  C   UNL     1      31.683 -22.829 -15.959  0.00  0.00    +0.139 C 
ATOM      5  C   UNL     1      32.138 -22.816 -17.272  0.00  0.00    +0.040 C 
ATOM      6  C   UNL     1      34.394 -23.167 -16.480  0.00  0.00    +0.003 C 
ATOM      7  C   UNL     1      32.571 -23.010 -14.903  0.00  0.00    +0.037 C 
ATOM      8  C   UNL     1      33.930 -23.178 -15.164  0.00  0.00    +0.003 C 
BRANCH   4   9
ATOM      9  O   UNL     1      30.348 -22.664 -15.701  0.00  0.00    -0.473 OA
BRANCH   9  10
ATOM     10  C   UNL     1      29.467 -23.648 -16.234  0.00  0.00    +0.237 C 
BRANCH  10  11
ATOM     11  C   UNL     1      28.275 -22.969 -16.899  0.00  0.00    +0.183 C 
BRANCH  11  12
ATOM     12  O   UNL     1      27.566 -23.942 -17.669  0.00  0.00    -0.378 OA
ATOM     13  H   UNL     1      26.863 -23.505 -18.176  0.00  0.00    +0.211 HD
ENDBRANCH  11  12
BRANCH  11  14
ATOM     14  C   UNL     1      27.314 -22.395 -15.867  0.00  0.00    +0.170 C 
BRANCH  14  15
ATOM     15  O   UNL     1      26.094 -22.047 -16.515  0.00  0.00    -0.379 OA
ATOM     16  H   UNL     1      26.288 -21.542 -17.320  0.00  0.00    +0.211 HD
ENDBRANCH  14  15
ENDBRANCH  11  14
ENDBRANCH  10  11
ENDBRANCH   9  10
ENDBRANCH   4   9
ENDBRANCH   2   3
BRANCH   2  19
ATOM     17  N   UNL     1      35.118 -19.972 -20.493  0.00  0.00    -0.177 N 
ATOM     18  N   UNL     1      36.290 -20.303 -19.922  0.00  0.00    -0.171 NA
ATOM     19  C   UNL     1      34.680 -21.791 -19.454  0.00  0.00    +0.088 C 
ATOM     20  C   UNL     1      34.109 -20.851 -20.232  0.00  0.00    +0.122 C 
ATOM     21  C   UNL     1      36.002 -21.438 -19.279  0.00  0.00    +0.124 C 
BRANCH  17  23
ATOM     22  F   UNL     1      34.795 -15.393 -23.544  0.00  0.00    -0.204 F 
ATOM     23  C   UNL     1      35.036 -18.811 -21.266  0.00  0.00    +0.075 C 
ATOM     24  C   UNL     1      35.199 -18.893 -22.642  0.00  0.00    +0.019 C 
ATOM     25  C   UNL     1      34.793 -17.593 -20.646  0.00  0.00    +0.019 C 
ATOM     26  C   UNL     1      35.118 -17.735 -23.414  0.00  0.00    +0.031 C 
ATOM     27  C   UNL     1      34.712 -16.434 -21.418  0.00  0.00    +0.031 C 
ATOM     28  C   UNL     1      34.874 -16.505 -22.802  0.00  0.00    +0.140 C 
ENDBRANCH  17  23
BRANCH  20  29
ATOM     29  N   UNL     1      32.863 -20.680 -20.724  0.00  0.00    -0.344 N 
ATOM     30  H   UNL     1      32.251 -20.035 -20.302  0.00  0.00    +0.144 HD
ATOM     31  H   UNL     1      32.565 -21.202 -21.505  0.00  0.00    +0.144 HD
ENDBRANCH  20  29
ENDBRANCH   2  19
TORSDOF 10
ENDMDL
MODEL 3
REMARK VINA RESULT:     -10.6      3.105      4.961
REMARK  Name = 5327067
REMARK  10 active torsions:
REMARK  status: ('A' for Active; 'I' for Inactive)
REMARK    1  A    between atoms: C_2  and  C_3
REMARK    2  A    between atoms: C_2  and  C_19
REMARK    3  A    between atoms: C_4  and  O_9
REMARK    4  A    between atoms: O_9  and  C_10
REMARK    5  A    between atoms: C_10  and  C_11
REMARK    6  A    between atoms: C_11  and  O_12
REMARK    7  A    between atoms: C_11  and  C_14
REMARK    8  A    between atoms: C_14  and  O_15
REMARK    9  A    between atoms: N_17  and  C_23
REMARK   10  A    between atoms: C_20  and  N_29
REMARK                            x       y       z     vdW  Elec       q    Type
REMARK                         _______ _______ _______ _____ _____    ______ ____
ROOT
ATOM      1  O   UNL     1      33.819 -23.557 -19.500  0.00  0.00    -0.286 OA
ATOM      2  C   UNL     1      34.434 -22.704 -18.841  0.00  0.00    +0.200 C 
ENDROOT
BRANCH   2   3
ATOM      3  C   UNL     1      34.531 -22.873 -17.399  0.00  0.00    +0.042 C 
ATOM      4  C   UNL     1      35.852 -22.909 -15.386  0.00  0.00    +0.139 C 
ATOM      5  C   UNL     1      35.767 -22.747 -16.764  0.00  0.00    +0.040 C 
ATOM      6  C   UNL     1      33.389 -23.160 -16.652  0.00  0.00    +0.003 C 
ATOM      7  C   UNL     1      34.717 -23.196 -14.635  0.00  0.00    +0.037 C 
ATOM      8  C   UNL     1      33.481 -23.323 -15.270  0.00  0.00    +0.003 C 
BRANCH   4   9
ATOM      9  O   UNL     1      37.064 -22.785 -14.761  0.00  0.00    -0.473 OA
BRANCH   9  10
ATOM     10  C   UNL     1      37.504 -23.897 -13.989  0.00  0.00    +0.237 C 
BRANCH  10  11
ATOM     11  C   UNL     1      38.462 -24.752 -14.811  0.00  0.00    +0.183 C 
BRANCH  11  12
ATOM     12  O   UNL     1      39.135 -23.910 -15.751  0.00  0.00    -0.378 OA
ATOM     13  H   UNL     1      39.822 -24.420 -16.208  0.00  0.00    +0.211 HD
ENDBRANCH  11  12
BRANCH  11  14
ATOM     14  C   UNL     1      39.516 -25.410 -13.931  0.00  0.00    +0.170 C 
BRANCH  14  15
ATOM     15  O   UNL     1      40.802 -24.937 -14.318  0.00  0.00    -0.379 OA
ATOM     16  H   UNL     1      41.468 -25.265 -13.694  0.00  0.00    +0.211 HD
ENDBRANCH  14  15
ENDBRANCH  11  14
ENDBRANCH  10  11
ENDBRANCH   9  10
ENDBRANCH   4   9
ENDBRANCH   2   3
BRANCH   2  19
ATOM     17  N   UNL     1      35.324 -19.757 -20.668  0.00  0.00    -0.177 N 
ATOM     18  N   UNL     1      36.557 -20.041 -20.213  0.00  0.00    -0.171 NA
ATOM     19  C   UNL     1      35.041 -21.536 -19.511  0.00  0.00    +0.088 C 
ATOM     20  C   UNL     1      34.369 -20.643 -20.263  0.00  0.00    +0.122 C 
ATOM     21  C   UNL     1      36.366 -21.150 -19.494  0.00  0.00    +0.124 C 
BRANCH  17  23
ATOM     22  F   UNL     1      34.570 -15.327 -23.861  0.00  0.00    -0.204 F 
ATOM     23  C   UNL     1      35.132 -18.634 -21.477  0.00  0.00    +0.075 C 
ATOM     24  C   UNL     1      35.134 -18.778 -22.857  0.00  0.00    +0.019 C 
ATOM     25  C   UNL     1      34.944 -17.391 -20.888  0.00  0.00    +0.019 C 
ATOM     26  C   UNL     1      34.944 -17.657 -23.665  0.00  0.00    +0.031 C 
ATOM     27  C   UNL     1      34.753 -16.270 -21.696  0.00  0.00    +0.031 C 
ATOM     28  C   UNL     1      34.753 -16.403 -23.084  0.00  0.00    +0.140 C 
ENDBRANCH  17  23
BRANCH  20  29
ATOM     29  N   UNL     1      33.074 -20.518 -20.626  0.00  0.00    -0.344 N 
ATOM     30  H   UNL     1      32.666 -19.625 -20.694  0.00  0.00    +0.144 HD
ATOM     31  H   UNL     1      32.537 -21.321 -20.820  0.00  0.00    +0.144 HD
ENDBRANCH  20  29
ENDBRANCH   2  19
TORSDOF 10
ENDMDL
MODEL 4
REMARK VINA RESULT:     -10.5      3.317      5.203
REMARK  Name = 5327067
REMARK  10 active torsions:
REMARK  status: ('A' for Active; 'I' for Inactive)
REMARK    1  A    between atoms: C_2  and  C_3
REMARK    2  A    between atoms: C_2  and  C_19
REMARK    3  A    between atoms: C_4  and  O_9
REMARK    4  A    between atoms: O_9  and  C_10
REMARK    5  A    between atoms: C_10  and  C_11
REMARK    6  A    between atoms: C_11  and  O_12
REMARK    7  A    between atoms: C_11  and  C_14
REMARK    8  A    between atoms: C_14  and  O_15
REMARK    9  A    between atoms: N_17  and  C_23
REMARK   10  A    between atoms: C_20  and  N_29
REMARK                            x       y       z     vdW  Elec       q    Type
REMARK                         _______ _______ _______ _____ _____    ______ ____
ROOT
ATOM      1  O   UNL     1      33.828 -23.831 -19.776  0.00  0.00    -0.286 OA
ATOM      2  C   UNL     1      34.102 -22.879 -19.030  0.00  0.00    +0.200 C 
ENDROOT
BRANCH   2   3
ATOM      3  C   UNL     1      33.727 -22.961 -17.626  0.00  0.00    +0.042 C 
ATOM      4  C   UNL     1      34.348 -23.169 -15.308  0.00  0.00    +0.139 C 
ATOM      5  C   UNL     1      34.714 -23.092 -16.648  0.00  0.00    +0.040 C 
ATOM      6  C   UNL     1      32.383 -22.909 -17.259  0.00  0.00    +0.003 C 
ATOM      7  C   UNL     1      33.009 -23.118 -14.935  0.00  0.00    +0.037 C 
ATOM      8  C   UNL     1      32.023 -22.988 -15.914  0.00  0.00    +0.003 C 
BRANCH   4   9
ATOM      9  O   UNL     1      35.315 -23.297 -14.347  0.00  0.00    -0.473 OA
BRANCH   9  10
ATOM     10  C   UNL     1      35.153 -24.359 -13.413  0.00  0.00    +0.237 C 
BRANCH  10  11
ATOM     11  C   UNL     1      36.497 -25.033 -13.158  0.00  0.00    +0.183 C 
BRANCH  11  12
ATOM     12  O   UNL     1      36.382 -25.857 -11.996  0.00  0.00    -0.378 OA
ATOM     13  H   UNL     1      35.771 -25.445 -11.366  0.00  0.00    +0.211 HD
ENDBRANCH  11  12
BRANCH  11  14
ATOM     14  C   UNL     1      36.907 -25.920 -14.326  0.00  0.00    +0.170 C 
BRANCH  14  15
ATOM     15  O   UNL     1      35.733 -26.394 -14.978  0.00  0.00    -0.379 OA
ATOM     16  H   UNL     1      35.337 -27.107 -14.453  0.00  0.00    +0.211 HD
ENDBRANCH  14  15
ENDBRANCH  11  14
ENDBRANCH  10  11
ENDBRANCH   9  10
ENDBRANCH   4   9
ENDBRANCH   2   3
BRANCH   2  19
ATOM     17  N   UNL     1      35.191 -19.835 -20.568  0.00  0.00    -0.177 N 
ATOM     18  N   UNL     1      36.376 -20.177 -20.033  0.00  0.00    -0.171 NA
ATOM     19  C   UNL     1      34.783 -21.682 -19.564  0.00  0.00    +0.088 C 
ATOM     20  C   UNL     1      34.191 -20.725 -20.306  0.00  0.00    +0.122 C 
ATOM     21  C   UNL     1      36.108 -21.328 -19.411  0.00  0.00    +0.124 C 
BRANCH  17  23
ATOM     22  F   UNL     1      34.779 -15.184 -23.497  0.00  0.00    -0.204 F 
ATOM     23  C   UNL     1      35.087 -18.656 -21.310  0.00  0.00    +0.075 C 
ATOM     24  C   UNL     1      34.849 -17.456 -20.657  0.00  0.00    +0.019 C 
ATOM     25  C   UNL     1      35.222 -18.704 -22.692  0.00  0.00    +0.019 C 
ATOM     26  C   UNL     1      34.745 -16.279 -21.398  0.00  0.00    +0.031 C 
ATOM     27  C   UNL     1      35.117 -17.528 -23.433  0.00  0.00    +0.031 C 
ATOM     28  C   UNL     1      34.879 -16.315 -22.786  0.00  0.00    +0.140 C 
ENDBRANCH  17  23
BRANCH  20  29
ATOM     29  N   UNL     1      32.933 -20.547 -20.765  0.00  0.00    -0.344 N 
ATOM     30  H   UNL     1      32.753 -20.574 -21.732  0.00  0.00    +0.144 HD
ATOM     31  H   UNL     1      32.195 -20.390 -20.131  0.00  0.00    +0.144 HD
ENDBRANCH  20  29
ENDBRANCH   2  19
TORSDOF 10
ENDMDL
MODEL 5
REMARK VINA RESULT:     -10.5      1.668      2.297
REMARK  Name = 5327067
REMARK  10 active torsions:
REMARK  status: ('A' for Active; 'I' for Inactive)
REMARK    1  A    between atoms: C_2  and  C_3
REMARK    2  A    between atoms: C_2  and  C_19
REMARK    3  A    between atoms: C_4  and  O_9
REMARK    4  A    between atoms: O_9  and  C_10
REMARK    5  A    between atoms: C_10  and  C_11
REMARK    6  A    between atoms: C_11  and  O_12
REMARK    7  A    between atoms: C_11  and  C_14
REMARK    8  A    between atoms: C_14  and  O_15
REMARK    9  A    between atoms: N_17  and  C_23
REMARK   10  A    between atoms: C_20  and  N_29
REMARK                            x       y       z     vdW  Elec       q    Type
REMARK                         _______ _______ _______ _____ _____    ______ ____
ROOT
ATOM      1  O   UNL     1      37.071 -18.772 -21.615  0.00  0.00    -0.286 OA
ATOM      2  C   UNL     1      35.861 -18.615 -21.395  0.00  0.00    +0.200 C 
ENDROOT
BRANCH   2   3
ATOM      3  C   UNL     1      35.136 -19.666 -20.697  0.00  0.00    +0.042 C 
ATOM      4  C   UNL     1      35.131 -21.592 -19.250  0.00  0.00    +0.139 C 
ATOM      5  C   UNL     1      35.830 -20.590 -19.914  0.00  0.00    +0.040 C 
ATOM      6  C   UNL     1      33.749 -19.751 -20.811  0.00  0.00    +0.003 C 
ATOM      7  C   UNL     1      33.747 -21.682 -19.359  0.00  0.00    +0.037 C 
ATOM      8  C   UNL     1      33.054 -20.759 -20.142  0.00  0.00    +0.003 C 
BRANCH   4   9
ATOM      9  O   UNL     1      35.811 -22.498 -18.481  0.00  0.00    -0.473 OA
BRANCH   9  10
ATOM     10  C   UNL     1      36.566 -21.975 -17.393  0.00  0.00    +0.237 C 
BRANCH  10  11
ATOM     11  C   UNL     1      36.062 -22.567 -16.081  0.00  0.00    +0.183 C 
BRANCH  11  12
ATOM     12  O   UNL     1      35.220 -23.683 -16.377  0.00  0.00    -0.378 OA
ATOM     13  H   UNL     1      34.529 -23.756 -15.700  0.00  0.00    +0.211 HD
ENDBRANCH  11  12
BRANCH  11  14
ATOM     14  C   UNL     1      37.212 -23.062 -15.215  0.00  0.00    +0.170 C 
BRANCH  14  15
ATOM     15  O   UNL     1      38.375 -23.200 -16.027  0.00  0.00    -0.379 OA
ATOM     16  H   UNL     1      38.115 -23.221 -16.961  0.00  0.00    +0.211 HD
ENDBRANCH  14  15
ENDBRANCH  11  14
ENDBRANCH  10  11
ENDBRANCH   9  10
ENDBRANCH   4   9
ENDBRANCH   2   3
BRANCH   2  19
ATOM     17  N   UNL     1      34.331 -15.844 -23.067  0.00  0.00    -0.177 N 
ATOM     18  N   UNL     1      34.047 -15.450 -21.813  0.00  0.00    -0.171 NA
ATOM     19  C   UNL     1      35.171 -17.389 -21.846  0.00  0.00    +0.088 C 
ATOM     20  C   UNL     1      35.015 -17.022 -23.133  0.00  0.00    +0.122 C 
ATOM     21  C   UNL     1      34.575 -16.421 -21.064  0.00  0.00    +0.124 C 
BRANCH  17  23
ATOM     22  F   UNL     1      32.718 -12.725 -27.316  0.00  0.00    -0.204 F 
ATOM     23  C   UNL     1      33.923 -15.053 -24.144  0.00  0.00    +0.075 C 
ATOM     24  C   UNL     1      33.951 -13.671 -24.027  0.00  0.00    +0.019 C 
ATOM     25  C   UNL     1      33.493 -15.663 -25.315  0.00  0.00    +0.019 C 
ATOM     26  C   UNL     1      33.543 -12.882 -25.102  0.00  0.00    +0.031 C 
ATOM     27  C   UNL     1      33.085 -14.874 -26.390  0.00  0.00    +0.031 C 
ATOM     28  C   UNL     1      33.109 -13.483 -26.284  0.00  0.00    +0.140 C 
ENDBRANCH  17  23
BRANCH  20  29
ATOM     29  N   UNL     1      35.388 -17.571 -24.310  0.00  0.00    -0.344 N 
ATOM     30  H   UNL     1      36.217 -17.276 -24.750  0.00  0.00    +0.144 HD
ATOM     31  H   UNL     1      34.829 -18.266 -24.729  0.00  0.00    +0.144 HD
ENDBRANCH  20  29
ENDBRANCH   2  19
TORSDOF 10
ENDMDL
MODEL 6
REMARK VINA RESULT:     -10.4      3.694      5.701
REMARK  Name = 5327067
REMARK  10 active torsions:
REMARK  status: ('A' for Active; 'I' for Inactive)
REMARK    1  A    between atoms: C_2  and  C_3
REMARK    2  A    between atoms: C_2  and  C_19
REMARK    3  A    between atoms: C_4  and  O_9
REMARK    4  A    between atoms: O_9  and  C_10
REMARK    5  A    between atoms: C_10  and  C_11
REMARK    6  A    between atoms: C_11  and  O_12
REMARK    7  A    between atoms: C_11  and  C_14
REMARK    8  A    between atoms: C_14  and  O_15
REMARK    9  A    between atoms: N_17  and  C_23
REMARK   10  A    between atoms: C_20  and  N_29
REMARK                            x       y       z     vdW  Elec       q    Type
REMARK                         _______ _______ _______ _____ _____    ______ ____
ROOT
ATOM      1  O   UNL     1      33.833 -23.360 -19.523  0.00  0.00    -0.286 OA
ATOM      2  C   UNL     1      34.510 -22.536 -18.889  0.00  0.00    +0.200 C 
ENDROOT
BRANCH   2   3
ATOM      3  C   UNL     1      34.684 -22.730 -17.458  0.00  0.00    +0.042 C 
ATOM      4  C   UNL     1      33.777 -23.314 -15.304  0.00  0.00    +0.139 C 
ATOM      5  C   UNL     1      33.603 -23.131 -16.671  0.00  0.00    +0.040 C 
ATOM      6  C   UNL     1      35.931 -22.515 -16.871  0.00  0.00    +0.003 C 
ATOM      7  C   UNL     1      35.019 -23.101 -14.713  0.00  0.00    +0.037 C 
ATOM      8  C   UNL     1      36.099 -22.700 -15.499  0.00  0.00    +0.003 C 
BRANCH   4   9
ATOM      9  O   UNL     1      32.717 -23.709 -14.532  0.00  0.00    -0.473 OA
BRANCH   9  10
ATOM     10  C   UNL     1      31.600 -22.827 -14.480  0.00  0.00    +0.237 C 
BRANCH  10  11
ATOM     11  C   UNL     1      30.318 -23.600 -14.768  0.00  0.00    +0.183 C 
BRANCH  11  12
ATOM     12  O   UNL     1      30.090 -23.598 -16.179  0.00  0.00    -0.378 OA
ATOM     13  H   UNL     1      30.919 -23.399 -16.640  0.00  0.00    +0.211 HD
ENDBRANCH  11  12
BRANCH  11  14
ATOM     14  C   UNL     1      30.426 -25.048 -14.310  0.00  0.00    +0.170 C 
BRANCH  14  15
ATOM     15  O   UNL     1      30.706 -25.071 -12.913  0.00  0.00    -0.379 OA
ATOM     16  H   UNL     1      30.024 -24.570 -12.439  0.00  0.00    +0.211 HD
ENDBRANCH  14  15
ENDBRANCH  11  14
ENDBRANCH  10  11
ENDBRANCH   9  10
ENDBRANCH   4   9
ENDBRANCH   2   3
BRANCH   2  19
ATOM     17  N   UNL     1      35.388 -19.612 -20.757  0.00  0.00    -0.177 N 
ATOM     18  N   UNL     1      36.624 -19.891 -20.308  0.00  0.00    -0.171 NA
ATOM     19  C   UNL     1      35.113 -21.377 -19.577  0.00  0.00    +0.088 C 
ATOM     20  C   UNL     1      34.436 -20.492 -20.335  0.00  0.00    +0.122 C 
ATOM     21  C   UNL     1      36.438 -20.992 -19.575  0.00  0.00    +0.124 C 
BRANCH  17  23
ATOM     22  F   UNL     1      34.611 -15.220 -23.996  0.00  0.00    -0.204 F 
ATOM     23  C   UNL     1      35.192 -18.499 -21.578  0.00  0.00    +0.075 C 
ATOM     24  C   UNL     1      34.971 -17.255 -21.003  0.00  0.00    +0.019 C 
ATOM     25  C   UNL     1      35.220 -18.654 -22.958  0.00  0.00    +0.019 C 
ATOM     26  C   UNL     1      34.774 -16.144 -21.822  0.00  0.00    +0.031 C 
ATOM     27  C   UNL     1      35.023 -17.542 -23.777  0.00  0.00    +0.031 C 
ATOM     28  C   UNL     1      34.800 -16.288 -23.210  0.00  0.00    +0.140 C 
ENDBRANCH  17  23
BRANCH  20  29
ATOM     29  N   UNL     1      33.138 -20.370 -20.689  0.00  0.00    -0.344 N 
ATOM     30  H   UNL     1      32.832 -19.567 -21.168  0.00  0.00    +0.144 HD
ATOM     31  H   UNL     1      32.497 -21.085 -20.466  0.00  0.00    +0.144 HD
ENDBRANCH  20  29
ENDBRANCH   2  19
TORSDOF 10
ENDMDL
MODEL 7
REMARK VINA RESULT:     -10.0      4.102      6.216
REMARK  Name = 5327067
REMARK  10 active torsions:
REMARK  status: ('A' for Active; 'I' for Inactive)
REMARK    1  A    between atoms: C_2  and  C_3
REMARK    2  A    between atoms: C_2  and  C_19
REMARK    3  A    between atoms: C_4  and  O_9
REMARK    4  A    between atoms: O_9  and  C_10
REMARK    5  A    between atoms: C_10  and  C_11
REMARK    6  A    between atoms: C_11  and  O_12
REMARK    7  A    between atoms: C_11  and  C_14
REMARK    8  A    between atoms: C_14  and  O_15
REMARK    9  A    between atoms: N_17  and  C_23
REMARK   10  A    between atoms: C_20  and  N_29
REMARK                            x       y       z     vdW  Elec       q    Type
REMARK                         _______ _______ _______ _____ _____    ______ ____
ROOT
ATOM      1  O   UNL     1      36.143 -22.420 -18.378  0.00  0.00    -0.286 OA
ATOM      2  C   UNL     1      34.936 -22.133 -18.396  0.00  0.00    +0.200 C 
ENDROOT
BRANCH   2   3
ATOM      3  C   UNL     1      34.075 -22.672 -17.354  0.00  0.00    +0.042 C 
ATOM      4  C   UNL     1      31.878 -23.239 -16.546  0.00  0.00    +0.139 C 
ATOM      5  C   UNL     1      32.694 -22.722 -17.546  0.00  0.00    +0.040 C 
ATOM      6  C   UNL     1      34.631 -23.140 -16.163  0.00  0.00    +0.003 C 
ATOM      7  C   UNL     1      32.425 -23.707 -15.356  0.00  0.00    +0.037 C 
ATOM      8  C   UNL     1      33.806 -23.657 -15.164  0.00  0.00    +0.003 C 
BRANCH   4   9
ATOM      9  O   UNL     1      30.522 -23.288 -16.734  0.00  0.00    -0.473 OA
BRANCH   9  10
ATOM     10  C   UNL     1      29.735 -23.690 -15.618  0.00  0.00    +0.237 C 
BRANCH  10  11
ATOM     11  C   UNL     1      28.371 -23.010 -15.675  0.00  0.00    +0.183 C 
BRANCH  11  12
ATOM     12  O   UNL     1      28.479 -21.717 -15.075  0.00  0.00    -0.378 OA
ATOM     13  H   UNL     1      27.930 -21.086 -15.566  0.00  0.00    +0.211 HD
ENDBRANCH  11  12
BRANCH  11  14
ATOM     14  C   UNL     1      27.901 -22.825 -17.111  0.00  0.00    +0.170 C 
BRANCH  14  15
ATOM     15  O   UNL     1      27.660 -24.106 -17.687  0.00  0.00    -0.379 OA
ATOM     16  H   UNL     1      27.236 -23.996 -18.552  0.00  0.00    +0.211 HD
ENDBRANCH  14  15
ENDBRANCH  11  14
ENDBRANCH  10  11
ENDBRANCH   9  10
ENDBRANCH   4   9
ENDBRANCH   2   3
BRANCH   2  19
ATOM     17  N   UNL     1      34.196 -19.847 -21.049  0.00  0.00    -0.177 N 
ATOM     18  N   UNL     1      32.943 -20.303 -20.878  0.00  0.00    -0.171 NA
ATOM     19  C   UNL     1      34.387 -21.273 -19.464  0.00  0.00    +0.088 C 
ATOM     20  C   UNL     1      35.108 -20.412 -20.208  0.00  0.00    +0.122 C 
ATOM     21  C   UNL     1      33.077 -21.191 -19.889  0.00  0.00    +0.124 C 
BRANCH  17  23
ATOM     22  F   UNL     1      35.183 -16.031 -24.902  0.00  0.00    -0.204 F 
ATOM     23  C   UNL     1      34.446 -18.880 -22.025  0.00  0.00    +0.075 C 
ATOM     24  C   UNL     1      34.470 -17.539 -21.669  0.00  0.00    +0.019 C 
ATOM     25  C   UNL     1      34.668 -19.275 -23.338  0.00  0.00    +0.019 C 
ATOM     26  C   UNL     1      34.719 -16.573 -22.644  0.00  0.00    +0.031 C 
ATOM     27  C   UNL     1      34.917 -18.309 -24.313  0.00  0.00    +0.031 C 
ATOM     28  C   UNL     1      34.943 -16.959 -23.966  0.00  0.00    +0.140 C 
ENDBRANCH  17  23
BRANCH  20  29
ATOM     29  N   UNL     1      36.416 -20.074 -20.234  0.00  0.00    -0.344 N 
ATOM     30  H   UNL     1      36.686 -19.139 -20.086  0.00  0.00    +0.144 HD
ATOM     31  H   UNL     1      37.100 -20.763 -20.403  0.00  0.00    +0.144 HD
ENDBRANCH  20  29
ENDBRANCH   2  19
TORSDOF 10
ENDMDL
MODEL 8
REMARK VINA RESULT:     -10.0      2.756      4.200
REMARK  Name = 5327067
REMARK  10 active torsions:
REMARK  status: ('A' for Active; 'I' for Inactive)
REMARK    1  A    between atoms: C_2  and  C_3
REMARK    2  A    between atoms: C_2  and  C_19
REMARK    3  A    between atoms: C_4  and  O_9
REMARK    4  A    between atoms: O_9  and  C_10
REMARK    5  A    between atoms: C_10  and  C_11
REMARK    6  A    between atoms: C_11  and  O_12
REMARK    7  A    between atoms: C_11  and  C_14
REMARK    8  A    between atoms: C_14  and  O_15
REMARK    9  A    between atoms: N_17  and  C_23
REMARK   10  A    between atoms: C_20  and  N_29
REMARK                            x       y       z     vdW  Elec       q    Type
REMARK                         _______ _______ _______ _____ _____    ______ ____
ROOT
ATOM      1  O   UNL     1      36.537 -21.986 -20.045  0.00  0.00    -0.286 OA
ATOM      2  C   UNL     1      35.477 -21.569 -19.553  0.00  0.00    +0.200 C 
ENDROOT
BRANCH   2   3
ATOM      3  C   UNL     1      34.968 -22.208 -18.349  0.00  0.00    +0.042 C 
ATOM      4  C   UNL     1      35.286 -22.923 -16.071  0.00  0.00    +0.139 C 
ATOM      5  C   UNL     1      35.779 -22.312 -17.218  0.00  0.00    +0.040 C 
ATOM      6  C   UNL     1      33.669 -22.717 -18.324  0.00  0.00    +0.003 C 
ATOM      7  C   UNL     1      33.992 -23.433 -16.040  0.00  0.00    +0.037 C 
ATOM      8  C   UNL     1      33.181 -23.329 -17.170  0.00  0.00    +0.003 C 
BRANCH   4   9
ATOM      9  O   UNL     1      36.082 -23.025 -14.960  0.00  0.00    -0.473 OA
BRANCH   9  10
ATOM     10  C   UNL     1      35.827 -24.122 -14.089  0.00  0.00    +0.237 C 
BRANCH  10  11
ATOM     11  C   UNL     1      35.646 -23.618 -12.662  0.00  0.00    +0.183 C 
BRANCH  11  12
ATOM     12  O   UNL     1      34.248 -23.568 -12.369  0.00  0.00    -0.378 OA
ATOM     13  H   UNL     1      33.751 -23.403 -13.186  0.00  0.00    +0.211 HD
ENDBRANCH  11  12
BRANCH  11  14
ATOM     14  C   UNL     1      36.304 -24.550 -11.654  0.00  0.00    +0.170 C 
BRANCH  14  15
ATOM     15  O   UNL     1      35.296 -25.121 -10.825  0.00  0.00    -0.379 OA
ATOM     16  H   UNL     1      35.041 -24.482 -10.141  0.00  0.00    +0.211 HD
ENDBRANCH  14  15
ENDBRANCH  11  14
ENDBRANCH  10  11
ENDBRANCH   9  10
ENDBRANCH   4   9
ENDBRANCH   2   3
BRANCH   2  19
ATOM     17  N   UNL     1      34.267 -18.611 -21.165  0.00  0.00    -0.177 N 
ATOM     18  N   UNL     1      33.071 -19.200 -20.993  0.00  0.00    -0.171 NA
ATOM     19  C   UNL     1      34.744 -20.456 -20.189  0.00  0.00    +0.088 C 
ATOM     20  C   UNL     1      35.315 -19.343 -20.689  0.00  0.00    +0.122 C 
ATOM     21  C   UNL     1      33.383 -20.347 -20.385  0.00  0.00    +0.124 C 
BRANCH  17  23
ATOM     22  F   UNL     1      34.531 -13.679 -23.612  0.00  0.00    -0.204 F 
ATOM     23  C   UNL     1      34.334 -17.361 -21.785  0.00  0.00    +0.075 C 
ATOM     24  C   UNL     1      34.109 -16.214 -21.037  0.00  0.00    +0.019 C 
ATOM     25  C   UNL     1      34.625 -17.285 -23.140  0.00  0.00    +0.019 C 
ATOM     26  C   UNL     1      34.175 -14.966 -21.656  0.00  0.00    +0.031 C 
ATOM     27  C   UNL     1      34.692 -16.037 -23.760  0.00  0.00    +0.031 C 
ATOM     28  C   UNL     1      34.467 -14.878 -23.018  0.00  0.00    +0.140 C 
ENDBRANCH  17  23
BRANCH  20  29
ATOM     29  N   UNL     1      36.591 -18.908 -20.773  0.00  0.00    -0.344 N 
ATOM     30  H   UNL     1      36.909 -18.468 -21.594  0.00  0.00    +0.144 HD
ATOM     31  H   UNL     1      37.205 -19.031 -20.012  0.00  0.00    +0.144 HD
ENDBRANCH  20  29
ENDBRANCH   2  19
TORSDOF 10
ENDMDL
MODEL 9
REMARK VINA RESULT:      -9.9      2.825      4.834
REMARK  Name = 5327067
REMARK  10 active torsions:
REMARK  status: ('A' for Active; 'I' for Inactive)
REMARK    1  A    between atoms: C_2  and  C_3
REMARK    2  A    between atoms: C_2  and  C_19
REMARK    3  A    between atoms: C_4  and  O_9
REMARK    4  A    between atoms: O_9  and  C_10
REMARK    5  A    between atoms: C_10  and  C_11
REMARK    6  A    between atoms: C_11  and  O_12
REMARK    7  A    between atoms: C_11  and  C_14
REMARK    8  A    between atoms: C_14  and  O_15
REMARK    9  A    between atoms: N_17  and  C_23
REMARK   10  A    between atoms: C_20  and  N_29
REMARK                            x       y       z     vdW  Elec       q    Type
REMARK                         _______ _______ _______ _____ _____    ______ ____
ROOT
ATOM      1  O   UNL     1      34.331 -22.774 -19.655  0.00  0.00    -0.286 OA
ATOM      2  C   UNL     1      35.141 -21.955 -19.194  0.00  0.00    +0.200 C 
ENDROOT
BRANCH   2   3
ATOM      3  C   UNL     1      35.679 -22.180 -17.861  0.00  0.00    +0.042 C 
ATOM      4  C   UNL     1      35.432 -23.053 -15.629  0.00  0.00    +0.139 C 
ATOM      5  C   UNL     1      34.911 -22.841 -16.901  0.00  0.00    +0.040 C 
ATOM      6  C   UNL     1      36.962 -21.736 -17.542  0.00  0.00    +0.003 C 
ATOM      7  C   UNL     1      36.711 -22.612 -15.305  0.00  0.00    +0.037 C 
ATOM      8  C   UNL     1      37.478 -21.952 -16.264  0.00  0.00    +0.003 C 
BRANCH   4   9
ATOM      9  O   UNL     1      34.679 -23.702 -14.687  0.00  0.00    -0.473 OA
BRANCH   9  10
ATOM     10  C   UNL     1      35.291 -24.804 -14.027  0.00  0.00    +0.237 C 
BRANCH  10  11
ATOM     11  C   UNL     1      35.612 -24.431 -12.584  0.00  0.00    +0.183 C 
BRANCH  11  12
ATOM     12  O   UNL     1      34.592 -24.964 -11.736  0.00  0.00    -0.378 OA
ATOM     13  H   UNL     1      33.934 -25.430 -12.275  0.00  0.00    +0.211 HD
ENDBRANCH  11  12
BRANCH  11  14
ATOM     14  C   UNL     1      36.946 -25.016 -12.141  0.00  0.00    +0.170 C 
BRANCH  14  15
ATOM     15  O   UNL     1      36.811 -26.428 -12.013  0.00  0.00    -0.379 OA
ATOM     16  H   UNL     1      36.023 -26.631 -11.486  0.00  0.00    +0.211 HD
ENDBRANCH  14  15
ENDBRANCH  11  14
ENDBRANCH  10  11
ENDBRANCH   9  10
ENDBRANCH   4   9
ENDBRANCH   2   3
BRANCH   2  19
ATOM     17  N   UNL     1      35.486 -19.025 -21.221  0.00  0.00    -0.177 N 
ATOM     18  N   UNL     1      36.793 -19.183 -20.946  0.00  0.00    -0.171 NA
ATOM     19  C   UNL     1      35.537 -20.770 -19.982  0.00  0.00    +0.088 C 
ATOM     20  C   UNL     1      34.684 -19.970 -20.653  0.00  0.00    +0.122 C 
ATOM     21  C   UNL     1      36.809 -20.272 -20.173  0.00  0.00    +0.124 C 
BRANCH  17  23
ATOM     22  F   UNL     1      33.877 -14.819 -24.400  0.00  0.00    -0.204 F 
ATOM     23  C   UNL     1      35.079 -17.959 -22.027  0.00  0.00    +0.075 C 
ATOM     24  C   UNL     1      34.714 -16.757 -21.437  0.00  0.00    +0.019 C 
ATOM     25  C   UNL     1      35.044 -18.119 -23.406  0.00  0.00    +0.019 C 
ATOM     26  C   UNL     1      34.307 -15.693 -22.241  0.00  0.00    +0.031 C 
ATOM     27  C   UNL     1      34.636 -17.055 -24.210  0.00  0.00    +0.031 C 
ATOM     28  C   UNL     1      34.268 -15.842 -23.628  0.00  0.00    +0.140 C 
ENDBRANCH  17  23
BRANCH  20  29
ATOM     29  N   UNL     1      33.344 -19.972 -20.822  0.00  0.00    -0.344 N 
ATOM     30  H   UNL     1      32.954 -20.310 -21.660  0.00  0.00    +0.144 HD
ATOM     31  H   UNL     1      32.757 -19.633 -20.107  0.00  0.00    +0.144 HD
ENDBRANCH  20  29
ENDBRANCH   2  19
TORSDOF 10
ENDMDL
