MODEL 1
REMARK VINA RESULT:     -10.3      0.000      0.000
REMARK  Name = 44631903
REMARK  1 active torsions:
REMARK  status: ('A' for Active; 'I' for Inactive)
REMARK    1  A    between atoms: C_19  and  C_24
REMARK                            x       y       z     vdW  Elec       q    Type
REMARK                         _______ _______ _______ _____ _____    ______ ____
ROOT
ATOM      1  S   UNL     1      31.572  -8.797 -20.078  0.00  0.00    -0.081 S 
ATOM      2  O   UNL     1      31.862  -5.917 -20.458  0.00  0.00    -0.270 OA
ATOM      3  N   UNL     1      32.909  -8.666 -23.712  0.00  0.00    -0.331 N 
ATOM      4  N   UNL     1      32.083  -5.852 -22.687  0.00  0.00    -0.300 N 
ATOM      5  N   UNL     1      32.866 -14.050 -22.305  0.00  0.00    -0.406 NA
ATOM      6  C   UNL     1      32.202  -6.334 -24.054  0.00  0.00    +0.091 C 
ATOM      7  C   UNL     1      32.523  -8.958 -22.443  0.00  0.00    +0.052 A 
ATOM      8  C   UNL     1      32.461 -10.341 -21.952  0.00  0.00    +0.008 A 
ATOM      9  C   UNL     1      33.313  -7.363 -24.184  0.00  0.00    +0.107 C 
ATOM     10  C   UNL     1      32.111  -8.021 -21.508  0.00  0.00    +0.096 A 
ATOM     11  C   UNL     1      31.870 -10.364 -20.687  0.00  0.00    +0.028 A 
ATOM     12  C   UNL     1      32.864 -11.628 -22.505  0.00  0.00    +0.098 C 
ATOM     13  C   UNL     1      32.014  -6.562 -21.502  0.00  0.00    +0.253 C 
ATOM     14  C   UNL     1      32.549 -12.833 -21.827  0.00  0.00    +0.117 C 
ATOM     15  C   UNL     1      30.853  -6.777 -24.617  0.00  0.00    +0.023 C 
ATOM     16  C   UNL     1      31.582 -11.560 -20.012  0.00  0.00    +0.009 C 
ATOM     17  C   UNL     1      31.907 -12.772 -20.609  0.00  0.00    +0.029 C 
ATOM     18  C   UNL     1      33.602 -11.775 -23.702  0.00  0.00    -0.012 C 
ATOM     19  C   UNL     1      33.540 -14.128 -23.469  0.00  0.00    +0.132 C 
ATOM     20  C   UNL     1      33.938 -13.030 -24.195  0.00  0.00    +0.028 C 
ATOM     21  H   UNL     1      32.913  -9.404 -24.364  0.00  0.00    +0.147 HD
ATOM     22  H   UNL     1      32.046  -4.873 -22.590  0.00  0.00    +0.150 HD
ENDROOT
BRANCH  19  24
ATOM     23  N   UNL     1      33.878 -17.094 -25.701  0.00  0.00    -0.248 NA
ATOM     24  C   UNL     1      33.845 -15.468 -23.912  0.00  0.00    +0.049 C 
ATOM     25  C   UNL     1      34.375 -16.409 -23.037  0.00  0.00    +0.005 C 
ATOM     26  C   UNL     1      33.616 -15.858 -25.222  0.00  0.00    +0.101 C 
ATOM     27  C   UNL     1      34.657 -17.692 -23.492  0.00  0.00    +0.015 C 
ATOM     28  C   UNL     1      34.392 -17.982 -24.821  0.00  0.00    +0.059 C 
ATOM     29  C   UNL     1      34.683 -19.350 -25.343  0.00  0.00    +0.052 C 
ENDBRANCH  19  24
TORSDOF 1
ENDMDL
MODEL 2
REMARK VINA RESULT:      -9.8      4.041      9.196
REMARK  Name = 44631903
REMARK  1 active torsions:
REMARK  status: ('A' for Active; 'I' for Inactive)
REMARK    1  A    between atoms: C_19  and  C_24
REMARK                            x       y       z     vdW  Elec       q    Type
REMARK                         _______ _______ _______ _____ _____    ______ ____
ROOT
ATOM      1  S   UNL     1      34.206 -17.772 -25.571  0.00  0.00    -0.081 S 
ATOM      2  O   UNL     1      35.321 -20.177 -24.348  0.00  0.00    -0.270 OA
ATOM      3  N   UNL     1      34.499 -16.650 -21.874  0.00  0.00    -0.331 N 
ATOM      4  N   UNL     1      34.952 -19.706 -22.189  0.00  0.00    -0.300 N 
ATOM      5  N   UNL     1      33.051 -12.098 -24.731  0.00  0.00    -0.406 NA
ATOM      6  C   UNL     1      34.539 -18.955 -21.014  0.00  0.00    +0.091 C 
ATOM      7  C   UNL     1      34.388 -16.789 -23.221  0.00  0.00    +0.052 A 
ATOM      8  C   UNL     1      34.005 -15.665 -24.085  0.00  0.00    +0.008 A 
ATOM      9  C   UNL     1      35.171 -17.572 -20.990  0.00  0.00    +0.107 C 
ATOM     10  C   UNL     1      34.573 -17.977 -23.909  0.00  0.00    +0.096 A 
ATOM     11  C   UNL     1      33.797 -16.124 -25.388  0.00  0.00    +0.028 A 
ATOM     12  C   UNL     1      33.798 -14.240 -23.858  0.00  0.00    +0.098 C 
ATOM     13  C   UNL     1      34.969 -19.329 -23.520  0.00  0.00    +0.253 C 
ATOM     14  C   UNL     1      33.293 -13.411 -24.893  0.00  0.00    +0.117 C 
ATOM     15  C   UNL     1      33.022 -18.966 -20.841  0.00  0.00    +0.023 C 
ATOM     16  C   UNL     1      33.319 -15.293 -26.412  0.00  0.00    +0.009 C 
ATOM     17  C   UNL     1      33.055 -13.957 -26.135  0.00  0.00    +0.029 C 
ATOM     18  C   UNL     1      34.100 -13.584 -22.643  0.00  0.00    -0.012 C 
ATOM     19  C   UNL     1      33.328 -11.535 -23.538  0.00  0.00    +0.132 C 
ATOM     20  C   UNL     1      33.859 -12.225 -22.474  0.00  0.00    +0.028 C 
ATOM     21  H   UNL     1      34.086 -15.854 -21.466  0.00  0.00    +0.147 HD
ATOM     22  H   UNL     1      35.269 -20.622 -22.010  0.00  0.00    +0.150 HD
ENDROOT
BRANCH  19  24
ATOM     23  N   UNL     1      31.492  -8.363 -22.864  0.00  0.00    -0.248 NA
ATOM     24  C   UNL     1      33.044 -10.123 -23.446  0.00  0.00    +0.049 C 
ATOM     25  C   UNL     1      33.985  -9.176 -23.831  0.00  0.00    +0.005 C 
ATOM     26  C   UNL     1      31.823  -9.669 -22.974  0.00  0.00    +0.101 C 
ATOM     27  C   UNL     1      33.682  -7.822 -23.733  0.00  0.00    +0.015 C 
ATOM     28  C   UNL     1      32.433  -7.470 -23.247  0.00  0.00    +0.059 C 
ATOM     29  C   UNL     1      32.074  -6.027 -23.129  0.00  0.00    +0.052 C 
ENDBRANCH  19  24
TORSDOF 1
ENDMDL
MODEL 3
REMARK VINA RESULT:      -9.6      3.262      4.867
REMARK  Name = 44631903
REMARK  1 active torsions:
REMARK  status: ('A' for Active; 'I' for Inactive)
REMARK    1  A    between atoms: C_19  and  C_24
REMARK                            x       y       z     vdW  Elec       q    Type
REMARK                         _______ _______ _______ _____ _____    ______ ____
ROOT
ATOM      1  S   UNL     1      33.441 -11.632 -24.237  0.00  0.00    -0.081 S 
ATOM      2  O   UNL     1      31.927  -9.156 -23.923  0.00  0.00    -0.270 OA
ATOM      3  N   UNL     1      31.671 -12.278 -20.852  0.00  0.00    -0.331 N 
ATOM      4  N   UNL     1      31.386  -9.319 -21.754  0.00  0.00    -0.300 N 
ATOM      5  N   UNL     1      34.154 -17.072 -22.205  0.00  0.00    -0.406 NA
ATOM      6  C   UNL     1      31.286  -9.887 -20.419  0.00  0.00    +0.091 C 
ATOM      7  C   UNL     1      32.320 -12.309 -22.045  0.00  0.00    +0.052 A 
ATOM      8  C   UNL     1      33.021 -13.512 -22.513  0.00  0.00    +0.008 A 
ATOM      9  C   UNL     1      30.699 -11.288 -20.454  0.00  0.00    +0.107 C 
ATOM     10  C   UNL     1      32.431 -11.233 -22.912  0.00  0.00    +0.096 A 
ATOM     11  C   UNL     1      33.740 -13.215 -23.673  0.00  0.00    +0.028 A 
ATOM     12  C   UNL     1      33.118 -14.881 -22.021  0.00  0.00    +0.098 C 
ATOM     13  C   UNL     1      31.911  -9.867 -22.911  0.00  0.00    +0.253 C 
ATOM     14  C   UNL     1      33.999 -15.807 -22.637  0.00  0.00    +0.117 C 
ATOM     15  C   UNL     1      32.602  -9.766 -19.654  0.00  0.00    +0.023 C 
ATOM     16  C   UNL     1      34.593 -14.143 -24.289  0.00  0.00    +0.009 C 
ATOM     17  C   UNL     1      34.722 -15.415 -23.742  0.00  0.00    +0.029 C 
ATOM     18  C   UNL     1      32.347 -15.389 -20.950  0.00  0.00    -0.012 C 
ATOM     19  C   UNL     1      33.416 -17.489 -21.158  0.00  0.00    +0.132 C 
ATOM     20  C   UNL     1      32.499 -16.698 -20.508  0.00  0.00    +0.028 C 
ATOM     21  H   UNL     1      31.883 -12.989 -20.204  0.00  0.00    +0.147 HD
ATOM     22  H   UNL     1      31.025  -8.408 -21.850  0.00  0.00    +0.150 HD
ENDROOT
BRANCH  19  24
ATOM     23  N   UNL     1      32.719 -20.970 -20.022  0.00  0.00    -0.248 NA
ATOM     24  C   UNL     1      33.638 -18.859 -20.759  0.00  0.00    +0.049 C 
ATOM     25  C   UNL     1      34.920 -19.394 -20.718  0.00  0.00    +0.005 C 
ATOM     26  C   UNL     1      32.581 -19.681 -20.404  0.00  0.00    +0.101 C 
ATOM     27  C   UNL     1      35.103 -20.717 -20.329  0.00  0.00    +0.015 C 
ATOM     28  C   UNL     1      33.980 -21.456 -19.993  0.00  0.00    +0.059 C 
ATOM     29  C   UNL     1      34.140 -22.878 -19.572  0.00  0.00    +0.052 C 
ENDBRANCH  19  24
TORSDOF 1
ENDMDL
MODEL 4
REMARK VINA RESULT:      -9.4      8.672     12.828
REMARK  Name = 44631903
REMARK  1 active torsions:
REMARK  status: ('A' for Active; 'I' for Inactive)
REMARK    1  A    between atoms: C_19  and  C_24
REMARK                            x       y       z     vdW  Elec       q    Type
REMARK                         _______ _______ _______ _____ _____    ______ ____
ROOT
ATOM      1  S   UNL     1      34.739 -23.656 -15.423  0.00  0.00    -0.081 S 
ATOM      2  O   UNL     1      32.892 -24.579 -13.360  0.00  0.00    -0.270 OA
ATOM      3  N   UNL     1      31.330 -22.796 -17.051  0.00  0.00    -0.331 N 
ATOM      4  N   UNL     1      30.986 -24.591 -14.539  0.00  0.00    -0.300 N 
ATOM      5  N   UNL     1      35.201 -20.558 -20.365  0.00  0.00    -0.406 NA
ATOM      6  C   UNL     1      30.086 -24.405 -15.666  0.00  0.00    +0.091 C 
ATOM      7  C   UNL     1      32.621 -22.924 -16.648  0.00  0.00    +0.052 A 
ATOM      8  C   UNL     1      33.735 -22.384 -17.439  0.00  0.00    +0.008 A 
ATOM      9  C   UNL     1      30.169 -22.990 -16.215  0.00  0.00    +0.107 C 
ATOM     10  C   UNL     1      33.028 -23.596 -15.506  0.00  0.00    +0.096 A 
ATOM     11  C   UNL     1      34.948 -22.807 -16.890  0.00  0.00    +0.028 A 
ATOM     12  C   UNL     1      33.817 -21.548 -18.629  0.00  0.00    +0.098 C 
ATOM     13  C   UNL     1      32.326 -24.269 -14.415  0.00  0.00    +0.253 C 
ATOM     14  C   UNL     1      35.069 -21.294 -19.247  0.00  0.00    +0.117 C 
ATOM     15  C   UNL     1      30.254 -25.505 -16.712  0.00  0.00    +0.023 C 
ATOM     16  C   UNL     1      36.184 -22.534 -17.494  0.00  0.00    +0.009 C 
ATOM     17  C   UNL     1      36.215 -21.801 -18.676  0.00  0.00    +0.029 C 
ATOM     18  C   UNL     1      32.702 -20.917 -19.227  0.00  0.00    -0.012 C 
ATOM     19  C   UNL     1      34.096 -20.010 -20.909  0.00  0.00    +0.132 C 
ATOM     20  C   UNL     1      32.836 -20.149 -20.378  0.00  0.00    +0.028 C 
ATOM     21  H   UNL     1      31.173 -22.552 -17.992  0.00  0.00    +0.147 HD
ATOM     22  H   UNL     1      30.582 -25.009 -13.745  0.00  0.00    +0.150 HD
ENDROOT
BRANCH  19  24
ATOM     23  N   UNL     1      34.507 -17.061 -23.150  0.00  0.00    -0.248 NA
ATOM     24  C   UNL     1      34.323 -19.232 -22.104  0.00  0.00    +0.049 C 
ATOM     25  C   UNL     1      34.567 -19.850 -23.325  0.00  0.00    +0.005 C 
ATOM     26  C   UNL     1      34.303 -17.847 -22.070  0.00  0.00    +0.101 C 
ATOM     27  C   UNL     1      34.781 -19.074 -24.459  0.00  0.00    +0.015 C 
ATOM     28  C   UNL     1      34.740 -17.696 -24.320  0.00  0.00    +0.059 C 
ATOM     29  C   UNL     1      34.966 -16.834 -25.517  0.00  0.00    +0.052 C 
ENDBRANCH  19  24
TORSDOF 1
ENDMDL
MODEL 5
REMARK VINA RESULT:      -9.3      3.043      4.545
REMARK  Name = 44631903
REMARK  1 active torsions:
REMARK  status: ('A' for Active; 'I' for Inactive)
REMARK    1  A    between atoms: C_19  and  C_24
REMARK                            x       y       z     vdW  Elec       q    Type
REMARK                         _______ _______ _______ _____ _____    ______ ____
ROOT
ATOM      1  S   UNL     1      33.108 -11.186 -24.371  0.00  0.00    -0.081 S 
ATOM      2  O   UNL     1      31.565  -8.751 -23.915  0.00  0.00    -0.270 OA
ATOM      3  N   UNL     1      31.707 -11.858 -20.822  0.00  0.00    -0.331 N 
ATOM      4  N   UNL     1      31.249  -8.915 -21.702  0.00  0.00    -0.300 N 
ATOM      5  N   UNL     1      34.174 -16.591 -22.399  0.00  0.00    -0.406 NA
ATOM      6  C   UNL     1      31.301  -9.476 -20.361  0.00  0.00    +0.091 C 
ATOM      7  C   UNL     1      32.233 -11.880 -22.074  0.00  0.00    +0.052 A 
ATOM      8  C   UNL     1      32.917 -13.066 -22.605  0.00  0.00    +0.008 A 
ATOM      9  C   UNL     1      30.752 -10.893 -20.332  0.00  0.00    +0.107 C 
ATOM     10  C   UNL     1      32.226 -10.807 -22.952  0.00  0.00    +0.096 A 
ATOM     11  C   UNL     1      33.507 -12.757 -23.833  0.00  0.00    +0.028 A 
ATOM     12  C   UNL     1      33.101 -14.428 -22.121  0.00  0.00    +0.098 C 
ATOM     13  C   UNL     1      31.671  -9.455 -22.904  0.00  0.00    +0.253 C 
ATOM     14  C   UNL     1      33.941 -15.334 -22.818  0.00  0.00    +0.117 C 
ATOM     15  C   UNL     1      32.683  -9.313 -19.733  0.00  0.00    +0.023 C 
ATOM     16  C   UNL     1      34.320 -13.666 -24.528  0.00  0.00    +0.009 C 
ATOM     17  C   UNL     1      34.538 -14.929 -23.992  0.00  0.00    +0.029 C 
ATOM     18  C   UNL     1      32.456 -14.950 -20.975  0.00  0.00    -0.012 C 
ATOM     19  C   UNL     1      33.558 -17.022 -21.281  0.00  0.00    +0.132 C 
ATOM     20  C   UNL     1      32.689 -16.252 -20.545  0.00  0.00    +0.028 C 
ATOM     21  H   UNL     1      32.003 -12.558 -20.195  0.00  0.00    +0.147 HD
ATOM     22  H   UNL     1      30.855  -8.015 -21.765  0.00  0.00    +0.150 HD
ENDROOT
BRANCH  19  24
ATOM     23  N   UNL     1      35.516 -20.079 -20.439  0.00  0.00    -0.248 NA
ATOM     24  C   UNL     1      33.857 -18.382 -20.902  0.00  0.00    +0.049 C 
ATOM     25  C   UNL     1      32.841 -19.293 -20.640  0.00  0.00    +0.005 C 
ATOM     26  C   UNL     1      35.167 -18.821 -20.789  0.00  0.00    +0.101 C 
ATOM     27  C   UNL     1      33.160 -20.598 -20.278  0.00  0.00    +0.015 C 
ATOM     28  C   UNL     1      34.501 -20.937 -20.193  0.00  0.00    +0.059 C 
ATOM     29  C   UNL     1      34.879 -22.328 -19.807  0.00  0.00    +0.052 C 
ENDBRANCH  19  24
TORSDOF 1
ENDMDL
MODEL 6
REMARK VINA RESULT:      -8.6      9.071     13.299
REMARK  Name = 44631903
REMARK  1 active torsions:
REMARK  status: ('A' for Active; 'I' for Inactive)
REMARK    1  A    between atoms: C_19  and  C_24
REMARK                            x       y       z     vdW  Elec       q    Type
REMARK                         _______ _______ _______ _____ _____    ______ ____
ROOT
ATOM      1  S   UNL     1      33.672 -24.319 -15.718  0.00  0.00    -0.081 S 
ATOM      2  O   UNL     1      35.266 -25.913 -13.863  0.00  0.00    -0.270 OA
ATOM      3  N   UNL     1      37.201 -22.834 -16.316  0.00  0.00    -0.331 N 
ATOM      4  N   UNL     1      37.137 -24.680 -13.819  0.00  0.00    -0.300 N 
ATOM      5  N   UNL     1      33.917 -20.546 -20.183  0.00  0.00    -0.406 NA
ATOM      6  C   UNL     1      38.066 -23.611 -14.148  0.00  0.00    +0.091 C 
ATOM      7  C   UNL     1      35.908 -23.251 -16.338  0.00  0.00    +0.052 A 
ATOM      8  C   UNL     1      34.940 -22.717 -17.305  0.00  0.00    +0.008 A 
ATOM      9  C   UNL     1      38.287 -23.511 -15.649  0.00  0.00    +0.107 C 
ATOM     10  C   UNL     1      35.358 -24.164 -15.451  0.00  0.00    +0.096 A 
ATOM     11  C   UNL     1      33.660 -23.182 -16.992  0.00  0.00    +0.028 A 
ATOM     12  C   UNL     1      35.046 -21.833 -18.458  0.00  0.00    +0.098 C 
ATOM     13  C   UNL     1      35.894 -24.967 -14.354  0.00  0.00    +0.253 C 
ATOM     14  C   UNL     1      33.881 -21.388 -19.134  0.00  0.00    +0.117 C 
ATOM     15  C   UNL     1      37.680 -22.298 -13.471  0.00  0.00    +0.023 C 
ATOM     16  C   UNL     1      32.514 -22.753 -17.680  0.00  0.00    +0.009 C 
ATOM     17  C   UNL     1      32.648 -21.845 -18.723  0.00  0.00    +0.029 C 
ATOM     18  C   UNL     1      36.274 -21.389 -18.999  0.00  0.00    -0.012 C 
ATOM     19  C   UNL     1      35.117 -20.129 -20.633  0.00  0.00    +0.132 C 
ATOM     20  C   UNL     1      36.315 -20.525 -20.088  0.00  0.00    +0.028 C 
ATOM     21  H   UNL     1      37.415 -22.000 -16.795  0.00  0.00    +0.147 HD
ATOM     22  H   UNL     1      37.437 -25.292 -13.109  0.00  0.00    +0.150 HD
ENDROOT
BRANCH  19  24
ATOM     23  N   UNL     1      35.184 -16.970 -22.609  0.00  0.00    -0.248 NA
ATOM     24  C   UNL     1      35.069 -19.231 -21.763  0.00  0.00    +0.049 C 
ATOM     25  C   UNL     1      34.870 -19.712 -23.052  0.00  0.00    +0.005 C 
ATOM     26  C   UNL     1      35.218 -17.864 -21.596  0.00  0.00    +0.101 C 
ATOM     27  C   UNL     1      34.827 -18.823 -24.121  0.00  0.00    +0.015 C 
ATOM     28  C   UNL     1      34.988 -17.473 -23.849  0.00  0.00    +0.059 C 
ATOM     29  C   UNL     1      34.948 -16.492 -24.972  0.00  0.00    +0.052 C 
ENDBRANCH  19  24
TORSDOF 1
ENDMDL
MODEL 7
REMARK VINA RESULT:      -8.5      2.820      8.621
REMARK  Name = 44631903
REMARK  1 active torsions:
REMARK  status: ('A' for Active; 'I' for Inactive)
REMARK    1  A    between atoms: C_19  and  C_24
REMARK                            x       y       z     vdW  Elec       q    Type
REMARK                         _______ _______ _______ _____ _____    ______ ____
ROOT
ATOM      1  S   UNL     1      32.030 -12.785 -19.581  0.00  0.00    -0.081 S 
ATOM      2  O   UNL     1      32.028 -15.626 -20.250  0.00  0.00    -0.270 OA
ATOM      3  N   UNL     1      32.544 -12.636 -23.418  0.00  0.00    -0.331 N 
ATOM      4  N   UNL     1      32.872 -15.525 -22.324  0.00  0.00    -0.300 N 
ATOM      5  N   UNL     1      31.784  -7.371 -21.784  0.00  0.00    -0.406 NA
ATOM      6  C   UNL     1      33.391 -14.942 -23.551  0.00  0.00    +0.091 C 
ATOM      7  C   UNL     1      32.287 -12.442 -22.098  0.00  0.00    +0.052 A 
ATOM      8  C   UNL     1      32.076 -11.099 -21.541  0.00  0.00    +0.008 A 
ATOM      9  C   UNL     1      32.442 -13.897 -24.113  0.00  0.00    +0.107 C 
ATOM     10  C   UNL     1      32.240 -13.449 -21.147  0.00  0.00    +0.096 A 
ATOM     11  C   UNL     1      32.009 -11.175 -20.148  0.00  0.00    +0.028 A 
ATOM     12  C   UNL     1      31.943  -9.772 -22.127  0.00  0.00    +0.098 C 
ATOM     13  C   UNL     1      32.362 -14.904 -21.197  0.00  0.00    +0.253 C 
ATOM     14  C   UNL     1      31.874  -8.622 -21.298  0.00  0.00    +0.117 C 
ATOM     15  C   UNL     1      34.834 -14.471 -23.387  0.00  0.00    +0.023 C 
ATOM     16  C   UNL     1      31.917 -10.035 -19.336  0.00  0.00    +0.009 C 
ATOM     17  C   UNL     1      31.875  -8.778 -19.930  0.00  0.00    +0.029 C 
ATOM     18  C   UNL     1      31.845  -9.530 -23.517  0.00  0.00    -0.012 C 
ATOM     19  C   UNL     1      31.728  -7.201 -23.120  0.00  0.00    +0.132 C 
ATOM     20  C   UNL     1      31.744  -8.239 -24.021  0.00  0.00    +0.028 C 
ATOM     21  H   UNL     1      32.825 -11.852 -23.944  0.00  0.00    +0.147 HD
ATOM     22  H   UNL     1      32.886 -16.509 -22.289  0.00  0.00    +0.150 HD
ENDROOT
BRANCH  19  24
ATOM     23  N   UNL     1      30.905  -3.566 -23.116  0.00  0.00    -0.248 NA
ATOM     24  C   UNL     1      31.629  -5.829 -23.559  0.00  0.00    +0.049 C 
ATOM     25  C   UNL     1      32.130  -5.435 -24.794  0.00  0.00    +0.005 C 
ATOM     26  C   UNL     1      31.030  -4.865 -22.765  0.00  0.00    +0.101 C 
ATOM     27  C   UNL     1      32.019  -4.107 -25.191  0.00  0.00    +0.015 C 
ATOM     28  C   UNL     1      31.403  -3.219 -24.323  0.00  0.00    +0.059 C 
ATOM     29  C   UNL     1      31.267  -1.787 -24.717  0.00  0.00    +0.052 C 
ENDBRANCH  19  24
TORSDOF 1
ENDMDL
MODEL 8
REMARK VINA RESULT:      -8.4      3.836      5.854
REMARK  Name = 44631903
REMARK  1 active torsions:
REMARK  status: ('A' for Active; 'I' for Inactive)
REMARK    1  A    between atoms: C_19  and  C_24
REMARK                            x       y       z     vdW  Elec       q    Type
REMARK                         _______ _______ _______ _____ _____    ______ ____
ROOT
ATOM      1  S   UNL     1      33.100 -12.099 -22.781  0.00  0.00    -0.081 S 
ATOM      2  O   UNL     1      33.683 -10.454 -25.120  0.00  0.00    -0.270 OA
ATOM      3  N   UNL     1      33.947 -14.823 -25.403  0.00  0.00    -0.331 N 
ATOM      4  N   UNL     1      33.612 -12.027 -26.714  0.00  0.00    -0.300 N 
ATOM      5  N   UNL     1      33.438 -17.497 -20.548  0.00  0.00    -0.406 NA
ATOM      6  C   UNL     1      33.488 -13.346 -27.316  0.00  0.00    +0.091 C 
ATOM      7  C   UNL     1      33.700 -14.055 -24.310  0.00  0.00    +0.052 A 
ATOM      8  C   UNL     1      33.537 -14.641 -22.973  0.00  0.00    +0.008 A 
ATOM      9  C   UNL     1      34.439 -14.341 -26.671  0.00  0.00    +0.107 C 
ATOM     10  C   UNL     1      33.534 -12.679 -24.334  0.00  0.00    +0.096 A 
ATOM     11  C   UNL     1      33.122 -13.655 -22.076  0.00  0.00    +0.028 A 
ATOM     12  C   UNL     1      33.703 -15.984 -22.431  0.00  0.00    +0.098 C 
ATOM     13  C   UNL     1      33.616 -11.661 -25.380  0.00  0.00    +0.253 C 
ATOM     14  C   UNL     1      33.338 -16.270 -21.091  0.00  0.00    +0.117 C 
ATOM     15  C   UNL     1      32.033 -13.803 -27.380  0.00  0.00    +0.023 C 
ATOM     16  C   UNL     1      32.783 -13.942 -20.745  0.00  0.00    +0.009 C 
ATOM     17  C   UNL     1      32.876 -15.251 -20.287  0.00  0.00    +0.029 C 
ATOM     18  C   UNL     1      34.252 -17.064 -23.160  0.00  0.00    -0.012 C 
ATOM     19  C   UNL     1      33.937 -18.496 -21.303  0.00  0.00    +0.132 C 
ATOM     20  C   UNL     1      34.364 -18.332 -22.599  0.00  0.00    +0.028 C 
ATOM     21  H   UNL     1      33.774 -15.790 -25.323  0.00  0.00    +0.147 HD
ATOM     22  H   UNL     1      33.707 -11.283 -27.352  0.00  0.00    +0.150 HD
ENDROOT
BRANCH  19  24
ATOM     23  N   UNL     1      32.874 -21.633 -19.594  0.00  0.00    -0.248 NA
ATOM     24  C   UNL     1      34.015 -19.779 -20.646  0.00  0.00    +0.049 C 
ATOM     25  C   UNL     1      35.240 -20.398 -20.425  0.00  0.00    +0.005 C 
ATOM     26  C   UNL     1      32.871 -20.432 -20.215  0.00  0.00    +0.101 C 
ATOM     27  C   UNL     1      35.283 -21.634 -19.789  0.00  0.00    +0.015 C 
ATOM     28  C   UNL     1      34.083 -22.204 -19.396  0.00  0.00    +0.059 C 
ATOM     29  C   UNL     1      34.093 -23.529 -18.711  0.00  0.00    +0.052 C 
ENDBRANCH  19  24
TORSDOF 1
ENDMDL
MODEL 9
REMARK VINA RESULT:      -7.8      1.896      3.081
REMARK  Name = 44631903
REMARK  1 active torsions:
REMARK  status: ('A' for Active; 'I' for Inactive)
REMARK    1  A    between atoms: C_19  and  C_24
REMARK                            x       y       z     vdW  Elec       q    Type
REMARK                         _______ _______ _______ _____ _____    ______ ____
ROOT
ATOM      1  S   UNL     1      33.759  -7.028 -24.498  0.00  0.00    -0.081 S 
ATOM      2  O   UNL     1      32.276  -4.876 -23.196  0.00  0.00    -0.270 OA
ATOM      3  N   UNL     1      32.072  -8.952 -21.589  0.00  0.00    -0.331 N 
ATOM      4  N   UNL     1      31.790  -5.877 -21.251  0.00  0.00    -0.300 N 
ATOM      5  N   UNL     1      34.474 -12.828 -24.780  0.00  0.00    -0.406 NA
ATOM      6  C   UNL     1      31.721  -6.923 -20.243  0.00  0.00    +0.091 C 
ATOM      7  C   UNL     1      32.689  -8.512 -22.716  0.00  0.00    +0.052 A 
ATOM      8  C   UNL     1      33.366  -9.435 -23.637  0.00  0.00    +0.008 A 
ATOM      9  C   UNL     1      31.119  -8.199 -20.808  0.00  0.00    +0.107 C 
ATOM     10  C   UNL     1      32.787  -7.182 -23.094  0.00  0.00    +0.096 A 
ATOM     11  C   UNL     1      34.058  -8.705 -24.607  0.00  0.00    +0.028 A 
ATOM     12  C   UNL     1      33.463 -10.886 -23.724  0.00  0.00    +0.098 C 
ATOM     13  C   UNL     1      32.280  -5.927 -22.544  0.00  0.00    +0.253 C 
ATOM     14  C   UNL     1      34.320 -11.495 -24.677  0.00  0.00    +0.117 C 
ATOM     15  C   UNL     1      33.057  -7.109 -19.528  0.00  0.00    +0.023 C 
ATOM     16  C   UNL     1      34.886  -9.316 -25.561  0.00  0.00    +0.009 C 
ATOM     17  C   UNL     1      35.017 -10.700 -25.560  0.00  0.00    +0.029 C 
ATOM     18  C   UNL     1      32.716 -11.775 -22.917  0.00  0.00    -0.012 C 
ATOM     19  C   UNL     1      33.760 -13.624 -23.960  0.00  0.00    +0.132 C 
ATOM     20  C   UNL     1      32.867 -13.152 -23.027  0.00  0.00    +0.028 C 
ATOM     21  H   UNL     1      32.294  -9.860 -21.277  0.00  0.00    +0.147 HD
ATOM     22  H   UNL     1      31.435  -5.002 -20.973  0.00  0.00    +0.150 HD
ENDROOT
BRANCH  19  24
ATOM     23  N   UNL     1      33.878 -16.982 -25.573  0.00  0.00    -0.248 NA
ATOM     24  C   UNL     1      33.980 -15.040 -24.137  0.00  0.00    +0.049 C 
ATOM     25  C   UNL     1      34.481 -15.822 -23.102  0.00  0.00    +0.005 C 
ATOM     26  C   UNL     1      33.696 -15.663 -25.342  0.00  0.00    +0.101 C 
ATOM     27  C   UNL     1      34.681 -17.183 -23.302  0.00  0.00    +0.015 C 
ATOM     28  C   UNL     1      34.367 -17.710 -24.544  0.00  0.00    +0.059 C 
ATOM     29  C   UNL     1      34.570 -19.167 -24.793  0.00  0.00    +0.052 C 
ENDBRANCH  19  24
TORSDOF 1
ENDMDL
