MODEL 1
REMARK VINA RESULT:      -5.3      0.000      0.000
REMARK  Name = 44
REMARK  3 active torsions:
REMARK  status: ('A' for Active; 'I' for Inactive)
REMARK    1  A    between atoms: C_1  and  C_4
REMARK    2  A    between atoms: C_1  and  C_7
REMARK    3  A    between atoms: C_1  and  O_8
REMARK                            x       y       z     vdW  Elec       q    Type
REMARK                         _______ _______ _______ _____ _____    ______ ____
ROOT
ATOM      1  C   UNL     1      27.700 -22.502 -17.142  0.00  0.00    +0.318 C 
ENDROOT
BRANCH   1   4
ATOM      2  O   UNL     1      26.348 -20.671 -17.809  0.00  0.00    -0.242 OA
ATOM      3  O   UNL     1      25.626 -22.042 -16.129  0.00  0.00    -0.242 OA
ATOM      4  C   UNL     1      26.437 -21.651 -17.017  0.00  0.00    +0.402 C 
ENDBRANCH   1   4
BRANCH   1   7
ATOM      5  O   UNL     1      28.192 -24.006 -15.377  0.00  0.00    -0.242 OA
ATOM      6  O   UNL     1      28.602 -21.776 -15.094  0.00  0.00    -0.242 OA
ATOM      7  C   UNL     1      28.215 -22.795 -15.735  0.00  0.00    +0.402 C 
ENDBRANCH   1   7
BRANCH   1   8
ATOM      8  O   UNL     1      27.384 -23.727 -17.797  0.00  0.00    -0.365 OA
ATOM      9  H   UNL     1      27.167 -23.551 -18.726  0.00  0.00    +0.212 HD
ENDBRANCH   1   8
TORSDOF 3
ENDMDL
MODEL 2
REMARK VINA RESULT:      -5.2      0.977      3.007
REMARK  Name = 44
REMARK  3 active torsions:
REMARK  status: ('A' for Active; 'I' for Inactive)
REMARK    1  A    between atoms: C_1  and  C_4
REMARK    2  A    between atoms: C_1  and  C_7
REMARK    3  A    between atoms: C_1  and  O_8
REMARK                            x       y       z     vdW  Elec       q    Type
REMARK                         _______ _______ _______ _____ _____    ______ ____
ROOT
ATOM      1  C   UNL     1      27.538 -22.962 -16.686  0.00  0.00    +0.318 C 
ENDROOT
BRANCH   1   4
ATOM      2  O   UNL     1      28.839 -21.869 -15.031  0.00  0.00    -0.242 OA
ATOM      3  O   UNL     1      29.791 -22.384 -17.044  0.00  0.00    -0.242 OA
ATOM      4  C   UNL     1      28.848 -22.342 -16.203  0.00  0.00    +0.402 C 
ENDBRANCH   1   4
BRANCH   1   7
ATOM      5  O   UNL     1      26.606 -20.958 -17.547  0.00  0.00    -0.242 OA
ATOM      6  O   UNL     1      25.569 -22.018 -15.808  0.00  0.00    -0.242 OA
ATOM      7  C   UNL     1      26.468 -21.871 -16.685  0.00  0.00    +0.402 C 
ENDBRANCH   1   7
BRANCH   1   8
ATOM      8  O   UNL     1      27.707 -23.459 -18.010  0.00  0.00    -0.365 OA
ATOM      9  H   UNL     1      26.913 -23.946 -18.277  0.00  0.00    +0.212 HD
ENDBRANCH   1   8
TORSDOF 3
ENDMDL
MODEL 3
REMARK VINA RESULT:      -5.2      9.906     11.446
REMARK  Name = 44
REMARK  3 active torsions:
REMARK  status: ('A' for Active; 'I' for Inactive)
REMARK    1  A    between atoms: C_1  and  C_4
REMARK    2  A    between atoms: C_1  and  C_7
REMARK    3  A    between atoms: C_1  and  O_8
REMARK                            x       y       z     vdW  Elec       q    Type
REMARK                         _______ _______ _______ _____ _____    ______ ____
ROOT
ATOM      1  C   UNL     1      36.840 -23.543 -11.829  0.00  0.00    +0.318 C 
ENDROOT
BRANCH   1   4
ATOM      2  O   UNL     1      37.791 -25.711 -11.968  0.00  0.00    -0.242 OA
ATOM      3  O   UNL     1      39.111 -23.884 -12.343  0.00  0.00    -0.242 OA
ATOM      4  C   UNL     1      38.027 -24.474 -12.068  0.00  0.00    +0.402 C 
ENDBRANCH   1   4
BRANCH   1   7
ATOM      5  O   UNL     1      34.873 -24.833 -11.532  0.00  0.00    -0.242 OA
ATOM      6  O   UNL     1      36.097 -24.220  -9.702  0.00  0.00    -0.242 OA
ATOM      7  C   UNL     1      35.836 -24.273 -10.939  0.00  0.00    +0.402 C 
ENDBRANCH   1   7
BRANCH   1   8
ATOM      8  O   UNL     1      37.288 -22.362 -11.170  0.00  0.00    -0.365 OA
ATOM      9  H   UNL     1      37.177 -21.600 -11.760  0.00  0.00    +0.212 HD
ENDBRANCH   1   8
TORSDOF 3
ENDMDL
MODEL 4
REMARK VINA RESULT:      -5.2      1.221      2.176
REMARK  Name = 44
REMARK  3 active torsions:
REMARK  status: ('A' for Active; 'I' for Inactive)
REMARK    1  A    between atoms: C_1  and  C_4
REMARK    2  A    between atoms: C_1  and  C_7
REMARK    3  A    between atoms: C_1  and  O_8
REMARK                            x       y       z     vdW  Elec       q    Type
REMARK                         _______ _______ _______ _____ _____    ______ ____
ROOT
ATOM      1  C   UNL     1      28.453 -22.648 -16.154  0.00  0.00    +0.318 C 
ENDROOT
BRANCH   1   4
ATOM      2  O   UNL     1      26.191 -22.280 -15.545  0.00  0.00    -0.242 OA
ATOM      3  O   UNL     1      26.995 -21.351 -17.471  0.00  0.00    -0.242 OA
ATOM      4  C   UNL     1      27.076 -22.037 -16.412  0.00  0.00    +0.402 C 
ENDBRANCH   1   4
BRANCH   1   7
ATOM      5  O   UNL     1      27.818 -24.547 -17.424  0.00  0.00    -0.242 OA
ATOM      6  O   UNL     1      28.795 -24.843 -15.380  0.00  0.00    -0.242 OA
ATOM      7  C   UNL     1      28.344 -24.159 -16.343  0.00  0.00    +0.402 C 
ENDBRANCH   1   7
BRANCH   1   8
ATOM      8  O   UNL     1      29.389 -22.119 -17.089  0.00  0.00    -0.365 OA
ATOM      9  H   UNL     1      29.539 -22.765 -17.797  0.00  0.00    +0.212 HD
ENDBRANCH   1   8
TORSDOF 3
ENDMDL
MODEL 5
REMARK VINA RESULT:      -5.2      9.558     10.810
REMARK  Name = 44
REMARK  3 active torsions:
REMARK  status: ('A' for Active; 'I' for Inactive)
REMARK    1  A    between atoms: C_1  and  C_4
REMARK    2  A    between atoms: C_1  and  C_7
REMARK    3  A    between atoms: C_1  and  O_8
REMARK                            x       y       z     vdW  Elec       q    Type
REMARK                         _______ _______ _______ _____ _____    ______ ____
ROOT
ATOM      1  C   UNL     1      35.935 -24.367 -12.170  0.00  0.00    +0.318 C 
ENDROOT
BRANCH   1   4
ATOM      2  O   UNL     1      37.389 -22.786 -11.163  0.00  0.00    -0.242 OA
ATOM      3  O   UNL     1      36.108 -24.134  -9.834  0.00  0.00    -0.242 OA
ATOM      4  C   UNL     1      36.541 -23.695 -10.939  0.00  0.00    +0.402 C 
ENDBRANCH   1   4
BRANCH   1   7
ATOM      5  O   UNL     1      37.006 -26.470 -11.943  0.00  0.00    -0.242 OA
ATOM      6  O   UNL     1      37.522 -25.139 -13.727  0.00  0.00    -0.242 OA
ATOM      7  C   UNL     1      36.914 -25.433 -12.657  0.00  0.00    +0.402 C 
ENDBRANCH   1   7
BRANCH   1   8
ATOM      8  O   UNL     1      34.700 -24.983 -11.816  0.00  0.00    -0.365 OA
ATOM      9  H   UNL     1      34.105 -24.977 -12.581  0.00  0.00    +0.212 HD
ENDBRANCH   1   8
TORSDOF 3
ENDMDL
MODEL 6
REMARK VINA RESULT:      -5.1     11.705     12.649
REMARK  Name = 44
REMARK  3 active torsions:
REMARK  status: ('A' for Active; 'I' for Inactive)
REMARK    1  A    between atoms: C_1  and  C_4
REMARK    2  A    between atoms: C_1  and  C_7
REMARK    3  A    between atoms: C_1  and  O_8
REMARK                            x       y       z     vdW  Elec       q    Type
REMARK                         _______ _______ _______ _____ _____    ______ ____
ROOT
ATOM      1  C   UNL     1      38.768 -25.106 -14.835  0.00  0.00    +0.318 C 
ENDROOT
BRANCH   1   4
ATOM      2  O   UNL     1      38.204 -23.871 -12.891  0.00  0.00    -0.242 OA
ATOM      3  O   UNL     1      38.455 -26.138 -12.743  0.00  0.00    -0.242 OA
ATOM      4  C   UNL     1      38.445 -25.025 -13.344  0.00  0.00    +0.402 C 
ENDBRANCH   1   4
BRANCH   1   7
ATOM      5  O   UNL     1      41.002 -24.610 -14.211  0.00  0.00    -0.242 OA
ATOM      6  O   UNL     1      40.615 -26.128 -15.875  0.00  0.00    -0.242 OA
ATOM      7  C   UNL     1      40.276 -25.298 -14.983  0.00  0.00    +0.402 C 
ENDBRANCH   1   7
BRANCH   1   8
ATOM      8  O   UNL     1      38.090 -26.220 -15.408  0.00  0.00    -0.365 OA
ATOM      9  H   UNL     1      37.198 -26.284 -15.034  0.00  0.00    +0.212 HD
ENDBRANCH   1   8
TORSDOF 3
ENDMDL
MODEL 7
REMARK VINA RESULT:      -5.0     11.702     12.758
REMARK  Name = 44
REMARK  3 active torsions:
REMARK  status: ('A' for Active; 'I' for Inactive)
REMARK    1  A    between atoms: C_1  and  C_4
REMARK    2  A    between atoms: C_1  and  C_7
REMARK    3  A    between atoms: C_1  and  O_8
REMARK                            x       y       z     vdW  Elec       q    Type
REMARK                         _______ _______ _______ _____ _____    ______ ____
ROOT
ATOM      1  C   UNL     1      38.873 -25.687 -14.485  0.00  0.00    +0.318 C 
ENDROOT
BRANCH   1   4
ATOM      2  O   UNL     1      38.125 -23.836 -13.205  0.00  0.00    -0.242 OA
ATOM      3  O   UNL     1      38.231 -25.901 -12.231  0.00  0.00    -0.242 OA
ATOM      4  C   UNL     1      38.361 -25.077 -13.182  0.00  0.00    +0.402 C 
ENDBRANCH   1   4
BRANCH   1   7
ATOM      5  O   UNL     1      40.959 -26.812 -14.536  0.00  0.00    -0.242 OA
ATOM      6  O   UNL     1      40.919 -24.538 -14.314  0.00  0.00    -0.242 OA
ATOM      7  C   UNL     1      40.400 -25.684 -14.443  0.00  0.00    +0.402 C 
ENDBRANCH   1   7
BRANCH   1   8
ATOM      8  O   UNL     1      38.404 -27.027 -14.599  0.00  0.00    -0.365 OA
ATOM      9  H   UNL     1      38.624 -27.374 -15.478  0.00  0.00    +0.212 HD
ENDBRANCH   1   8
TORSDOF 3
ENDMDL
MODEL 8
REMARK VINA RESULT:      -5.0      9.882     11.250
REMARK  Name = 44
REMARK  3 active torsions:
REMARK  status: ('A' for Active; 'I' for Inactive)
REMARK    1  A    between atoms: C_1  and  C_4
REMARK    2  A    between atoms: C_1  and  C_7
REMARK    3  A    between atoms: C_1  and  O_8
REMARK                            x       y       z     vdW  Elec       q    Type
REMARK                         _______ _______ _______ _____ _____    ______ ____
ROOT
ATOM      1  C   UNL     1      37.349 -26.683 -14.055  0.00  0.00    +0.318 C 
ENDROOT
BRANCH   1   4
ATOM      2  O   UNL     1      36.738 -27.391 -16.234  0.00  0.00    -0.242 OA
ATOM      3  O   UNL     1      35.845 -25.463 -15.393  0.00  0.00    -0.242 OA
ATOM      4  C   UNL     1      36.572 -26.498 -15.357  0.00  0.00    +0.402 C 
ENDBRANCH   1   4
BRANCH   1   7
ATOM      5  O   UNL     1      38.623 -24.706 -13.749  0.00  0.00    -0.242 OA
ATOM      6  O   UNL     1      39.615 -26.545 -14.673  0.00  0.00    -0.242 OA
ATOM      7  C   UNL     1      38.654 -25.897 -14.166  0.00  0.00    +0.402 C 
ENDBRANCH   1   7
BRANCH   1   8
ATOM      8  O   UNL     1      36.582 -26.175 -12.967  0.00  0.00    -0.365 OA
ATOM      9  H   UNL     1      36.873 -26.594 -12.142  0.00  0.00    +0.212 HD
ENDBRANCH   1   8
TORSDOF 3
ENDMDL
MODEL 9
REMARK VINA RESULT:      -5.0     11.773     12.838
REMARK  Name = 44
REMARK  3 active torsions:
REMARK  status: ('A' for Active; 'I' for Inactive)
REMARK    1  A    between atoms: C_1  and  C_4
REMARK    2  A    between atoms: C_1  and  C_7
REMARK    3  A    between atoms: C_1  and  O_8
REMARK                            x       y       z     vdW  Elec       q    Type
REMARK                         _______ _______ _______ _____ _____    ______ ____
ROOT
ATOM      1  C   UNL     1      38.839 -25.235 -14.639  0.00  0.00    +0.318 C 
ENDROOT
BRANCH   1   4
ATOM      2  O   UNL     1      41.148 -24.695 -14.663  0.00  0.00    -0.242 OA
ATOM      3  O   UNL     1      40.513 -26.887 -14.548  0.00  0.00    -0.242 OA
ATOM      4  C   UNL     1      40.312 -25.640 -14.617  0.00  0.00    +0.402 C 
ENDBRANCH   1   4
BRANCH   1   7
ATOM      5  O   UNL     1      38.638 -23.954 -12.653  0.00  0.00    -0.242 OA
ATOM      6  O   UNL     1      37.775 -26.069 -12.713  0.00  0.00    -0.242 OA
ATOM      7  C   UNL     1      38.373 -25.064 -13.194  0.00  0.00    +0.402 C 
ENDBRANCH   1   7
BRANCH   1   8
ATOM      8  O   UNL     1      38.697 -23.998 -15.332  0.00  0.00    -0.365 OA
ATOM      9  H   UNL     1      39.118 -24.066 -16.204  0.00  0.00    +0.212 HD
ENDBRANCH   1   8
TORSDOF 3
ENDMDL
