MODEL 1
REMARK VINA RESULT:      -8.7      0.000      0.000
REMARK  Name = 24851688
REMARK  1 active torsions:
REMARK  status: ('A' for Active; 'I' for Inactive)
REMARK    1  A    between atoms: C_8  and  C_27
REMARK                            x       y       z     vdW  Elec       q    Type
REMARK                         _______ _______ _______ _____ _____    ______ ____
ROOT
ATOM      1 CL   UNL     1      34.174 -13.047 -23.976  0.00  0.00    -0.080 Cl
ATOM      2 CL   UNL     1      32.063 -14.552 -22.110  0.00  0.00    -0.081 Cl
ATOM      3  O   UNL     1      35.038  -7.295 -24.556  0.00  0.00    -0.269 OA
ATOM      4  N   UNL     1      33.298  -6.211 -23.510  0.00  0.00    -0.302 N 
ATOM      5  N   UNL     1      30.439  -4.025 -24.234  0.00  0.00    +0.386 N 
ATOM      6  N   UNL     1      33.834  -9.854 -23.667  0.00  0.00    -0.321 N 
ATOM      7  C   UNL     1      31.936  -6.229 -22.898  0.00  0.00    +0.070 C 
ATOM      8  C   UNL     1      31.823  -7.406 -21.856  0.00  0.00    +0.131 C 
ATOM      9  C   UNL     1      30.884  -6.445 -24.024  0.00  0.00    -0.003 C 
ATOM     10  C   UNL     1      31.645  -4.859 -22.235  0.00  0.00    -0.003 C 
ATOM     11  C   UNL     1      30.770  -5.248 -24.972  0.00  0.00    -0.076 C 
ATOM     12  C   UNL     1      31.472  -3.715 -23.242  0.00  0.00    -0.076 C 
ATOM     13  C   UNL     1      32.439  -8.644 -22.430  0.00  0.00    +0.015 A 
ATOM     14  C   UNL     1      33.461  -8.574 -23.357  0.00  0.00    +0.111 A 
ATOM     15  C   UNL     1      34.018  -7.349 -23.873  0.00  0.00    +0.261 C 
ATOM     16  C   UNL     1      32.161 -10.019 -22.190  0.00  0.00    +0.015 A 
ATOM     17  C   UNL     1      33.051 -10.755 -22.979  0.00  0.00    +0.071 A 
ATOM     18  C   UNL     1      30.259  -2.903 -25.155  0.00  0.00    -0.101 C 
ATOM     19  C   UNL     1      31.246 -10.716 -21.375  0.00  0.00    +0.002 C 
ATOM     20  C   UNL     1      34.890 -10.171 -24.608  0.00  0.00    +0.131 C 
ATOM     21  C   UNL     1      33.065 -12.154 -22.994  0.00  0.00    +0.084 C 
ATOM     22  C   UNL     1      31.249 -12.115 -21.381  0.00  0.00    +0.012 C 
ATOM     23  C   UNL     1      32.147 -12.821 -22.180  0.00  0.00    +0.070 C 
ATOM     24  H   UNL     1      33.716  -5.334 -23.667  0.00  0.00    +0.150 HD
ATOM     25  H   UNL     1      29.561  -4.182 -23.739  0.00  0.00    -0.080 HD
ENDROOT
BRANCH   8  27
ATOM     26  N   UNL     1      33.074  -6.876 -19.595  0.00  0.00    -0.196 NA
ATOM     27  C   UNL     1      32.523  -7.108 -20.590  0.00  0.00    +0.078 C 
ENDBRANCH   8  27
TORSDOF 1
ENDMDL
MODEL 2
REMARK VINA RESULT:      -7.2      7.162     11.260
REMARK  Name = 24851688
REMARK  1 active torsions:
REMARK  status: ('A' for Active; 'I' for Inactive)
REMARK    1  A    between atoms: C_8  and  C_27
REMARK                            x       y       z     vdW  Elec       q    Type
REMARK                         _______ _______ _______ _____ _____    ______ ____
ROOT
ATOM      1 CL   UNL     1      32.961 -12.560 -23.990  0.00  0.00    -0.080 Cl
ATOM      2 CL   UNL     1      32.755 -13.335 -27.081  0.00  0.00    -0.081 Cl
ATOM      3  O   UNL     1      34.820 -15.870 -19.544  0.00  0.00    -0.269 OA
ATOM      4  N   UNL     1      35.010 -18.034 -20.307  0.00  0.00    -0.302 N 
ATOM      5  N   UNL     1      33.569 -21.375 -19.825  0.00  0.00    +0.386 N 
ATOM      6  N   UNL     1      34.027 -15.088 -22.292  0.00  0.00    -0.321 N 
ATOM      7  C   UNL     1      34.724 -19.079 -21.334  0.00  0.00    +0.070 C 
ATOM      8  C   UNL     1      35.091 -18.545 -22.771  0.00  0.00    +0.131 C 
ATOM      9  C   UNL     1      33.207 -19.421 -21.291  0.00  0.00    -0.003 C 
ATOM     10  C   UNL     1      35.510 -20.371 -20.995  0.00  0.00    -0.003 C 
ATOM     11  C   UNL     1      32.794 -20.143 -20.005  0.00  0.00    -0.076 C 
ATOM     12  C   UNL     1      35.003 -21.084 -19.736  0.00  0.00    -0.076 C 
ATOM     13  C   UNL     1      34.594 -17.141 -22.925  0.00  0.00    +0.015 A 
ATOM     14  C   UNL     1      34.467 -16.300 -21.836  0.00  0.00    +0.111 A 
ATOM     15  C   UNL     1      34.766 -16.670 -20.475  0.00  0.00    +0.261 C 
ATOM     16  C   UNL     1      34.188 -16.419 -24.083  0.00  0.00    +0.015 A 
ATOM     17  C   UNL     1      33.839 -15.135 -23.655  0.00  0.00    +0.071 A 
ATOM     18  C   UNL     1      33.117 -22.095 -18.635  0.00  0.00    -0.101 C 
ATOM     19  C   UNL     1      34.090 -16.726 -25.455  0.00  0.00    +0.002 C 
ATOM     20  C   UNL     1      33.784 -13.951 -21.426  0.00  0.00    +0.131 C 
ATOM     21  C   UNL     1      33.389 -14.144 -24.536  0.00  0.00    +0.084 C 
ATOM     22  C   UNL     1      33.642 -15.744 -26.346  0.00  0.00    +0.012 C 
ATOM     23  C   UNL     1      33.297 -14.473 -25.890  0.00  0.00    +0.070 C 
ATOM     24  H   UNL     1      35.399 -18.327 -19.452  0.00  0.00    +0.150 HD
ATOM     25  H   UNL     1      33.416 -21.968 -20.640  0.00  0.00    -0.080 HD
ENDROOT
BRANCH   8  27
ATOM     26  N   UNL     1      37.693 -18.517 -23.202  0.00  0.00    -0.196 NA
ATOM     27  C   UNL     1      36.548 -18.530 -23.013  0.00  0.00    +0.078 C 
ENDBRANCH   8  27
TORSDOF 1
ENDMDL
MODEL 3
REMARK VINA RESULT:      -6.6     16.405     18.837
REMARK  Name = 24851688
REMARK  1 active torsions:
REMARK  status: ('A' for Active; 'I' for Inactive)
REMARK    1  A    between atoms: C_8  and  C_27
REMARK                            x       y       z     vdW  Elec       q    Type
REMARK                         _______ _______ _______ _____ _____    ______ ____
ROOT
ATOM      1 CL   UNL     1      30.740 -23.348 -13.536  0.00  0.00    -0.080 Cl
ATOM      2 CL   UNL     1      29.646 -23.378 -16.537  0.00  0.00    -0.081 Cl
ATOM      3  O   UNL     1      36.293 -23.332 -11.708  0.00  0.00    -0.269 OA
ATOM      4  N   UNL     1      37.635 -23.776 -13.524  0.00  0.00    -0.302 N 
ATOM      5  N   UNL     1      39.962 -26.306 -14.812  0.00  0.00    +0.386 N 
ATOM      6  N   UNL     1      33.966 -23.434 -13.542  0.00  0.00    -0.321 N 
ATOM      7  C   UNL     1      37.805 -24.253 -14.929  0.00  0.00    +0.070 C 
ATOM      8  C   UNL     1      36.768 -23.536 -15.876  0.00  0.00    +0.131 C 
ATOM      9  C   UNL     1      37.553 -25.788 -14.970  0.00  0.00    -0.003 C 
ATOM     10  C   UNL     1      39.261 -24.000 -15.393  0.00  0.00    -0.003 C 
ATOM     11  C   UNL     1      38.639 -26.591 -14.248  0.00  0.00    -0.076 C 
ATOM     12  C   UNL     1      40.293 -24.884 -14.682  0.00  0.00    -0.076 C 
ATOM     13  C   UNL     1      35.424 -23.507 -15.217  0.00  0.00    +0.015 A 
ATOM     14  C   UNL     1      35.299 -23.493 -13.841  0.00  0.00    +0.111 A 
ATOM     15  C   UNL     1      36.405 -23.524 -12.916  0.00  0.00    +0.261 C 
ATOM     16  C   UNL     1      34.115 -23.485 -15.774  0.00  0.00    +0.015 A 
ATOM     17  C   UNL     1      33.220 -23.439 -14.700  0.00  0.00    +0.071 A 
ATOM     18  C   UNL     1      40.983 -27.131 -14.167  0.00  0.00    -0.101 C 
ATOM     19  C   UNL     1      33.598 -23.493 -17.085  0.00  0.00    +0.002 C 
ATOM     20  C   UNL     1      33.453 -23.398 -12.186  0.00  0.00    +0.131 C 
ATOM     21  C   UNL     1      31.832 -23.405 -14.877  0.00  0.00    +0.084 C 
ATOM     22  C   UNL     1      32.212 -23.460 -17.275  0.00  0.00    +0.012 C 
ATOM     23  C   UNL     1      31.345 -23.417 -16.186  0.00  0.00    +0.070 C 
ATOM     24  H   UNL     1      38.449 -23.628 -12.991  0.00  0.00    +0.150 HD
ATOM     25  H   UNL     1      39.939 -26.536 -15.806  0.00  0.00    -0.080 HD
ENDROOT
BRANCH   8  27
ATOM     26  N   UNL     1      37.445 -21.043 -16.408  0.00  0.00    -0.196 NA
ATOM     27  C   UNL     1      37.147 -22.140 -16.173  0.00  0.00    +0.078 C 
ENDBRANCH   8  27
TORSDOF 1
ENDMDL
