MODEL 1
REMARK VINA RESULT:      -8.6      0.000      0.000
REMARK  Name = 337359
REMARK  0 active torsions:
REMARK  status: ('A' for Active; 'I' for Inactive)
REMARK                            x       y       z     vdW  Elec       q    Type
REMARK                         _______ _______ _______ _____ _____    ______ ____
ROOT
ATOM      1  F   UNL     1      33.300 -14.571 -19.905  0.00  0.00    -0.204 F 
ATOM      2  O   UNL     1      35.056 -17.288 -24.349  0.00  0.00    -0.476 OA
ATOM      3  O   UNL     1      36.669 -19.023 -21.041  0.00  0.00    -0.273 OA
ATOM      4  O   UNL     1      32.773 -20.937 -19.571  0.00  0.00    -0.252 OA
ATOM      5  N   UNL     1      33.244 -19.524 -21.372  0.00  0.00    -0.281 N 
ATOM      6  N   UNL     1      34.913 -20.163 -20.048  0.00  0.00    -0.238 N 
ATOM      7  C   UNL     1      34.403 -18.883 -21.974  0.00  0.00    +0.153 C 
ATOM      8  C   UNL     1      34.656 -19.483 -23.361  0.00  0.00    +0.079 C 
ATOM      9  C   UNL     1      34.283 -17.379 -22.030  0.00  0.00    +0.038 C 
ATOM     10  C   UNL     1      35.487 -19.341 -20.987  0.00  0.00    +0.249 C 
ATOM     11  C   UNL     1      35.600 -18.595 -24.154  0.00  0.00    +0.208 C 
ATOM     12  C   UNL     1      34.613 -16.680 -23.201  0.00  0.00    +0.137 C 
ATOM     13  C   UNL     1      33.558 -20.289 -20.249  0.00  0.00    +0.307 C 
ATOM     14  C   UNL     1      33.850 -16.642 -20.914  0.00  0.00    +0.030 C 
ATOM     15  C   UNL     1      34.468 -15.291 -23.268  0.00  0.00    +0.039 C 
ATOM     16  C   UNL     1      33.721 -15.253 -20.978  0.00  0.00    +0.140 C 
ATOM     17  C   UNL     1      34.026 -14.579 -22.157  0.00  0.00    +0.033 C 
ATOM     18  H   UNL     1      32.330 -19.428 -21.723  0.00  0.00    +0.152 HD
ATOM     19  H   UNL     1      35.408 -20.606 -19.322  0.00  0.00    +0.159 HD
ENDROOT
TORSDOF 0
ENDMDL
MODEL 2
REMARK VINA RESULT:      -8.1      8.128      9.811
REMARK  Name = 337359
REMARK  0 active torsions:
REMARK  status: ('A' for Active; 'I' for Inactive)
REMARK                            x       y       z     vdW  Elec       q    Type
REMARK                         _______ _______ _______ _____ _____    ______ ____
ROOT
ATOM      1  F   UNL     1      33.527 -22.621 -18.621  0.00  0.00    -0.204 F 
ATOM      2  O   UNL     1      32.391 -24.103 -13.451  0.00  0.00    -0.476 OA
ATOM      3  O   UNL     1      29.456 -21.611 -14.766  0.00  0.00    -0.273 OA
ATOM      4  O   UNL     1      27.533 -24.624 -17.633  0.00  0.00    -0.252 OA
ATOM      5  N   UNL     1      29.436 -24.740 -16.281  0.00  0.00    -0.281 N 
ATOM      6  N   UNL     1      28.215 -22.881 -16.253  0.00  0.00    -0.238 N 
ATOM      7  C   UNL     1      30.133 -23.904 -15.315  0.00  0.00    +0.153 C 
ATOM      8  C   UNL     1      30.038 -24.544 -13.926  0.00  0.00    +0.079 C 
ATOM      9  C   UNL     1      31.565 -23.622 -15.703  0.00  0.00    +0.038 C 
ATOM     10  C   UNL     1      29.255 -22.647 -15.387  0.00  0.00    +0.249 C 
ATOM     11  C   UNL     1      31.053 -23.913 -12.986  0.00  0.00    +0.208 C 
ATOM     12  C   UNL     1      32.595 -23.738 -14.757  0.00  0.00    +0.137 C 
ATOM     13  C   UNL     1      28.298 -24.134 -16.815  0.00  0.00    +0.307 C 
ATOM     14  C   UNL     1      31.900 -23.229 -17.010  0.00  0.00    +0.030 C 
ATOM     15  C   UNL     1      33.927 -23.512 -15.122  0.00  0.00    +0.039 C 
ATOM     16  C   UNL     1      33.228 -22.989 -17.368  0.00  0.00    +0.140 C 
ATOM     17  C   UNL     1      34.241 -23.136 -16.425  0.00  0.00    +0.033 C 
ATOM     18  H   UNL     1      29.738 -25.642 -16.533  0.00  0.00    +0.152 HD
ATOM     19  H   UNL     1      27.499 -22.234 -16.448  0.00  0.00    +0.159 HD
ENDROOT
TORSDOF 0
ENDMDL
MODEL 3
REMARK VINA RESULT:      -8.0      6.707      8.734
REMARK  Name = 337359
REMARK  0 active torsions:
REMARK  status: ('A' for Active; 'I' for Inactive)
REMARK                            x       y       z     vdW  Elec       q    Type
REMARK                         _______ _______ _______ _____ _____    ______ ____
ROOT
ATOM      1  F   UNL     1      36.845 -21.559 -18.979  0.00  0.00    -0.204 F 
ATOM      2  O   UNL     1      32.474 -23.561 -16.315  0.00  0.00    -0.476 OA
ATOM      3  O   UNL     1      35.693 -25.906 -15.482  0.00  0.00    -0.273 OA
ATOM      4  O   UNL     1      37.807 -22.859 -12.790  0.00  0.00    -0.252 OA
ATOM      5  N   UNL     1      35.842 -22.741 -14.050  0.00  0.00    -0.281 N 
ATOM      6  N   UNL     1      36.996 -24.642 -14.043  0.00  0.00    -0.238 N 
ATOM      7  C   UNL     1      35.045 -23.612 -14.900  0.00  0.00    +0.153 C 
ATOM      8  C   UNL     1      33.695 -23.885 -14.227  0.00  0.00    +0.079 C 
ATOM      9  C   UNL     1      34.871 -23.073 -16.300  0.00  0.00    +0.038 C 
ATOM     10  C   UNL     1      35.923 -24.871 -14.869  0.00  0.00    +0.249 C 
ATOM     11  C   UNL     1      32.714 -24.463 -15.233  0.00  0.00    +0.208 C 
ATOM     12  C   UNL     1      33.610 -23.080 -16.915  0.00  0.00    +0.137 C 
ATOM     13  C   UNL     1      36.980 -23.363 -13.537  0.00  0.00    +0.307 C 
ATOM     14  C   UNL     1      35.963 -22.562 -17.023  0.00  0.00    +0.030 C 
ATOM     15  C   UNL     1      33.438 -22.548 -18.198  0.00  0.00    +0.039 C 
ATOM     16  C   UNL     1      35.792 -22.046 -18.309  0.00  0.00    +0.140 C 
ATOM     17  C   UNL     1      34.529 -22.035 -18.894  0.00  0.00    +0.033 C 
ATOM     18  H   UNL     1      35.602 -21.806 -13.857  0.00  0.00    +0.152 HD
ATOM     19  H   UNL     1      37.691 -25.309 -13.838  0.00  0.00    +0.159 HD
ENDROOT
TORSDOF 0
ENDMDL
MODEL 4
REMARK VINA RESULT:      -8.0      8.620     10.207
REMARK  Name = 337359
REMARK  0 active torsions:
REMARK  status: ('A' for Active; 'I' for Inactive)
REMARK                            x       y       z     vdW  Elec       q    Type
REMARK                         _______ _______ _______ _____ _____    ______ ____
ROOT
ATOM      1  F   UNL     1      31.574 -24.388 -13.500  0.00  0.00    -0.204 F 
ATOM      2  O   UNL     1      35.861 -22.984 -16.640  0.00  0.00    -0.476 OA
ATOM      3  O   UNL     1      36.862 -22.414 -12.738  0.00  0.00    -0.273 OA
ATOM      4  O   UNL     1      37.186 -26.862 -11.683  0.00  0.00    -0.252 OA
ATOM      5  N   UNL     1      36.553 -25.756 -13.643  0.00  0.00    -0.281 N 
ATOM      6  N   UNL     1      37.163 -24.545 -11.881  0.00  0.00    -0.238 N 
ATOM      7  C   UNL     1      36.442 -24.390 -14.130  0.00  0.00    +0.153 C 
ATOM      8  C   UNL     1      37.477 -24.156 -15.236  0.00  0.00    +0.079 C 
ATOM      9  C   UNL     1      35.046 -24.040 -14.589  0.00  0.00    +0.038 C 
ATOM     10  C   UNL     1      36.838 -23.632 -12.855  0.00  0.00    +0.249 C 
ATOM     11  C   UNL     1      37.141 -22.892 -16.011  0.00  0.00    +0.208 C 
ATOM     12  C   UNL     1      34.843 -23.366 -15.803  0.00  0.00    +0.137 C 
ATOM     13  C   UNL     1      36.996 -25.837 -12.323  0.00  0.00    +0.307 C 
ATOM     14  C   UNL     1      33.921 -24.369 -13.813  0.00  0.00    +0.030 C 
ATOM     15  C   UNL     1      33.550 -23.072 -16.249  0.00  0.00    +0.039 C 
ATOM     16  C   UNL     1      32.632 -24.060 -14.253  0.00  0.00    +0.140 C 
ATOM     17  C   UNL     1      32.448 -23.416 -15.472  0.00  0.00    +0.033 C 
ATOM     18  H   UNL     1      36.338 -26.545 -14.191  0.00  0.00    +0.152 HD
ATOM     19  H   UNL     1      37.476 -24.305 -10.979  0.00  0.00    +0.159 HD
ENDROOT
TORSDOF 0
ENDMDL
MODEL 5
REMARK VINA RESULT:      -7.9      7.918      9.678
REMARK  Name = 337359
REMARK  0 active torsions:
REMARK  status: ('A' for Active; 'I' for Inactive)
REMARK                            x       y       z     vdW  Elec       q    Type
REMARK                         _______ _______ _______ _____ _____    ______ ____
ROOT
ATOM      1  F   UNL     1      33.055 -22.866 -18.647  0.00  0.00    -0.204 F 
ATOM      2  O   UNL     1      32.917 -23.771 -13.228  0.00  0.00    -0.476 OA
ATOM      3  O   UNL     1      35.625 -26.303 -14.902  0.00  0.00    -0.273 OA
ATOM      4  O   UNL     1      38.775 -23.096 -15.793  0.00  0.00    -0.252 OA
ATOM      5  N   UNL     1      36.617 -22.971 -14.906  0.00  0.00    -0.281 N 
ATOM      6  N   UNL     1      37.438 -24.966 -15.444  0.00  0.00    -0.238 N 
ATOM      7  C   UNL     1      35.541 -23.878 -14.538  0.00  0.00    +0.153 C 
ATOM      8  C   UNL     1      35.347 -23.850 -13.018  0.00  0.00    +0.079 C 
ATOM      9  C   UNL     1      34.251 -23.593 -15.270  0.00  0.00    +0.038 C 
ATOM     10  C   UNL     1      36.171 -25.209 -14.972  0.00  0.00    +0.249 C 
ATOM     11  C   UNL     1      34.014 -24.478 -12.646  0.00  0.00    +0.208 C 
ATOM     12  C   UNL     1      33.031 -23.557 -14.578  0.00  0.00    +0.137 C 
ATOM     13  C   UNL     1      37.736 -23.623 -15.422  0.00  0.00    +0.307 C 
ATOM     14  C   UNL     1      34.238 -23.367 -16.658  0.00  0.00    +0.030 C 
ATOM     15  C   UNL     1      31.840 -23.257 -15.247  0.00  0.00    +0.039 C 
ATOM     16  C   UNL     1      33.045 -23.084 -17.326  0.00  0.00    +0.140 C 
ATOM     17  C   UNL     1      31.848 -23.024 -16.619  0.00  0.00    +0.033 C 
ATOM     18  H   UNL     1      36.560 -21.994 -14.801  0.00  0.00    +0.152 HD
ATOM     19  H   UNL     1      38.057 -25.665 -15.757  0.00  0.00    +0.159 HD
ENDROOT
TORSDOF 0
ENDMDL
MODEL 6
REMARK VINA RESULT:      -7.9      9.270     10.712
REMARK  Name = 337359
REMARK  0 active torsions:
REMARK  status: ('A' for Active; 'I' for Inactive)
REMARK                            x       y       z     vdW  Elec       q    Type
REMARK                         _______ _______ _______ _____ _____    ______ ____
ROOT
ATOM      1  F   UNL     1      31.970 -22.287 -14.307  0.00  0.00    -0.204 F 
ATOM      2  O   UNL     1      36.251 -25.415 -15.757  0.00  0.00    -0.476 OA
ATOM      3  O   UNL     1      37.504 -22.682 -13.016  0.00  0.00    -0.273 OA
ATOM      4  O   UNL     1      35.398 -24.613  -9.433  0.00  0.00    -0.252 OA
ATOM      5  N   UNL     1      35.413 -25.134 -11.712  0.00  0.00    -0.281 N 
ATOM      6  N   UNL     1      36.627 -23.412 -11.000  0.00  0.00    -0.238 N 
ATOM      7  C   UNL     1      36.044 -24.653 -12.930  0.00  0.00    +0.153 C 
ATOM      8  C   UNL     1      37.012 -25.717 -13.458  0.00  0.00    +0.079 C 
ATOM      9  C   UNL     1      35.049 -24.232 -13.985  0.00  0.00    +0.038 C 
ATOM     10  C   UNL     1      36.822 -23.458 -12.359  0.00  0.00    +0.249 C 
ATOM     11  C   UNL     1      37.393 -25.414 -14.898  0.00  0.00    +0.208 C 
ATOM     12  C   UNL     1      35.210 -24.635 -15.320  0.00  0.00    +0.137 C 
ATOM     13  C   UNL     1      35.776 -24.407 -10.578  0.00  0.00    +0.307 C 
ATOM     14  C   UNL     1      33.946 -23.423 -13.662  0.00  0.00    +0.030 C 
ATOM     15  C   UNL     1      34.271 -24.277 -16.292  0.00  0.00    +0.039 C 
ATOM     16  C   UNL     1      33.017 -23.054 -14.638  0.00  0.00    +0.140 C 
ATOM     17  C   UNL     1      33.178 -23.485 -15.951  0.00  0.00    +0.033 C 
ATOM     18  H   UNL     1      34.791 -25.896 -11.690  0.00  0.00    +0.152 HD
ATOM     19  H   UNL     1      37.044 -22.750 -10.402  0.00  0.00    +0.159 HD
ENDROOT
TORSDOF 0
ENDMDL
MODEL 7
REMARK VINA RESULT:      -7.7      9.454     11.198
REMARK  Name = 337359
REMARK  0 active torsions:
REMARK  status: ('A' for Active; 'I' for Inactive)
REMARK                            x       y       z     vdW  Elec       q    Type
REMARK                         _______ _______ _______ _____ _____    ______ ____
ROOT
ATOM      1  F   UNL     1      34.088 -23.910 -17.191  0.00  0.00    -0.204 F 
ATOM      2  O   UNL     1      34.704 -24.018 -11.730  0.00  0.00    -0.476 OA
ATOM      3  O   UNL     1      36.726 -27.165 -13.331  0.00  0.00    -0.273 OA
ATOM      4  O   UNL     1      40.106 -24.667 -15.159  0.00  0.00    -0.252 OA
ATOM      5  N   UNL     1      38.158 -24.071 -14.013  0.00  0.00    -0.281 N 
ATOM      6  N   UNL     1      38.595 -26.228 -14.329  0.00  0.00    -0.238 N 
ATOM      7  C   UNL     1      37.040 -24.732 -13.356  0.00  0.00    +0.153 C 
ATOM      8  C   UNL     1      37.101 -24.461 -11.849  0.00  0.00    +0.079 C 
ATOM      9  C   UNL     1      35.702 -24.345 -13.939  0.00  0.00    +0.038 C 
ATOM     10  C   UNL     1      37.400 -26.194 -13.653  0.00  0.00    +0.249 C 
ATOM     11  C   UNL     1      35.771 -24.807 -11.199  0.00  0.00    +0.208 C 
ATOM     12  C   UNL     1      34.627 -24.015 -13.100  0.00  0.00    +0.137 C 
ATOM     13  C   UNL     1      39.077 -24.962 -14.566  0.00  0.00    +0.307 C 
ATOM     14  C   UNL     1      35.495 -24.315 -15.329  0.00  0.00    +0.030 C 
ATOM     15  C   UNL     1      33.397 -23.622 -13.636  0.00  0.00    +0.039 C 
ATOM     16  C   UNL     1      34.261 -23.937 -15.863  0.00  0.00    +0.140 C 
ATOM     17  C   UNL     1      33.215 -23.586 -15.016  0.00  0.00    +0.033 C 
ATOM     18  H   UNL     1      38.256 -23.093 -14.061  0.00  0.00    +0.152 HD
ATOM     19  H   UNL     1      39.051 -27.055 -14.608  0.00  0.00    +0.159 HD
ENDROOT
TORSDOF 0
ENDMDL
MODEL 8
REMARK VINA RESULT:      -7.7      9.449     11.595
REMARK  Name = 337359
REMARK  0 active torsions:
REMARK  status: ('A' for Active; 'I' for Inactive)
REMARK                            x       y       z     vdW  Elec       q    Type
REMARK                         _______ _______ _______ _____ _____    ______ ____
ROOT
ATOM      1  F   UNL     1      32.045  -4.693 -26.385  0.00  0.00    -0.204 F 
ATOM      2  O   UNL     1      31.712  -5.792 -21.010  0.00  0.00    -0.476 OA
ATOM      3  O   UNL     1      31.151  -9.247 -23.082  0.00  0.00    -0.273 OA
ATOM      4  O   UNL     1      35.509  -9.701 -24.425  0.00  0.00    -0.252 OA
ATOM      5  N   UNL     1      34.404  -8.029 -23.222  0.00  0.00    -0.281 N 
ATOM      6  N   UNL     1      33.250  -9.810 -23.885  0.00  0.00    -0.238 N 
ATOM      7  C   UNL     1      33.071  -7.769 -22.700  0.00  0.00    +0.153 C 
ATOM      8  C   UNL     1      33.112  -7.785 -21.168  0.00  0.00    +0.079 C 
ATOM      9  C   UNL     1      32.469  -6.489 -23.229  0.00  0.00    +0.038 C 
ATOM     10  C   UNL     1      32.344  -9.013 -23.230  0.00  0.00    +0.249 C 
ATOM     11  C   UNL     1      31.849  -7.154 -20.603  0.00  0.00    +0.208 C 
ATOM     12  C   UNL     1      31.834  -5.588 -22.361  0.00  0.00    +0.137 C 
ATOM     13  C   UNL     1      34.502  -9.242 -23.904  0.00  0.00    +0.307 C 
ATOM     14  C   UNL     1      32.521  -6.172 -24.598  0.00  0.00    +0.030 C 
ATOM     15  C   UNL     1      31.307  -4.385 -22.842  0.00  0.00    +0.039 C 
ATOM     16  C   UNL     1      31.980  -4.978 -25.078  0.00  0.00    +0.140 C 
ATOM     17  C   UNL     1      31.378  -4.083 -24.199  0.00  0.00    +0.033 C 
ATOM     18  H   UNL     1      35.160  -7.410 -23.107  0.00  0.00    +0.152 HD
ATOM     19  H   UNL     1      33.031 -10.681 -24.291  0.00  0.00    +0.159 HD
ENDROOT
TORSDOF 0
ENDMDL
MODEL 9
REMARK VINA RESULT:      -7.5      8.810     10.815
REMARK  Name = 337359
REMARK  0 active torsions:
REMARK  status: ('A' for Active; 'I' for Inactive)
REMARK                            x       y       z     vdW  Elec       q    Type
REMARK                         _______ _______ _______ _____ _____    ______ ____
ROOT
ATOM      1  F   UNL     1      31.325 -12.375 -22.626  0.00  0.00    -0.204 F 
ATOM      2  O   UNL     1      32.143  -8.182 -19.168  0.00  0.00    -0.476 OA
ATOM      3  O   UNL     1      34.340  -7.543 -22.532  0.00  0.00    -0.273 OA
ATOM      4  O   UNL     1      30.774  -6.563 -25.239  0.00  0.00    -0.252 OA
ATOM      5  N   UNL     1      30.909  -7.240 -23.006  0.00  0.00    -0.281 N 
ATOM      6  N   UNL     1      32.793  -6.953 -24.153  0.00  0.00    -0.238 N 
ATOM      7  C   UNL     1      31.939  -7.543 -22.025  0.00  0.00    +0.153 C 
ATOM      8  C   UNL     1      31.908  -6.490 -20.911  0.00  0.00    +0.079 C 
ATOM      9  C   UNL     1      31.834  -8.944 -21.472  0.00  0.00    +0.038 C 
ATOM     10  C   UNL     1      33.187  -7.359 -22.901  0.00  0.00    +0.249 C 
ATOM     11  C   UNL     1      32.695  -6.978 -19.705  0.00  0.00    +0.208 C 
ATOM     12  C   UNL     1      31.941  -9.176 -20.092  0.00  0.00    +0.137 C 
ATOM     13  C   UNL     1      31.423  -6.877 -24.251  0.00  0.00    +0.307 C 
ATOM     14  C   UNL     1      31.636 -10.048 -22.319  0.00  0.00    +0.030 C 
ATOM     15  C   UNL     1      31.807 -10.467 -19.572  0.00  0.00    +0.039 C 
ATOM     16  C   UNL     1      31.519 -11.338 -21.800  0.00  0.00    +0.140 C 
ATOM     17  C   UNL     1      31.600 -11.547 -20.427  0.00  0.00    +0.033 C 
ATOM     18  H   UNL     1      29.945  -7.287 -22.811  0.00  0.00    +0.152 HD
ATOM     19  H   UNL     1      33.413  -6.743 -24.888  0.00  0.00    +0.159 HD
ENDROOT
TORSDOF 0
ENDMDL
