MODEL 1
REMARK VINA RESULT:      -6.9      0.000      0.000
REMARK  Name = 4949
REMARK  5 active torsions:
REMARK  status: ('A' for Active; 'I' for Inactive)
REMARK    1  A    between atoms: N_4  and  C_10
REMARK    2  A    between atoms: C_10  and  C_12
REMARK    3  A    between atoms: C_12  and  O_13
REMARK    4  A    between atoms: O_13  and  C_14
REMARK    5  A    between atoms: C_14  and  C_15
REMARK                            x       y       z     vdW  Elec       q    Type
REMARK                         _______ _______ _______ _____ _____    ______ ____
ROOT
ATOM      1  I   UNL     1      29.772 -23.783 -15.639  0.00  0.00    -0.038 I 
ATOM      2  I   UNL     1      35.205 -24.287 -12.816  0.00  0.00    -0.038 I 
ATOM      3  O   UNL     1      32.016 -24.408 -13.383  0.00  0.00    -0.286 OA
ATOM      4  N   UNL     1      33.888 -23.117 -16.757  0.00  0.00    -0.274 N 
ATOM      5  C   UNL     1      32.507 -23.229 -16.703  0.00  0.00    +0.075 C 
ATOM      6  C   UNL     1      34.607 -23.423 -15.611  0.00  0.00    +0.075 C 
ATOM      7  C   UNL     1      31.809 -23.642 -15.635  0.00  0.00    +0.084 C 
ATOM      8  C   UNL     1      34.073 -23.852 -14.458  0.00  0.00    +0.084 C 
ATOM      9  C   UNL     1      32.579 -24.007 -14.397  0.00  0.00    +0.209 C 
ENDROOT
BRANCH   4  10
ATOM     10  C   UNL     1      34.555 -22.616 -17.954  0.00  0.00    +0.206 C 
BRANCH  10  12
ATOM     11  O   UNL     1      33.907 -24.248 -19.630  0.00  0.00    -0.248 OA
ATOM     12  C   UNL     1      33.839 -23.112 -19.182  0.00  0.00    +0.338 C 
BRANCH  12  13
ATOM     13  O   UNL     1      33.106 -22.087 -19.708  0.00  0.00    -0.447 OA
BRANCH  13  14
ATOM     14  C   UNL     1      33.803 -20.846 -19.862  0.00  0.00    +0.208 C 
BRANCH  14  15
ATOM     15  C   UNL     1      32.996 -19.938 -20.778  0.00  0.00    +0.047 C 
ATOM     16  C   UNL     1      33.799 -18.733 -21.231  0.00  0.00    +0.004 C 
ENDBRANCH  14  15
ENDBRANCH  13  14
ENDBRANCH  12  13
ENDBRANCH  10  12
ENDBRANCH   4  10
TORSDOF 5
ENDMDL
MODEL 2
REMARK VINA RESULT:      -6.8      6.695     10.217
REMARK  Name = 4949
REMARK  5 active torsions:
REMARK  status: ('A' for Active; 'I' for Inactive)
REMARK    1  A    between atoms: N_4  and  C_10
REMARK    2  A    between atoms: C_10  and  C_12
REMARK    3  A    between atoms: C_12  and  O_13
REMARK    4  A    between atoms: O_13  and  C_14
REMARK    5  A    between atoms: C_14  and  C_15
REMARK                            x       y       z     vdW  Elec       q    Type
REMARK                         _______ _______ _______ _____ _____    ______ ____
ROOT
ATOM      1  I   UNL     1      33.002 -14.487 -20.756  0.00  0.00    -0.038 I 
ATOM      2  I   UNL     1      33.054 -13.813 -26.862  0.00  0.00    -0.038 I 
ATOM      3  O   UNL     1      32.630 -13.198 -23.708  0.00  0.00    -0.286 OA
ATOM      4  N   UNL     1      34.362 -16.859 -24.096  0.00  0.00    -0.274 N 
ATOM      5  C   UNL     1      34.030 -16.353 -22.849  0.00  0.00    +0.075 C 
ATOM      6  C   UNL     1      34.049 -16.093 -25.210  0.00  0.00    +0.075 C 
ATOM      7  C   UNL     1      33.455 -15.161 -22.629  0.00  0.00    +0.084 C 
ATOM      8  C   UNL     1      33.477 -14.880 -25.174  0.00  0.00    +0.084 C 
ATOM      9  C   UNL     1      33.140 -14.308 -23.826  0.00  0.00    +0.209 C 
ENDROOT
BRANCH   4  10
ATOM     10  C   UNL     1      34.946 -18.189 -24.237  0.00  0.00    +0.206 C 
BRANCH  10  12
ATOM     11  O   UNL     1      36.516 -18.331 -22.391  0.00  0.00    -0.248 OA
ATOM     12  C   UNL     1      35.457 -18.665 -22.903  0.00  0.00    +0.338 C 
BRANCH  12  13
ATOM     13  O   UNL     1      34.545 -19.527 -22.364  0.00  0.00    -0.447 OA
BRANCH  13  14
ATOM     14  C   UNL     1      34.354 -19.417 -20.950  0.00  0.00    +0.208 C 
BRANCH  14  15
ATOM     15  C   UNL     1      33.095 -20.179 -20.563  0.00  0.00    +0.047 C 
ATOM     16  C   UNL     1      33.399 -21.336 -19.630  0.00  0.00    +0.004 C 
ENDBRANCH  14  15
ENDBRANCH  13  14
ENDBRANCH  12  13
ENDBRANCH  10  12
ENDBRANCH   4  10
TORSDOF 5
ENDMDL
MODEL 3
REMARK VINA RESULT:      -6.8      4.145      6.956
REMARK  Name = 4949
REMARK  5 active torsions:
REMARK  status: ('A' for Active; 'I' for Inactive)
REMARK    1  A    between atoms: N_4  and  C_10
REMARK    2  A    between atoms: C_10  and  C_12
REMARK    3  A    between atoms: C_12  and  O_13
REMARK    4  A    between atoms: O_13  and  C_14
REMARK    5  A    between atoms: C_14  and  C_15
REMARK                            x       y       z     vdW  Elec       q    Type
REMARK                         _______ _______ _______ _____ _____    ______ ____
ROOT
ATOM      1  I   UNL     1      36.787 -22.039 -16.680  0.00  0.00    -0.038 I 
ATOM      2  I   UNL     1      31.809 -24.547 -14.100  0.00  0.00    -0.038 I 
ATOM      3  O   UNL     1      33.784 -23.194 -16.285  0.00  0.00    -0.286 OA
ATOM      4  N   UNL     1      35.856 -23.748 -12.828  0.00  0.00    -0.274 N 
ATOM      5  C   UNL     1      36.448 -23.148 -13.929  0.00  0.00    +0.075 C 
ATOM      6  C   UNL     1      34.522 -24.117 -12.931  0.00  0.00    +0.075 C 
ATOM      7  C   UNL     1      35.841 -22.924 -15.104  0.00  0.00    +0.084 C 
ATOM      8  C   UNL     1      33.766 -23.970 -14.029  0.00  0.00    +0.084 C 
ATOM      9  C   UNL     1      34.405 -23.349 -15.238  0.00  0.00    +0.209 C 
ENDROOT
BRANCH   4  10
ATOM     10  C   UNL     1      36.587 -23.910 -11.576  0.00  0.00    +0.206 C 
BRANCH  10  12
ATOM     11  O   UNL     1      38.936 -23.302 -11.672  0.00  0.00    -0.248 OA
ATOM     12  C   UNL     1      38.050 -24.124 -11.864  0.00  0.00    +0.338 C 
BRANCH  12  13
ATOM     13  O   UNL     1      38.220 -25.380 -12.370  0.00  0.00    -0.447 OA
BRANCH  13  14
ATOM     14  C   UNL     1      39.202 -25.500 -13.405  0.00  0.00    +0.208 C 
BRANCH  14  15
ATOM     15  C   UNL     1      38.543 -26.091 -14.642  0.00  0.00    +0.047 C 
ATOM     16  C   UNL     1      37.226 -26.769 -14.312  0.00  0.00    +0.004 C 
ENDBRANCH  14  15
ENDBRANCH  13  14
ENDBRANCH  12  13
ENDBRANCH  10  12
ENDBRANCH   4  10
TORSDOF 5
ENDMDL
MODEL 4
REMARK VINA RESULT:      -6.8      3.563      5.878
REMARK  Name = 4949
REMARK  5 active torsions:
REMARK  status: ('A' for Active; 'I' for Inactive)
REMARK    1  A    between atoms: N_4  and  C_10
REMARK    2  A    between atoms: C_10  and  C_12
REMARK    3  A    between atoms: C_12  and  O_13
REMARK    4  A    between atoms: O_13  and  C_14
REMARK    5  A    between atoms: C_14  and  C_15
REMARK                            x       y       z     vdW  Elec       q    Type
REMARK                         _______ _______ _______ _____ _____    ______ ____
ROOT
ATOM      1  I   UNL     1      34.039 -22.302 -18.959  0.00  0.00    -0.038 I 
ATOM      2  I   UNL     1      30.050 -23.737 -14.513  0.00  0.00    -0.038 I 
ATOM      3  O   UNL     1      31.262 -22.688 -17.330  0.00  0.00    -0.286 OA
ATOM      4  N   UNL     1      34.310 -24.156 -15.070  0.00  0.00    -0.274 N 
ATOM      5  C   UNL     1      34.547 -23.603 -16.319  0.00  0.00    +0.075 C 
ATOM      6  C   UNL     1      33.005 -24.157 -14.600  0.00  0.00    +0.075 C 
ATOM      7  C   UNL     1      33.606 -23.095 -17.128  0.00  0.00    +0.084 C 
ATOM      8  C   UNL     1      31.943 -23.693 -15.275  0.00  0.00    +0.084 C 
ATOM      9  C   UNL     1      32.183 -23.119 -16.643  0.00  0.00    +0.209 C 
ENDROOT
BRANCH   4  10
ATOM     10  C   UNL     1      35.408 -24.645 -14.243  0.00  0.00    +0.206 C 
BRANCH  10  12
ATOM     11  O   UNL     1      36.055 -26.514 -15.653  0.00  0.00    -0.248 OA
ATOM     12  C   UNL     1      36.348 -25.472 -15.081  0.00  0.00    +0.338 C 
BRANCH  12  13
ATOM     13  O   UNL     1      37.572 -24.868 -15.097  0.00  0.00    -0.447 OA
BRANCH  13  14
ATOM     14  C   UNL     1      38.141 -24.594 -13.812  0.00  0.00    +0.208 C 
BRANCH  14  15
ATOM     15  C   UNL     1      39.345 -25.500 -13.604  0.00  0.00    +0.047 C 
ATOM     16  C   UNL     1      40.267 -25.500 -14.809  0.00  0.00    +0.004 C 
ENDBRANCH  14  15
ENDBRANCH  13  14
ENDBRANCH  12  13
ENDBRANCH  10  12
ENDBRANCH   4  10
TORSDOF 5
ENDMDL
MODEL 5
REMARK VINA RESULT:      -6.7      6.791     10.176
REMARK  Name = 4949
REMARK  5 active torsions:
REMARK  status: ('A' for Active; 'I' for Inactive)
REMARK    1  A    between atoms: N_4  and  C_10
REMARK    2  A    between atoms: C_10  and  C_12
REMARK    3  A    between atoms: C_12  and  O_13
REMARK    4  A    between atoms: O_13  and  C_14
REMARK    5  A    between atoms: C_14  and  C_15
REMARK                            x       y       z     vdW  Elec       q    Type
REMARK                         _______ _______ _______ _____ _____    ______ ____
ROOT
ATOM      1  I   UNL     1      33.072 -13.589 -26.884  0.00  0.00    -0.038 I 
ATOM      2  I   UNL     1      33.001 -14.527 -20.814  0.00  0.00    -0.038 I 
ATOM      3  O   UNL     1      32.557 -13.148 -23.713  0.00  0.00    -0.286 OA
ATOM      4  N   UNL     1      34.272 -16.797 -24.259  0.00  0.00    -0.274 N 
ATOM      5  C   UNL     1      34.001 -15.966 -25.334  0.00  0.00    +0.075 C 
ATOM      6  C   UNL     1      33.975 -16.328 -22.987  0.00  0.00    +0.075 C 
ATOM      7  C   UNL     1      33.442 -14.750 -25.247  0.00  0.00    +0.084 C 
ATOM      8  C   UNL     1      33.412 -15.141 -22.716  0.00  0.00    +0.084 C 
ATOM      9  C   UNL     1      33.086 -14.243 -23.877  0.00  0.00    +0.209 C 
ENDROOT
BRANCH   4  10
ATOM     10  C   UNL     1      34.924 -18.088 -24.451  0.00  0.00    +0.206 C 
BRANCH  10  12
ATOM     11  O   UNL     1      36.495 -18.246 -22.607  0.00  0.00    -0.248 OA
ATOM     12  C   UNL     1      35.448 -18.596 -23.134  0.00  0.00    +0.338 C 
BRANCH  12  13
ATOM     13  O   UNL     1      34.563 -19.506 -22.629  0.00  0.00    -0.447 OA
BRANCH  13  14
ATOM     14  C   UNL     1      34.645 -19.727 -21.217  0.00  0.00    +0.208 C 
BRANCH  14  15
ATOM     15  C   UNL     1      33.239 -19.903 -20.664  0.00  0.00    +0.047 C 
ATOM     16  C   UNL     1      33.157 -21.060 -19.686  0.00  0.00    +0.004 C 
ENDBRANCH  14  15
ENDBRANCH  13  14
ENDBRANCH  12  13
ENDBRANCH  10  12
ENDBRANCH   4  10
TORSDOF 5
ENDMDL
MODEL 6
REMARK VINA RESULT:      -6.6      3.310      5.023
REMARK  Name = 4949
REMARK  5 active torsions:
REMARK  status: ('A' for Active; 'I' for Inactive)
REMARK    1  A    between atoms: N_4  and  C_10
REMARK    2  A    between atoms: C_10  and  C_12
REMARK    3  A    between atoms: C_12  and  O_13
REMARK    4  A    between atoms: O_13  and  C_14
REMARK    5  A    between atoms: C_14  and  C_15
REMARK                            x       y       z     vdW  Elec       q    Type
REMARK                         _______ _______ _______ _____ _____    ______ ____
ROOT
ATOM      1  I   UNL     1      33.816 -22.769 -18.635  0.00  0.00    -0.038 I 
ATOM      2  I   UNL     1      35.815 -24.393 -13.058  0.00  0.00    -0.038 I 
ATOM      3  O   UNL     1      35.795 -23.545 -16.187  0.00  0.00    -0.286 OA
ATOM      4  N   UNL     1      31.967 -23.511 -14.806  0.00  0.00    -0.274 N 
ATOM      5  C   UNL     1      32.253 -23.222 -16.132  0.00  0.00    +0.075 C 
ATOM      6  C   UNL     1      33.026 -23.851 -13.975  0.00  0.00    +0.075 C 
ATOM      7  C   UNL     1      33.481 -23.212 -16.671  0.00  0.00    +0.084 C 
ATOM      8  C   UNL     1      34.314 -23.889 -14.346  0.00  0.00    +0.084 C 
ATOM      9  C   UNL     1      34.639 -23.547 -15.773  0.00  0.00    +0.209 C 
ENDROOT
BRANCH   4  10
ATOM     10  C   UNL     1      30.591 -23.538 -14.322  0.00  0.00    +0.206 C 
BRANCH  10  12
ATOM     11  O   UNL     1      30.327 -25.871 -14.939  0.00  0.00    -0.248 OA
ATOM     12  C   UNL     1      29.875 -24.735 -14.888  0.00  0.00    +0.338 C 
BRANCH  12  13
ATOM     13  O   UNL     1      28.644 -24.344 -15.330  0.00  0.00    -0.447 OA
BRANCH  13  14
ATOM     14  C   UNL     1      28.520 -24.187 -16.748  0.00  0.00    +0.208 C 
BRANCH  14  15
ATOM     15  C   UNL     1      27.914 -22.823 -17.041  0.00  0.00    +0.047 C 
ATOM     16  C   UNL     1      27.195 -22.252 -15.833  0.00  0.00    +0.004 C 
ENDBRANCH  14  15
ENDBRANCH  13  14
ENDBRANCH  12  13
ENDBRANCH  10  12
ENDBRANCH   4  10
TORSDOF 5
ENDMDL
MODEL 7
REMARK VINA RESULT:      -6.6      3.221      5.468
REMARK  Name = 4949
REMARK  5 active torsions:
REMARK  status: ('A' for Active; 'I' for Inactive)
REMARK    1  A    between atoms: N_4  and  C_10
REMARK    2  A    between atoms: C_10  and  C_12
REMARK    3  A    between atoms: C_12  and  O_13
REMARK    4  A    between atoms: O_13  and  C_14
REMARK    5  A    between atoms: C_14  and  C_15
REMARK                            x       y       z     vdW  Elec       q    Type
REMARK                         _______ _______ _______ _____ _____    ______ ____
ROOT
ATOM      1  I   UNL     1      35.861 -23.969 -13.171  0.00  0.00    -0.038 I 
ATOM      2  I   UNL     1      33.736 -22.619 -18.774  0.00  0.00    -0.038 I 
ATOM      3  O   UNL     1      35.768 -23.296 -16.341  0.00  0.00    -0.286 OA
ATOM      4  N   UNL     1      31.954 -23.467 -14.934  0.00  0.00    -0.274 N 
ATOM      5  C   UNL     1      33.037 -23.680 -14.095  0.00  0.00    +0.075 C 
ATOM      6  C   UNL     1      32.215 -23.157 -16.261  0.00  0.00    +0.075 C 
ATOM      7  C   UNL     1      34.324 -23.640 -14.472  0.00  0.00    +0.084 C 
ATOM      8  C   UNL     1      33.437 -23.077 -16.807  0.00  0.00    +0.084 C 
ATOM      9  C   UNL     1      34.618 -23.335 -15.914  0.00  0.00    +0.209 C 
ENDROOT
BRANCH   4  10
ATOM     10  C   UNL     1      30.588 -23.489 -14.421  0.00  0.00    +0.206 C 
BRANCH  10  12
ATOM     11  O   UNL     1      30.351 -25.862 -14.878  0.00  0.00    -0.248 OA
ATOM     12  C   UNL     1      29.884 -24.732 -14.899  0.00  0.00    +0.338 C 
BRANCH  12  13
ATOM     13  O   UNL     1      28.645 -24.387 -15.357  0.00  0.00    -0.447 OA
BRANCH  13  14
ATOM     14  C   UNL     1      28.542 -24.190 -16.771  0.00  0.00    +0.208 C 
BRANCH  14  15
ATOM     15  C   UNL     1      27.943 -22.817 -17.035  0.00  0.00    +0.047 C 
ATOM     16  C   UNL     1      27.227 -22.269 -15.815  0.00  0.00    +0.004 C 
ENDBRANCH  14  15
ENDBRANCH  13  14
ENDBRANCH  12  13
ENDBRANCH  10  12
ENDBRANCH   4  10
TORSDOF 5
ENDMDL
MODEL 8
REMARK VINA RESULT:      -6.6      9.032     10.873
REMARK  Name = 4949
REMARK  5 active torsions:
REMARK  status: ('A' for Active; 'I' for Inactive)
REMARK    1  A    between atoms: N_4  and  C_10
REMARK    2  A    between atoms: C_10  and  C_12
REMARK    3  A    between atoms: C_12  and  O_13
REMARK    4  A    between atoms: O_13  and  C_14
REMARK    5  A    between atoms: C_14  and  C_15
REMARK                            x       y       z     vdW  Elec       q    Type
REMARK                         _______ _______ _______ _____ _____    ______ ____
ROOT
ATOM      1  I   UNL     1      33.034 -14.261 -26.505  0.00  0.00    -0.038 I 
ATOM      2  I   UNL     1      35.224 -19.130 -23.466  0.00  0.00    -0.038 I 
ATOM      3  O   UNL     1      34.160 -17.235 -25.870  0.00  0.00    -0.286 OA
ATOM      4  N   UNL     1      34.209 -15.063 -22.430  0.00  0.00    -0.274 N 
ATOM      5  C   UNL     1      33.760 -14.510 -23.619  0.00  0.00    +0.075 C 
ATOM      6  C   UNL     1      34.606 -16.393 -22.443  0.00  0.00    +0.075 C 
ATOM      7  C   UNL     1      33.707 -15.152 -24.796  0.00  0.00    +0.084 C 
ATOM      8  C   UNL     1      34.620 -17.181 -23.529  0.00  0.00    +0.084 C 
ATOM      9  C   UNL     1      34.163 -16.583 -24.830  0.00  0.00    +0.209 C 
ENDROOT
BRANCH   4  10
ATOM     10  C   UNL     1      34.189 -14.297 -21.189  0.00  0.00    +0.206 C 
BRANCH  10  12
ATOM     11  O   UNL     1      32.215 -15.424 -20.335  0.00  0.00    -0.248 OA
ATOM     12  C   UNL     1      32.826 -14.387 -20.556  0.00  0.00    +0.338 C 
BRANCH  12  13
ATOM     13  O   UNL     1      32.388 -13.125 -20.271  0.00  0.00    -0.447 OA
BRANCH  13  14
ATOM     14  C   UNL     1      31.779 -12.423 -21.361  0.00  0.00    +0.208 C 
BRANCH  14  15
ATOM     15  C   UNL     1      30.930 -11.291 -20.803  0.00  0.00    +0.047 C 
ATOM     16  C   UNL     1      31.352 -10.907 -19.398  0.00  0.00    +0.004 C 
ENDBRANCH  14  15
ENDBRANCH  13  14
ENDBRANCH  12  13
ENDBRANCH  10  12
ENDBRANCH   4  10
TORSDOF 5
ENDMDL
MODEL 9
REMARK VINA RESULT:      -6.4      8.013     11.209
REMARK  Name = 4949
REMARK  5 active torsions:
REMARK  status: ('A' for Active; 'I' for Inactive)
REMARK    1  A    between atoms: N_4  and  C_10
REMARK    2  A    between atoms: C_10  and  C_12
REMARK    3  A    between atoms: C_12  and  O_13
REMARK    4  A    between atoms: O_13  and  C_14
REMARK    5  A    between atoms: C_14  and  C_15
REMARK                            x       y       z     vdW  Elec       q    Type
REMARK                         _______ _______ _______ _____ _____    ______ ____
ROOT
ATOM      1  I   UNL     1      31.177 -10.842 -19.935  0.00  0.00    -0.038 I 
ATOM      2  I   UNL     1      33.844 -11.880 -25.371  0.00  0.00    -0.038 I 
ATOM      3  O   UNL     1      32.433 -10.353 -22.884  0.00  0.00    -0.286 OA
ATOM      4  N   UNL     1      32.902 -14.274 -21.904  0.00  0.00    -0.274 N 
ATOM      5  C   UNL     1      32.287 -13.387 -21.034  0.00  0.00    +0.075 C 
ATOM      6  C   UNL     1      33.318 -13.789 -23.136  0.00  0.00    +0.075 C 
ATOM      7  C   UNL     1      32.089 -12.082 -21.275  0.00  0.00    +0.084 C 
ATOM      8  C   UNL     1      33.201 -12.515 -23.541  0.00  0.00    +0.084 C 
ATOM      9  C   UNL     1      32.563 -11.538 -22.594  0.00  0.00    +0.209 C 
ENDROOT
BRANCH   4  10
ATOM     10  C   UNL     1      33.034 -15.688 -21.568  0.00  0.00    +0.206 C 
BRANCH  10  12
ATOM     11  O   UNL     1      34.955 -15.411 -20.109  0.00  0.00    -0.248 OA
ATOM     12  C   UNL     1      34.425 -15.964 -21.064  0.00  0.00    +0.338 C 
BRANCH  12  13
ATOM     13  O   UNL     1      34.993 -16.930 -21.845  0.00  0.00    -0.447 OA
BRANCH  13  14
ATOM     14  C   UNL     1      35.234 -18.184 -21.198  0.00  0.00    +0.208 C 
BRANCH  14  15
ATOM     15  C   UNL     1      34.321 -19.236 -21.808  0.00  0.00    +0.047 C 
ATOM     16  C   UNL     1      33.462 -19.916 -20.759  0.00  0.00    +0.004 C 
ENDBRANCH  14  15
ENDBRANCH  13  14
ENDBRANCH  12  13
ENDBRANCH  10  12
ENDBRANCH   4  10
TORSDOF 5
ENDMDL
