MODEL 1
REMARK VINA RESULT:      -8.0      0.000      0.000
REMARK  Name = 159269
REMARK  4 active torsions:
REMARK  status: ('A' for Active; 'I' for Inactive)
REMARK    1  A    between atoms: N1_3  and  C1*_13
REMARK    2  A    between atoms: C3*_12  and  O3*_16
REMARK    3  A    between atoms: C4*_15  and  C5*_18
REMARK    4  A    between atoms: C5*_18  and  O5*_19
REMARK                            x       y       z     vdW  Elec       q    Type
REMARK                         _______ _______ _______ _____ _____    ______ ____
ROOT
ATOM      1  O2  T   A   1      34.899 -15.502 -20.057  0.00  0.00    -0.252 OA
ATOM      2  O4  T   A   1      35.519 -19.833 -21.473  0.00  0.00    -0.270 OA
ATOM      3  N1  T   A   1      34.556 -15.976 -22.318  0.00  0.00    -0.219 N 
ATOM      4  N3  T   A   1      35.206 -17.658 -20.777  0.00  0.00    -0.236 N 
ATOM      5  C6  T   A   1      34.565 -16.948 -23.309  0.00  0.00    +0.071 C 
ATOM      6  C2  T   A   1      34.886 -16.312 -20.987  0.00  0.00    +0.315 C 
ATOM      7  C5  T   A   1      34.871 -18.236 -23.106  0.00  0.00    +0.047 C 
ATOM      8  C4  T   A   1      35.229 -18.667 -21.728  0.00  0.00    +0.250 C 
ATOM      9  C5M T   A   1      34.874 -19.267 -24.187  0.00  0.00    +0.037 C 
ATOM     10  H3  T   A   1      35.439 -17.916 -19.857  0.00  0.00    +0.159 HD
ENDROOT
BRANCH   3  13
ATOM     11  O4* T   A   1      34.557 -14.404 -24.052  0.00  0.00    -0.335 OA
ATOM     12  C3* T   A   1      32.496 -13.311 -23.616  0.00  0.00    +0.144 C 
ATOM     13  C1* T   A   1      34.208 -14.633 -22.680  0.00  0.00    +0.202 C 
ATOM     14  C2* T   A   1      32.721 -14.348 -22.541  0.00  0.00    +0.083 C 
ATOM     15  C4* T   A   1      33.459 -13.744 -24.713  0.00  0.00    +0.173 C 
BRANCH  12  16
ATOM     16  O3* T   A   1      32.892 -12.040 -23.107  0.00  0.00    -0.382 OA
ATOM     17  H3* T   A   1      32.296 -11.354 -23.449  0.00  0.00    +0.210 HD
ENDBRANCH  12  16
BRANCH  15  18
ATOM     18  C5* T   A   1      32.838 -14.734 -25.689  0.00  0.00    +0.169 C 
BRANCH  18  19
ATOM     19  O5* T   A   1      33.876 -15.436 -26.354  0.00  0.00    -0.379 OA
ATOM     20  H5* T   A   1      33.542 -16.291 -26.664  0.00  0.00    +0.211 HD
ENDBRANCH  18  19
ENDBRANCH  15  18
ENDBRANCH   3  13
TORSDOF 4
ENDMDL
MODEL 2
REMARK VINA RESULT:      -7.8      9.258     11.546
REMARK  Name = 159269
REMARK  4 active torsions:
REMARK  status: ('A' for Active; 'I' for Inactive)
REMARK    1  A    between atoms: N1_3  and  C1*_13
REMARK    2  A    between atoms: C3*_12  and  O3*_16
REMARK    3  A    between atoms: C4*_15  and  C5*_18
REMARK    4  A    between atoms: C5*_18  and  O5*_19
REMARK                            x       y       z     vdW  Elec       q    Type
REMARK                         _______ _______ _______ _____ _____    ______ ____
ROOT
ATOM      1  O2  T   A   1      33.324 -24.143 -13.140  0.00  0.00    -0.252 OA
ATOM      2  O4  T   A   1      35.846 -22.799 -16.743  0.00  0.00    -0.270 OA
ATOM      3  N1  T   A   1      32.233 -23.802 -15.176  0.00  0.00    -0.219 N 
ATOM      4  N3  T   A   1      34.570 -23.472 -14.945  0.00  0.00    -0.236 N 
ATOM      5  C6  T   A   1      32.362 -23.437 -16.510  0.00  0.00    +0.071 C 
ATOM      6  C2  T   A   1      33.364 -23.830 -14.332  0.00  0.00    +0.315 C 
ATOM      7  C5  T   A   1      33.517 -23.095 -17.094  0.00  0.00    +0.047 C 
ATOM      8  C4  T   A   1      34.754 -23.102 -16.269  0.00  0.00    +0.250 C 
ATOM      9  C5M T   A   1      33.634 -22.706 -18.532  0.00  0.00    +0.037 C 
ATOM     10  H3  T   A   1      35.372 -23.484 -14.376  0.00  0.00    +0.159 HD
ENDROOT
BRANCH   3  13
ATOM     11  O4* T   A   1      30.053 -23.021 -14.834  0.00  0.00    -0.335 OA
ATOM     12  C3* T   A   1      28.828 -24.992 -15.329  0.00  0.00    +0.144 C 
ATOM     13  C1* T   A   1      30.930 -24.145 -14.684  0.00  0.00    +0.202 C 
ATOM     14  C2* T   A   1      30.301 -25.309 -15.432  0.00  0.00    +0.083 C 
ATOM     15  C4* T   A   1      28.802 -23.471 -15.392  0.00  0.00    +0.173 C 
BRANCH  12  16
ATOM     16  O3* T   A   1      28.360 -25.425 -14.054  0.00  0.00    -0.382 OA
ATOM     17  H3* T   A   1      28.648 -26.338 -13.896  0.00  0.00    +0.210 HD
ENDBRANCH  12  16
BRANCH  15  18
ATOM     18  C5* T   A   1      28.707 -22.938 -16.815  0.00  0.00    +0.169 C 
BRANCH  18  19
ATOM     19  O5* T   A   1      27.799 -23.745 -17.548  0.00  0.00    -0.379 OA
ATOM     20  H5* T   A   1      27.149 -23.179 -17.993  0.00  0.00    +0.211 HD
ENDBRANCH  18  19
ENDBRANCH  15  18
ENDBRANCH   3  13
TORSDOF 4
ENDMDL
MODEL 3
REMARK VINA RESULT:      -7.7      9.363     12.108
REMARK  Name = 159269
REMARK  4 active torsions:
REMARK  status: ('A' for Active; 'I' for Inactive)
REMARK    1  A    between atoms: N1_3  and  C1*_13
REMARK    2  A    between atoms: C3*_12  and  O3*_16
REMARK    3  A    between atoms: C4*_15  and  C5*_18
REMARK    4  A    between atoms: C5*_18  and  O5*_19
REMARK                            x       y       z     vdW  Elec       q    Type
REMARK                         _______ _______ _______ _____ _____    ______ ____
ROOT
ATOM      1  O2  T   A   1      34.374 -23.052 -18.351  0.00  0.00    -0.252 OA
ATOM      2  O4  T   A   1      30.021 -22.624 -16.933  0.00  0.00    -0.270 OA
ATOM      3  N1  T   A   1      33.919 -23.399 -16.087  0.00  0.00    -0.219 N 
ATOM      4  N3  T   A   1      32.207 -22.841 -17.630  0.00  0.00    -0.236 N 
ATOM      5  C6  T   A   1      32.949 -23.427 -15.094  0.00  0.00    +0.071 C 
ATOM      6  C2  T   A   1      33.567 -23.096 -17.420  0.00  0.00    +0.315 C 
ATOM      7  C5  T   A   1      31.649 -23.184 -15.298  0.00  0.00    +0.047 C 
ATOM      8  C4  T   A   1      31.199 -22.858 -16.678  0.00  0.00    +0.250 C 
ATOM      9  C5M T   A   1      30.620 -23.220 -14.214  0.00  0.00    +0.037 C 
ATOM     10  H3  T   A   1      31.937 -22.628 -18.552  0.00  0.00    +0.159 HD
ENDROOT
BRANCH   3  13
ATOM     11  O4* T   A   1      35.637 -22.900 -14.577  0.00  0.00    -0.335 OA
ATOM     12  C3* T   A   1      36.624 -25.046 -14.353  0.00  0.00    +0.144 C 
ATOM     13  C1* T   A   1      35.278 -23.682 -15.725  0.00  0.00    +0.202 C 
ATOM     14  C2* T   A   1      35.505 -25.140 -15.362  0.00  0.00    +0.083 C 
ATOM     15  C4* T   A   1      36.319 -23.742 -13.627  0.00  0.00    +0.173 C 
BRANCH  12  16
ATOM     16  O3* T   A   1      37.858 -24.923 -15.057  0.00  0.00    -0.382 OA
ATOM     17  H3* T   A   1      37.955 -25.666 -15.673  0.00  0.00    +0.210 HD
ENDBRANCH  12  16
BRANCH  15  18
ATOM     18  C5* T   A   1      35.400 -23.933 -12.428  0.00  0.00    +0.169 C 
BRANCH  18  19
ATOM     19  O5* T   A   1      35.611 -25.228 -11.890  0.00  0.00    -0.379 OA
ATOM     20  H5* T   A   1      34.866 -25.465 -11.315  0.00  0.00    +0.211 HD
ENDBRANCH  18  19
ENDBRANCH  15  18
ENDBRANCH   3  13
TORSDOF 4
ENDMDL
MODEL 4
REMARK VINA RESULT:      -7.7      7.161     10.784
REMARK  Name = 159269
REMARK  4 active torsions:
REMARK  status: ('A' for Active; 'I' for Inactive)
REMARK    1  A    between atoms: N1_3  and  C1*_13
REMARK    2  A    between atoms: C3*_12  and  O3*_16
REMARK    3  A    between atoms: C4*_15  and  C5*_18
REMARK    4  A    between atoms: C5*_18  and  O5*_19
REMARK                            x       y       z     vdW  Elec       q    Type
REMARK                         _______ _______ _______ _____ _____    ______ ____
ROOT
ATOM      1  O2  T   A   1      31.718 -23.373 -16.512  0.00  0.00    -0.252 OA
ATOM      2  O4  T   A   1      33.045 -21.072 -20.265  0.00  0.00    -0.270 OA
ATOM      3  N1  T   A   1      34.007 -23.179 -16.927  0.00  0.00    -0.219 N 
ATOM      4  N3  T   A   1      32.393 -22.228 -18.381  0.00  0.00    -0.236 N 
ATOM      5  C6  T   A   1      34.991 -22.683 -17.771  0.00  0.00    +0.071 C 
ATOM      6  C2  T   A   1      32.642 -22.961 -17.215  0.00  0.00    +0.315 C 
ATOM      7  C5  T   A   1      34.749 -21.981 -18.885  0.00  0.00    +0.047 C 
ATOM      8  C4  T   A   1      33.335 -21.709 -19.256  0.00  0.00    +0.250 C 
ATOM      9  C5M T   A   1      35.824 -21.455 -19.781  0.00  0.00    +0.037 C 
ATOM     10  H3  T   A   1      31.449 -22.064 -18.602  0.00  0.00    +0.159 HD
ENDROOT
BRANCH   3  13
ATOM     11  O4* T   A   1      35.712 -24.478 -15.985  0.00  0.00    -0.335 OA
ATOM     12  C3* T   A   1      35.594 -23.741 -13.733  0.00  0.00    +0.144 C 
ATOM     13  C1* T   A   1      34.412 -23.915 -15.764  0.00  0.00    +0.202 C 
ATOM     14  C2* T   A   1      34.503 -23.051 -14.517  0.00  0.00    +0.083 C 
ATOM     15  C4* T   A   1      36.532 -24.242 -14.823  0.00  0.00    +0.173 C 
BRANCH  12  16
ATOM     16  O3* T   A   1      35.024 -24.852 -13.046  0.00  0.00    -0.382 OA
ATOM     17  H3* T   A   1      34.878 -25.580 -13.671  0.00  0.00    +0.210 HD
ENDBRANCH  12  16
BRANCH  15  18
ATOM     18  C5* T   A   1      37.597 -23.222 -15.202  0.00  0.00    +0.169 C 
BRANCH  18  19
ATOM     19  O5* T   A   1      38.762 -23.911 -15.625  0.00  0.00    -0.379 OA
ATOM     20  H5* T   A   1      38.612 -24.292 -16.504  0.00  0.00    +0.211 HD
ENDBRANCH  18  19
ENDBRANCH  15  18
ENDBRANCH   3  13
TORSDOF 4
ENDMDL
MODEL 5
REMARK VINA RESULT:      -7.5      2.366      3.700
REMARK  Name = 159269
REMARK  4 active torsions:
REMARK  status: ('A' for Active; 'I' for Inactive)
REMARK    1  A    between atoms: N1_3  and  C1*_13
REMARK    2  A    between atoms: C3*_12  and  O3*_16
REMARK    3  A    between atoms: C4*_15  and  C5*_18
REMARK    4  A    between atoms: C5*_18  and  O5*_19
REMARK                            x       y       z     vdW  Elec       q    Type
REMARK                         _______ _______ _______ _____ _____    ______ ____
ROOT
ATOM      1  O2  T   A   1      37.872 -19.125 -21.038  0.00  0.00    -0.252 OA
ATOM      2  O4  T   A   1      35.297 -22.421 -19.127  0.00  0.00    -0.270 OA
ATOM      3  N1  T   A   1      35.551 -18.885 -21.113  0.00  0.00    -0.219 N 
ATOM      4  N3  T   A   1      36.576 -20.762 -20.089  0.00  0.00    -0.236 N 
ATOM      5  C6  T   A   1      34.320 -19.433 -20.776  0.00  0.00    +0.071 C 
ATOM      6  C2  T   A   1      36.747 -19.552 -20.770  0.00  0.00    +0.315 C 
ATOM      7  C5  T   A   1      34.160 -20.591 -20.124  0.00  0.00    +0.047 C 
ATOM      8  C4  T   A   1      35.374 -21.353 -19.728  0.00  0.00    +0.250 C 
ATOM      9  C5M T   A   1      32.825 -21.163 -19.770  0.00  0.00    +0.037 C 
ATOM     10  H3  T   A   1      37.396 -21.246 -19.840  0.00  0.00    +0.159 HD
ENDROOT
BRANCH   3  13
ATOM     11  O4* T   A   1      36.002 -17.852 -23.165  0.00  0.00    -0.335 OA
ATOM     12  C3* T   A   1      34.289 -16.210 -23.184  0.00  0.00    +0.144 C 
ATOM     13  C1* T   A   1      35.574 -17.633 -21.814  0.00  0.00    +0.202 C 
ATOM     14  C2* T   A   1      34.210 -16.964 -21.878  0.00  0.00    +0.083 C 
ATOM     15  C4* T   A   1      35.131 -17.130 -24.058  0.00  0.00    +0.173 C 
BRANCH  12  16
ATOM     16  O3* T   A   1      34.991 -14.990 -22.960  0.00  0.00    -0.382 OA
ATOM     17  H3* T   A   1      34.447 -14.399 -22.416  0.00  0.00    +0.210 HD
ENDBRANCH  12  16
BRANCH  15  18
ATOM     18  C5* T   A   1      34.296 -18.150 -24.821  0.00  0.00    +0.169 C 
BRANCH  18  19
ATOM     19  O5* T   A   1      33.600 -17.486 -25.863  0.00  0.00    -0.379 OA
ATOM     20  H5* T   A   1      34.227 -16.975 -26.397  0.00  0.00    +0.211 HD
ENDBRANCH  18  19
ENDBRANCH  15  18
ENDBRANCH   3  13
TORSDOF 4
ENDMDL
MODEL 6
REMARK VINA RESULT:      -7.4      9.082     12.750
REMARK  Name = 159269
REMARK  4 active torsions:
REMARK  status: ('A' for Active; 'I' for Inactive)
REMARK    1  A    between atoms: N1_3  and  C1*_13
REMARK    2  A    between atoms: C3*_12  and  O3*_16
REMARK    3  A    between atoms: C4*_15  and  C5*_18
REMARK    4  A    between atoms: C5*_18  and  O5*_19
REMARK                            x       y       z     vdW  Elec       q    Type
REMARK                         _______ _______ _______ _____ _____    ______ ____
ROOT
ATOM      1  O2  T   A   1      33.352 -24.660 -14.315  0.00  0.00    -0.252 OA
ATOM      2  O4  T   A   1      34.137 -22.444 -18.268  0.00  0.00    -0.270 OA
ATOM      3  N1  T   A   1      35.465 -23.725 -14.647  0.00  0.00    -0.219 N 
ATOM      4  N3  T   A   1      33.757 -23.553 -16.282  0.00  0.00    -0.236 N 
ATOM      5  C6  T   A   1      36.291 -23.007 -15.502  0.00  0.00    +0.071 C 
ATOM      6  C2  T   A   1      34.139 -24.027 -15.023  0.00  0.00    +0.315 C 
ATOM      7  C5  T   A   1      35.923 -22.554 -16.707  0.00  0.00    +0.047 C 
ATOM      8  C4  T   A   1      34.538 -22.832 -17.174  0.00  0.00    +0.250 C 
ATOM      9  C5M T   A   1      36.827 -21.782 -17.613  0.00  0.00    +0.037 C 
ATOM     10  H3  T   A   1      32.836 -23.752 -16.566  0.00  0.00    +0.159 HD
ENDROOT
BRANCH   3  13
ATOM     11  O4* T   A   1      36.521 -25.476 -13.507  0.00  0.00    -0.335 OA
ATOM     12  C3* T   A   1      37.962 -24.235 -12.089  0.00  0.00    +0.144 C 
ATOM     13  C1* T   A   1      35.994 -24.149 -13.382  0.00  0.00    +0.202 C 
ATOM     14  C2* T   A   1      37.124 -23.262 -12.884  0.00  0.00    +0.083 C 
ATOM     15  C4* T   A   1      37.814 -25.531 -12.873  0.00  0.00    +0.173 C 
BRANCH  12  16
ATOM     16  O3* T   A   1      37.375 -24.386 -10.799  0.00  0.00    -0.382 OA
ATOM     17  H3* T   A   1      36.414 -24.265 -10.863  0.00  0.00    +0.210 HD
ENDBRANCH  12  16
BRANCH  15  18
ATOM     18  C5* T   A   1      38.864 -25.687 -13.964  0.00  0.00    +0.169 C 
BRANCH  18  19
ATOM     19  O5* T   A   1      38.642 -26.912 -14.643  0.00  0.00    -0.379 OA
ATOM     20  H5* T   A   1      38.384 -27.595 -14.004  0.00  0.00    +0.211 HD
ENDBRANCH  18  19
ENDBRANCH  15  18
ENDBRANCH   3  13
TORSDOF 4
ENDMDL
MODEL 7
REMARK VINA RESULT:      -7.3      8.123     11.856
REMARK  Name = 159269
REMARK  4 active torsions:
REMARK  status: ('A' for Active; 'I' for Inactive)
REMARK    1  A    between atoms: N1_3  and  C1*_13
REMARK    2  A    between atoms: C3*_12  and  O3*_16
REMARK    3  A    between atoms: C4*_15  and  C5*_18
REMARK    4  A    between atoms: C5*_18  and  O5*_19
REMARK                            x       y       z     vdW  Elec       q    Type
REMARK                         _______ _______ _______ _____ _____    ______ ____
ROOT
ATOM      1  O2  T   A   1      37.856 -22.866 -15.331  0.00  0.00    -0.252 OA
ATOM      2  O4  T   A   1      36.241 -21.157 -19.283  0.00  0.00    -0.270 OA
ATOM      3  N1  T   A   1      35.624 -23.282 -15.874  0.00  0.00    -0.219 N 
ATOM      4  N3  T   A   1      37.038 -22.019 -17.299  0.00  0.00    -0.236 N 
ATOM      5  C6  T   A   1      34.603 -23.090 -16.796  0.00  0.00    +0.071 C 
ATOM      6  C2  T   A   1      36.905 -22.736 -16.105  0.00  0.00    +0.315 C 
ATOM      7  C5  T   A   1      34.733 -22.404 -17.938  0.00  0.00    +0.047 C 
ATOM      8  C4  T   A   1      36.055 -21.799 -18.253  0.00  0.00    +0.250 C 
ATOM      9  C5M T   A   1      33.621 -22.209 -18.918  0.00  0.00    +0.037 C 
ATOM     10  H3  T   A   1      37.922 -21.629 -17.481  0.00  0.00    +0.159 HD
ENDROOT
BRANCH   3  13
ATOM     11  O4* T   A   1      35.868 -25.368 -14.840  0.00  0.00    -0.335 OA
ATOM     12  C3* T   A   1      36.220 -24.676 -12.598  0.00  0.00    +0.144 C 
ATOM     13  C1* T   A   1      35.342 -24.042 -14.691  0.00  0.00    +0.202 C 
ATOM     14  C2* T   A   1      35.971 -23.448 -13.441  0.00  0.00    +0.083 C 
ATOM     15  C4* T   A   1      36.567 -25.735 -13.635  0.00  0.00    +0.173 C 
BRANCH  12  16
ATOM     16  O3* T   A   1      35.004 -25.029 -11.943  0.00  0.00    -0.382 OA
ATOM     17  H3* T   A   1      34.336 -25.266 -12.605  0.00  0.00    +0.210 HD
ENDBRANCH  12  16
BRANCH  15  18
ATOM     18  C5* T   A   1      38.055 -25.786 -13.955  0.00  0.00    +0.169 C 
BRANCH  18  19
ATOM     19  O5* T   A   1      38.218 -25.970 -15.352  0.00  0.00    -0.379 OA
ATOM     20  H5* T   A   1      38.214 -25.107 -15.795  0.00  0.00    +0.211 HD
ENDBRANCH  18  19
ENDBRANCH  15  18
ENDBRANCH   3  13
TORSDOF 4
ENDMDL
MODEL 8
REMARK VINA RESULT:      -7.2     10.223     13.085
REMARK  Name = 159269
REMARK  4 active torsions:
REMARK  status: ('A' for Active; 'I' for Inactive)
REMARK    1  A    between atoms: N1_3  and  C1*_13
REMARK    2  A    between atoms: C3*_12  and  O3*_16
REMARK    3  A    between atoms: C4*_15  and  C5*_18
REMARK    4  A    between atoms: C5*_18  and  O5*_19
REMARK                            x       y       z     vdW  Elec       q    Type
REMARK                         _______ _______ _______ _____ _____    ______ ____
ROOT
ATOM      1  O2  T   A   1      36.186 -22.781 -16.935  0.00  0.00    -0.252 OA
ATOM      2  O4  T   A   1      31.803 -22.926 -15.551  0.00  0.00    -0.270 OA
ATOM      3  N1  T   A   1      35.625 -24.270 -15.226  0.00  0.00    -0.219 N 
ATOM      4  N3  T   A   1      34.004 -22.863 -16.235  0.00  0.00    -0.236 N 
ATOM      5  C6  T   A   1      34.615 -24.773 -14.417  0.00  0.00    +0.071 C 
ATOM      6  C2  T   A   1      35.341 -23.273 -16.185  0.00  0.00    +0.315 C 
ATOM      7  C5  T   A   1      33.336 -24.379 -14.468  0.00  0.00    +0.047 C 
ATOM      8  C4  T   A   1      32.958 -23.331 -15.453  0.00  0.00    +0.250 C 
ATOM      9  C5M T   A   1      32.264 -24.934 -13.587  0.00  0.00    +0.037 C 
ATOM     10  H3  T   A   1      33.782 -22.168 -16.895  0.00  0.00    +0.159 HD
ENDROOT
BRANCH   3  13
ATOM     11  O4* T   A   1      37.739 -23.849 -14.315  0.00  0.00    -0.335 OA
ATOM     12  C3* T   A   1      38.330 -26.039 -13.618  0.00  0.00    +0.144 C 
ATOM     13  C1* T   A   1      36.953 -24.786 -15.063  0.00  0.00    +0.202 C 
ATOM     14  C2* T   A   1      36.989 -26.105 -14.309  0.00  0.00    +0.083 C 
ATOM     15  C4* T   A   1      38.475 -24.557 -13.297  0.00  0.00    +0.173 C 
BRANCH  12  16
ATOM     16  O3* T   A   1      39.337 -26.427 -14.549  0.00  0.00    -0.382 OA
ATOM     17  H3* T   A   1      39.411 -25.755 -15.246  0.00  0.00    +0.210 HD
ENDBRANCH  12  16
BRANCH  15  18
ATOM     18  C5* T   A   1      37.882 -24.183 -11.946  0.00  0.00    +0.169 C 
BRANCH  18  19
ATOM     19  O5* T   A   1      38.338 -22.889 -11.587  0.00  0.00    -0.379 OA
ATOM     20  H5* T   A   1      37.795 -22.544 -10.861  0.00  0.00    +0.211 HD
ENDBRANCH  18  19
ENDBRANCH  15  18
ENDBRANCH   3  13
TORSDOF 4
ENDMDL
MODEL 9
REMARK VINA RESULT:      -7.2      2.480      6.474
REMARK  Name = 159269
REMARK  4 active torsions:
REMARK  status: ('A' for Active; 'I' for Inactive)
REMARK    1  A    between atoms: N1_3  and  C1*_13
REMARK    2  A    between atoms: C3*_12  and  O3*_16
REMARK    3  A    between atoms: C4*_15  and  C5*_18
REMARK    4  A    between atoms: C5*_18  and  O5*_19
REMARK                            x       y       z     vdW  Elec       q    Type
REMARK                         _______ _______ _______ _____ _____    ______ ____
ROOT
ATOM      1  O2  T   A   1      34.947 -19.658 -24.102  0.00  0.00    -0.252 OA
ATOM      2  O4  T   A   1      35.197 -15.134 -23.313  0.00  0.00    -0.270 OA
ATOM      3  N1  T   A   1      34.404 -18.886 -21.966  0.00  0.00    -0.219 N 
ATOM      4  N3  T   A   1      35.068 -17.404 -23.695  0.00  0.00    -0.236 N 
ATOM      5  C6  T   A   1      34.279 -17.782 -21.133  0.00  0.00    +0.071 C 
ATOM      6  C2  T   A   1      34.814 -18.724 -23.308  0.00  0.00    +0.315 C 
ATOM      7  C5  T   A   1      34.522 -16.520 -21.506  0.00  0.00    +0.047 C 
ATOM      8  C4  T   A   1      34.958 -16.268 -22.907  0.00  0.00    +0.250 C 
ATOM      9  C5M T   A   1      34.381 -15.344 -20.594  0.00  0.00    +0.037 C 
ATOM     10  H3  T   A   1      35.355 -17.267 -24.626  0.00  0.00    +0.159 HD
ENDROOT
BRANCH   3  13
ATOM     11  O4* T   A   1      35.330 -20.918 -21.264  0.00  0.00    -0.335 OA
ATOM     12  C3* T   A   1      33.914 -21.400 -19.422  0.00  0.00    +0.144 C 
ATOM     13  C1* T   A   1      34.110 -20.183 -21.431  0.00  0.00    +0.202 C 
ATOM     14  C2* T   A   1      33.432 -20.125 -20.072  0.00  0.00    +0.083 C 
ATOM     15  C4* T   A   1      35.329 -21.545 -19.966  0.00  0.00    +0.173 C 
BRANCH  12  16
ATOM     16  O3* T   A   1      33.109 -22.479 -19.891  0.00  0.00    -0.382 OA
ATOM     17  H3* T   A   1      32.369 -22.128 -20.412  0.00  0.00    +0.210 HD
ENDBRANCH  12  16
BRANCH  15  18
ATOM     18  C5* T   A   1      36.369 -20.841 -19.106  0.00  0.00    +0.169 C 
BRANCH  18  19
ATOM     19  O5* T   A   1      36.938 -19.777 -19.852  0.00  0.00    -0.379 OA
ATOM     20  H5* T   A   1      37.071 -19.010 -19.273  0.00  0.00    +0.211 HD
ENDBRANCH  18  19
ENDBRANCH  15  18
ENDBRANCH   3  13
TORSDOF 4
ENDMDL
