MODEL 1
REMARK VINA RESULT:     -11.6      0.000      0.000
REMARK  Name = 16741245
REMARK  7 active torsions:
REMARK  status: ('A' for Active; 'I' for Inactive)
REMARK    1  A    between atoms: C_2  and  S_20
REMARK    2  A    between atoms: C_3  and  N_9
REMARK    3  A    between atoms: C_10  and  C_12
REMARK    4  A    between atoms: C_12  and  C_17
REMARK    5  A    between atoms: C_12  and  O_18
REMARK    6  A    between atoms: S_20  and  C_23
REMARK    7  A    between atoms: C_26  and  C_31
REMARK                            x       y       z     vdW  Elec       q    Type
REMARK                         _______ _______ _______ _____ _____    ______ ____
ROOT
ATOM      1 CL   UNL     1      32.952 -14.232 -25.009  0.00  0.00    -0.081 Cl
ATOM      2  C   UNL     1      34.763 -16.835 -22.582  0.00  0.00    +0.111 C 
ATOM      3  C   UNL     1      33.410 -14.428 -22.324  0.00  0.00    +0.061 C 
ATOM      4  C   UNL     1      34.251 -16.198 -23.712  0.00  0.00    +0.031 C 
ATOM      5  C   UNL     1      34.593 -16.261 -21.321  0.00  0.00    +0.020 C 
ATOM      6  C   UNL     1      33.571 -14.987 -23.582  0.00  0.00    +0.072 C 
ATOM      7  C   UNL     1      33.914 -15.051 -21.192  0.00  0.00    +0.017 C 
ENDROOT
BRANCH   3   9
ATOM      8  O   UNL     1      32.112 -13.252 -19.899  0.00  0.00    -0.272 OA
ATOM      9  N   UNL     1      32.724 -13.201 -22.158  0.00  0.00    -0.281 N 
ATOM     10  C   UNL     1      32.137 -12.705 -21.000  0.00  0.00    +0.259 C 
ATOM     11  H   UNL     1      32.654 -12.632 -22.958  0.00  0.00    +0.155 HD
BRANCH  10  12
ATOM     12  C   UNL     1      31.479 -11.328 -21.209  0.00  0.00    +0.245 C 
ATOM     13  C   UNL     1      32.042 -10.622 -22.442  0.00  0.00    +0.048 C 
BRANCH  12  17
ATOM     14  F   UNL     1      32.747 -10.675 -19.298  0.00  0.00    -0.167 F 
ATOM     15  F   UNL     1      30.579 -10.704 -19.105  0.00  0.00    -0.167 F 
ATOM     16  F   UNL     1      31.545  -9.143 -20.282  0.00  0.00    -0.167 F 
ATOM     17  C   UNL     1      31.594 -10.457 -19.966  0.00  0.00    +0.427 C 
ENDBRANCH  12  17
BRANCH  12  18
ATOM     18  O   UNL     1      30.087 -11.555 -21.427  0.00  0.00    -0.372 OA
ATOM     19  H   UNL     1      29.960 -11.969 -22.296  0.00  0.00    +0.211 HD
ENDBRANCH  12  18
ENDBRANCH  10  12
ENDBRANCH   3   9
BRANCH   2  20
ATOM     20  S   UNL     1      35.614 -18.350 -22.743  0.00  0.00    +0.027 S 
ATOM     21  O   UNL     1      37.021 -18.144 -22.427  0.00  0.00    -0.164 OA
ATOM     22  O   UNL     1      35.237 -18.897 -24.040  0.00  0.00    -0.164 OA
BRANCH  20  23
ATOM     23  C   UNL     1      35.022 -19.462 -21.496  0.00  0.00    +0.110 C 
ATOM     24  C   UNL     1      35.937 -20.176 -20.745  0.00  0.00    +0.019 C 
ATOM     25  C   UNL     1      33.660 -19.592 -21.303  0.00  0.00    +0.019 C 
ATOM     26  C   UNL     1      34.101 -21.198 -19.554  0.00  0.00    +0.054 C 
ATOM     27  C   UNL     1      35.472 -21.053 -19.765  0.00  0.00    +0.006 C 
ATOM     28  C   UNL     1      33.196 -20.468 -20.322  0.00  0.00    +0.006 C 
BRANCH  26  31
ATOM     29  O   UNL     1      32.421 -22.428 -18.582  0.00  0.00    -0.270 OA
ATOM     30  N   UNL     1      34.511 -22.566 -17.545  0.00  0.00    -0.273 N 
ATOM     31  C   UNL     1      33.617 -22.111 -18.530  0.00  0.00    +0.249 C 
ATOM     32  C   UNL     1      35.916 -22.164 -17.523  0.00  0.00    +0.115 C 
ATOM     33  C   UNL     1      34.097 -23.467 -16.479  0.00  0.00    +0.115 C 
ENDBRANCH  26  31
ENDBRANCH  20  23
ENDBRANCH   2  20
TORSDOF 7
ENDMDL
MODEL 2
REMARK VINA RESULT:     -11.4      4.443      6.810
REMARK  Name = 16741245
REMARK  7 active torsions:
REMARK  status: ('A' for Active; 'I' for Inactive)
REMARK    1  A    between atoms: C_2  and  S_20
REMARK    2  A    between atoms: C_3  and  N_9
REMARK    3  A    between atoms: C_10  and  C_12
REMARK    4  A    between atoms: C_12  and  C_17
REMARK    5  A    between atoms: C_12  and  O_18
REMARK    6  A    between atoms: S_20  and  C_23
REMARK    7  A    between atoms: C_26  and  C_31
REMARK                            x       y       z     vdW  Elec       q    Type
REMARK                         _______ _______ _______ _____ _____    ______ ____
ROOT
ATOM      1 CL   UNL     1      36.846 -19.754 -20.657  0.00  0.00    -0.081 Cl
ATOM      2  C   UNL     1      33.663 -21.704 -19.239  0.00  0.00    +0.111 C 
ATOM      3  C   UNL     1      34.135 -19.456 -20.793  0.00  0.00    +0.061 C 
ATOM      4  C   UNL     1      34.972 -21.322 -19.535  0.00  0.00    +0.031 C 
ATOM      5  C   UNL     1      32.592 -20.954 -19.726  0.00  0.00    +0.020 C 
ATOM      6  C   UNL     1      35.210 -20.191 -20.315  0.00  0.00    +0.072 C 
ATOM      7  C   UNL     1      32.830 -19.823 -20.507  0.00  0.00    +0.017 C 
ENDROOT
BRANCH   3   9
ATOM      8  O   UNL     1      34.660 -19.201 -23.726  0.00  0.00    -0.272 OA
ATOM      9  N   UNL     1      34.343 -18.303 -21.588  0.00  0.00    -0.281 N 
ATOM     10  C   UNL     1      34.585 -18.246 -22.955  0.00  0.00    +0.259 C 
ATOM     11  H   UNL     1      34.313 -17.440 -21.116  0.00  0.00    +0.155 HD
BRANCH  10  12
ATOM     12  C   UNL     1      34.761 -16.806 -23.470  0.00  0.00    +0.245 C 
ATOM     13  C   UNL     1      34.051 -15.799 -22.564  0.00  0.00    +0.048 C 
BRANCH  12  17
ATOM     14  F   UNL     1      33.574 -17.723 -25.323  0.00  0.00    -0.167 F 
ATOM     15  F   UNL     1      35.376 -16.578 -25.749  0.00  0.00    -0.167 F 
ATOM     16  F   UNL     1      33.566 -15.553 -25.095  0.00  0.00    -0.167 F 
ATOM     17  C   UNL     1      34.312 -16.667 -24.917  0.00  0.00    +0.427 C 
ENDBRANCH  12  17
BRANCH  12  18
ATOM     18  O   UNL     1      36.158 -16.516 -23.441  0.00  0.00    -0.372 OA
ATOM     19  H   UNL     1      36.614 -17.057 -24.105  0.00  0.00    +0.211 HD
ENDBRANCH  12  18
ENDBRANCH  10  12
ENDBRANCH   3   9
BRANCH   2  20
ATOM     20  S   UNL     1      33.365 -23.119 -18.263  0.00  0.00    +0.027 S 
ATOM     21  O   UNL     1      33.710 -24.309 -19.029  0.00  0.00    -0.164 OA
ATOM     22  O   UNL     1      32.020 -22.971 -17.725  0.00  0.00    -0.164 OA
BRANCH  20  23
ATOM     23  C   UNL     1      34.497 -23.109 -16.898  0.00  0.00    +0.110 C 
ATOM     24  C   UNL     1      34.040 -23.472 -15.646  0.00  0.00    +0.019 C 
ATOM     25  C   UNL     1      35.810 -22.737 -17.118  0.00  0.00    +0.019 C 
ATOM     26  C   UNL     1      36.259 -23.090 -14.770  0.00  0.00    +0.054 C 
ATOM     27  C   UNL     1      34.929 -23.461 -14.571  0.00  0.00    +0.006 C 
ATOM     28  C   UNL     1      36.699 -22.729 -16.043  0.00  0.00    +0.006 C 
BRANCH  26  31
ATOM     29  O   UNL     1      37.483 -21.977 -13.176  0.00  0.00    -0.270 OA
ATOM     30  N   UNL     1      37.701 -24.304 -13.183  0.00  0.00    -0.273 N 
ATOM     31  C   UNL     1      37.187 -23.081 -13.651  0.00  0.00    +0.249 C 
ATOM     32  C   UNL     1      37.323 -25.585 -13.775  0.00  0.00    +0.115 C 
ATOM     33  C   UNL     1      38.646 -24.376 -12.078  0.00  0.00    +0.115 C 
ENDBRANCH  26  31
ENDBRANCH  20  23
ENDBRANCH   2  20
TORSDOF 7
ENDMDL
MODEL 3
REMARK VINA RESULT:     -11.3      6.534     11.041
REMARK  Name = 16741245
REMARK  7 active torsions:
REMARK  status: ('A' for Active; 'I' for Inactive)
REMARK    1  A    between atoms: C_2  and  S_20
REMARK    2  A    between atoms: C_3  and  N_9
REMARK    3  A    between atoms: C_10  and  C_12
REMARK    4  A    between atoms: C_12  and  C_17
REMARK    5  A    between atoms: C_12  and  O_18
REMARK    6  A    between atoms: S_20  and  C_23
REMARK    7  A    between atoms: C_26  and  C_31
REMARK                            x       y       z     vdW  Elec       q    Type
REMARK                         _______ _______ _______ _____ _____    ______ ____
ROOT
ATOM      1 CL   UNL     1      33.503 -23.865 -14.704  0.00  0.00    -0.081 Cl
ATOM      2  C   UNL     1      34.932 -22.448 -18.153  0.00  0.00    +0.111 C 
ATOM      3  C   UNL     1      35.811 -22.663 -15.532  0.00  0.00    +0.061 C 
ATOM      4  C   UNL     1      34.111 -23.030 -17.188  0.00  0.00    +0.031 C 
ATOM      5  C   UNL     1      36.196 -21.975 -17.799  0.00  0.00    +0.020 C 
ATOM      6  C   UNL     1      34.552 -23.137 -15.869  0.00  0.00    +0.072 C 
ATOM      7  C   UNL     1      36.637 -22.082 -16.481  0.00  0.00    +0.017 C 
ENDROOT
BRANCH   3   9
ATOM      8  O   UNL     1      37.438 -24.796 -14.211  0.00  0.00    -0.272 OA
ATOM      9  N   UNL     1      36.289 -22.757 -14.202  0.00  0.00    -0.281 N 
ATOM     10  C   UNL     1      37.044 -23.780 -13.642  0.00  0.00    +0.259 C 
ATOM     11  H   UNL     1      36.057 -22.010 -13.605  0.00  0.00    +0.155 HD
BRANCH  10  12
ATOM     12  C   UNL     1      37.376 -23.531 -12.159  0.00  0.00    +0.245 C 
ATOM     13  C   UNL     1      38.681 -24.219 -11.756  0.00  0.00    +0.048 C 
BRANCH  12  17
ATOM     14  F   UNL     1      36.429 -23.553  -9.971  0.00  0.00    -0.167 F 
ATOM     15  F   UNL     1      36.066 -25.282 -11.243  0.00  0.00    -0.167 F 
ATOM     16  F   UNL     1      35.058 -23.394 -11.661  0.00  0.00    -0.167 F 
ATOM     17  C   UNL     1      36.226 -23.938 -11.250  0.00  0.00    +0.427 C 
ENDBRANCH  12  17
BRANCH  12  18
ATOM     18  O   UNL     1      37.553 -22.123 -11.997  0.00  0.00    -0.372 OA
ATOM     19  H   UNL     1      37.827 -21.935 -11.085  0.00  0.00    +0.211 HD
ENDBRANCH  12  18
ENDBRANCH  10  12
ENDBRANCH   3   9
BRANCH   2  20
ATOM     20  S   UNL     1      34.380 -22.313 -19.804  0.00  0.00    +0.027 S 
ATOM     21  O   UNL     1      32.958 -22.627 -19.858  0.00  0.00    -0.164 OA
ATOM     22  O   UNL     1      35.320 -23.076 -20.614  0.00  0.00    -0.164 OA
BRANCH  20  23
ATOM     23  C   UNL     1      34.494 -20.615 -20.298  0.00  0.00    +0.110 C 
ATOM     24  C   UNL     1      33.333 -19.883 -20.454  0.00  0.00    +0.019 C 
ATOM     25  C   UNL     1      35.742 -20.062 -20.517  0.00  0.00    +0.019 C 
ATOM     26  C   UNL     1      34.671 -17.968 -21.071  0.00  0.00    +0.054 C 
ATOM     27  C   UNL     1      33.422 -18.547 -20.845  0.00  0.00    +0.006 C 
ATOM     28  C   UNL     1      35.831 -18.726 -20.906  0.00  0.00    +0.006 C 
BRANCH  26  31
ATOM     29  O   UNL     1      34.899 -15.736 -20.576  0.00  0.00    -0.270 OA
ATOM     30  N   UNL     1      34.683 -16.257 -22.844  0.00  0.00    -0.273 N 
ATOM     31  C   UNL     1      34.764 -16.575 -21.477  0.00  0.00    +0.249 C 
ATOM     32  C   UNL     1      34.523 -17.282 -23.874  0.00  0.00    +0.115 C 
ATOM     33  C   UNL     1      34.752 -14.885 -23.327  0.00  0.00    +0.115 C 
ENDBRANCH  26  31
ENDBRANCH  20  23
ENDBRANCH   2  20
TORSDOF 7
ENDMDL
MODEL 4
REMARK VINA RESULT:     -11.3      4.584     10.846
REMARK  Name = 16741245
REMARK  7 active torsions:
REMARK  status: ('A' for Active; 'I' for Inactive)
REMARK    1  A    between atoms: C_2  and  S_20
REMARK    2  A    between atoms: C_3  and  N_9
REMARK    3  A    between atoms: C_10  and  C_12
REMARK    4  A    between atoms: C_12  and  C_17
REMARK    5  A    between atoms: C_12  and  O_18
REMARK    6  A    between atoms: S_20  and  C_23
REMARK    7  A    between atoms: C_26  and  C_31
REMARK                            x       y       z     vdW  Elec       q    Type
REMARK                         _______ _______ _______ _____ _____    ______ ____
ROOT
ATOM      1 CL   UNL     1      33.654 -13.709 -24.549  0.00  0.00    -0.081 Cl
ATOM      2  C   UNL     1      32.150 -12.385 -21.095  0.00  0.00    +0.111 C 
ATOM      3  C   UNL     1      33.375 -14.695 -22.018  0.00  0.00    +0.061 C 
ATOM      4  C   UNL     1      32.554 -12.476 -22.427  0.00  0.00    +0.031 C 
ATOM      5  C   UNL     1      32.363 -13.456 -20.228  0.00  0.00    +0.020 C 
ATOM      6  C   UNL     1      33.169 -13.638 -22.891  0.00  0.00    +0.072 C 
ATOM      7  C   UNL     1      32.978 -14.618 -20.692  0.00  0.00    +0.017 C 
ENDROOT
BRANCH   3   9
ATOM      8  O   UNL     1      35.235 -16.546 -20.584  0.00  0.00    -0.272 OA
ATOM      9  N   UNL     1      33.996 -15.889 -22.458  0.00  0.00    -0.281 N 
ATOM     10  C   UNL     1      34.858 -16.712 -21.742  0.00  0.00    +0.259 C 
ATOM     11  H   UNL     1      33.796 -16.168 -23.380  0.00  0.00    +0.155 HD
BRANCH  10  12
ATOM     12  C   UNL     1      35.336 -17.926 -22.558  0.00  0.00    +0.245 C 
ATOM     13  C   UNL     1      35.004 -17.767 -24.042  0.00  0.00    +0.048 C 
BRANCH  12  17
ATOM     14  F   UNL     1      35.587 -19.753 -21.047  0.00  0.00    -0.167 F 
ATOM     15  F   UNL     1      34.661 -20.162 -22.975  0.00  0.00    -0.167 F 
ATOM     16  F   UNL     1      33.561 -19.052 -21.453  0.00  0.00    -0.167 F 
ATOM     17  C   UNL     1      34.785 -19.231 -22.000  0.00  0.00    +0.427 C 
ENDBRANCH  12  17
BRANCH  12  18
ATOM     18  O   UNL     1      36.757 -17.989 -22.429  0.00  0.00    -0.372 OA
ATOM     19  H   UNL     1      37.068 -17.226 -21.917  0.00  0.00    +0.211 HD
ENDBRANCH  12  18
ENDBRANCH  10  12
ENDBRANCH   3   9
BRANCH   2  20
ATOM     20  S   UNL     1      31.380 -10.930 -20.513  0.00  0.00    +0.027 S 
ATOM     21  O   UNL     1      31.944 -10.578 -19.217  0.00  0.00    -0.164 OA
ATOM     22  O   UNL     1      29.945 -11.146 -20.642  0.00  0.00    -0.164 OA
BRANCH  20  23
ATOM     23  C   UNL     1      31.825  -9.591 -21.586  0.00  0.00    +0.110 C 
ATOM     24  C   UNL     1      32.671  -8.607 -21.114  0.00  0.00    +0.019 C 
ATOM     25  C   UNL     1      31.313  -9.562 -22.870  0.00  0.00    +0.019 C 
ATOM     26  C   UNL     1      32.515  -7.502 -23.257  0.00  0.00    +0.054 C 
ATOM     27  C   UNL     1      33.019  -7.552 -21.958  0.00  0.00    +0.006 C 
ATOM     28  C   UNL     1      31.662  -8.507 -23.713  0.00  0.00    +0.006 C 
BRANCH  26  31
ATOM     29  O   UNL     1      33.941  -6.515 -24.764  0.00  0.00    -0.270 OA
ATOM     30  N   UNL     1      32.030  -5.285 -24.218  0.00  0.00    -0.273 N 
ATOM     31  C   UNL     1      32.880  -6.403 -24.137  0.00  0.00    +0.249 C 
ATOM     32  C   UNL     1      30.785  -5.196 -23.458  0.00  0.00    +0.115 C 
ATOM     33  C   UNL     1      32.335  -4.139 -25.063  0.00  0.00    +0.115 C 
ENDBRANCH  26  31
ENDBRANCH  20  23
ENDBRANCH   2  20
TORSDOF 7
ENDMDL
MODEL 5
REMARK VINA RESULT:     -11.1      2.910      3.944
REMARK  Name = 16741245
REMARK  7 active torsions:
REMARK  status: ('A' for Active; 'I' for Inactive)
REMARK    1  A    between atoms: C_2  and  S_20
REMARK    2  A    between atoms: C_3  and  N_9
REMARK    3  A    between atoms: C_10  and  C_12
REMARK    4  A    between atoms: C_12  and  C_17
REMARK    5  A    between atoms: C_12  and  O_18
REMARK    6  A    between atoms: S_20  and  C_23
REMARK    7  A    between atoms: C_26  and  C_31
REMARK                            x       y       z     vdW  Elec       q    Type
REMARK                         _______ _______ _______ _____ _____    ______ ____
ROOT
ATOM      1 CL   UNL     1      32.320 -13.324 -20.983  0.00  0.00    -0.081 Cl
ATOM      2  C   UNL     1      33.674 -14.631 -24.505  0.00  0.00    +0.111 C 
ATOM      3  C   UNL     1      32.968 -12.195 -23.384  0.00  0.00    +0.061 C 
ATOM      4  C   UNL     1      33.226 -14.574 -23.186  0.00  0.00    +0.031 C 
ATOM      5  C   UNL     1      33.767 -13.461 -25.260  0.00  0.00    +0.020 C 
ATOM      6  C   UNL     1      32.870 -13.349 -22.622  0.00  0.00    +0.072 C 
ATOM      7  C   UNL     1      33.411 -12.237 -24.697  0.00  0.00    +0.017 C 
ENDROOT
BRANCH   3   9
ATOM      8  O   UNL     1      34.081  -9.474 -23.932  0.00  0.00    -0.272 OA
ATOM      9  N   UNL     1      32.615 -10.936 -22.841  0.00  0.00    -0.281 N 
ATOM     10  C   UNL     1      33.172  -9.697 -23.135  0.00  0.00    +0.259 C 
ATOM     11  H   UNL     1      31.890 -10.939 -22.176  0.00  0.00    +0.155 HD
BRANCH  10  12
ATOM     12  C   UNL     1      32.524  -8.549 -22.340  0.00  0.00    +0.245 C 
ATOM     13  C   UNL     1      31.966  -9.041 -21.005  0.00  0.00    +0.048 C 
BRANCH  12  17
ATOM     14  F   UNL     1      31.980  -7.238 -24.256  0.00  0.00    -0.167 F 
ATOM     15  F   UNL     1      30.860  -6.861 -22.428  0.00  0.00    -0.167 F 
ATOM     16  F   UNL     1      30.496  -8.683 -23.569  0.00  0.00    -0.167 F 
ATOM     17  C   UNL     1      31.461  -7.829 -23.158  0.00  0.00    +0.427 C 
ENDBRANCH  12  17
BRANCH  12  18
ATOM     18  O   UNL     1      33.550  -7.595 -22.065  0.00  0.00    -0.372 OA
ATOM     19  H   UNL     1      34.389  -7.907 -22.439  0.00  0.00    +0.211 HD
ENDBRANCH  12  18
ENDBRANCH  10  12
ENDBRANCH   3   9
BRANCH   2  20
ATOM     20  S   UNL     1      34.120 -16.164 -25.212  0.00  0.00    +0.027 S 
ATOM     21  O   UNL     1      35.344 -15.995 -25.984  0.00  0.00    -0.164 OA
ATOM     22  O   UNL     1      32.923 -16.681 -25.859  0.00  0.00    -0.164 OA
BRANCH  20  23
ATOM     23  C   UNL     1      34.554 -17.280 -23.904  0.00  0.00    +0.110 C 
ATOM     24  C   UNL     1      34.564 -18.638 -24.159  0.00  0.00    +0.019 C 
ATOM     25  C   UNL     1      34.869 -16.766 -22.661  0.00  0.00    +0.019 C 
ATOM     26  C   UNL     1      35.225 -19.020 -21.867  0.00  0.00    +0.054 C 
ATOM     27  C   UNL     1      34.903 -19.516 -23.130  0.00  0.00    +0.006 C 
ATOM     28  C   UNL     1      35.209 -17.646 -21.633  0.00  0.00    +0.006 C 
BRANCH  26  31
ATOM     29  O   UNL     1      36.783 -20.040 -20.520  0.00  0.00    -0.270 OA
ATOM     30  N   UNL     1      34.560 -20.655 -20.147  0.00  0.00    -0.273 N 
ATOM     31  C   UNL     1      35.581 -19.936 -20.795  0.00  0.00    +0.249 C 
ATOM     32  C   UNL     1      33.151 -20.501 -20.506  0.00  0.00    +0.115 C 
ATOM     33  C   UNL     1      34.837 -21.603 -19.077  0.00  0.00    +0.115 C 
ENDBRANCH  26  31
ENDBRANCH  20  23
ENDBRANCH   2  20
TORSDOF 7
ENDMDL
MODEL 6
REMARK VINA RESULT:     -10.6      4.714      9.617
REMARK  Name = 16741245
REMARK  7 active torsions:
REMARK  status: ('A' for Active; 'I' for Inactive)
REMARK    1  A    between atoms: C_2  and  S_20
REMARK    2  A    between atoms: C_3  and  N_9
REMARK    3  A    between atoms: C_10  and  C_12
REMARK    4  A    between atoms: C_12  and  C_17
REMARK    5  A    between atoms: C_12  and  O_18
REMARK    6  A    between atoms: S_20  and  C_23
REMARK    7  A    between atoms: C_26  and  C_31
REMARK                            x       y       z     vdW  Elec       q    Type
REMARK                         _______ _______ _______ _____ _____    ______ ____
ROOT
ATOM      1 CL   UNL     1      36.630 -21.205 -19.142  0.00  0.00    -0.081 Cl
ATOM      2  C   UNL     1      34.744 -19.095 -21.959  0.00  0.00    +0.111 C 
ATOM      3  C   UNL     1      34.031 -20.704 -19.815  0.00  0.00    +0.061 C 
ATOM      4  C   UNL     1      35.732 -19.684 -21.170  0.00  0.00    +0.031 C 
ATOM      5  C   UNL     1      33.397 -19.315 -21.668  0.00  0.00    +0.020 C 
ATOM      6  C   UNL     1      35.374 -20.494 -20.092  0.00  0.00    +0.072 C 
ATOM      7  C   UNL     1      33.039 -20.124 -20.591  0.00  0.00    +0.017 C 
ENDROOT
BRANCH   3   9
ATOM      8  O   UNL     1      34.155 -23.673 -19.484  0.00  0.00    -0.272 OA
ATOM      9  N   UNL     1      33.635 -21.520 -18.729  0.00  0.00    -0.281 N 
ATOM     10  C   UNL     1      33.716 -22.904 -18.631  0.00  0.00    +0.259 C 
ATOM     11  H   UNL     1      33.256 -21.051 -17.950  0.00  0.00    +0.155 HD
BRANCH  10  12
ATOM     12  C   UNL     1      33.183 -23.439 -17.290  0.00  0.00    +0.245 C 
ATOM     13  C   UNL     1      31.873 -22.754 -16.897  0.00  0.00    +0.048 C 
BRANCH  12  17
ATOM     14  F   UNL     1      35.326 -22.660 -16.595  0.00  0.00    -0.167 F 
ATOM     15  F   UNL     1      34.626 -24.549 -15.770  0.00  0.00    -0.167 F 
ATOM     16  F   UNL     1      33.729 -22.676 -15.108  0.00  0.00    -0.167 F 
ATOM     17  C   UNL     1      34.224 -23.325 -16.186  0.00  0.00    +0.427 C 
ENDBRANCH  12  17
BRANCH  12  18
ATOM     18  O   UNL     1      32.917 -24.830 -17.466  0.00  0.00    -0.372 OA
ATOM     19  H   UNL     1      32.428 -24.963 -18.293  0.00  0.00    +0.211 HD
ENDBRANCH  12  18
ENDBRANCH  10  12
ENDBRANCH   3   9
BRANCH   2  20
ATOM     20  S   UNL     1      35.191 -18.081 -23.307  0.00  0.00    +0.027 S 
ATOM     21  O   UNL     1      34.589 -18.611 -24.524  0.00  0.00    -0.164 OA
ATOM     22  O   UNL     1      36.636 -17.911 -23.231  0.00  0.00    -0.164 OA
BRANCH  20  23
ATOM     23  C   UNL     1      34.447 -16.488 -23.084  0.00  0.00    +0.110 C 
ATOM     24  C   UNL     1      33.793 -15.899 -24.149  0.00  0.00    +0.019 C 
ATOM     25  C   UNL     1      34.539 -15.871 -21.851  0.00  0.00    +0.019 C 
ATOM     26  C   UNL     1      33.290 -14.003 -22.738  0.00  0.00    +0.054 C 
ATOM     27  C   UNL     1      33.209 -14.644 -23.974  0.00  0.00    +0.006 C 
ATOM     28  C   UNL     1      33.954 -14.617 -21.676  0.00  0.00    +0.006 C 
BRANCH  26  31
ATOM     29  O   UNL     1      31.802 -12.603 -21.687  0.00  0.00    -0.270 OA
ATOM     30  N   UNL     1      33.099 -11.629 -23.369  0.00  0.00    -0.273 N 
ATOM     31  C   UNL     1      32.679 -12.696 -22.555  0.00  0.00    +0.249 C 
ATOM     32  C   UNL     1      34.139 -11.786 -24.384  0.00  0.00    +0.115 C 
ATOM     33  C   UNL     1      32.524 -10.296 -23.258  0.00  0.00    +0.115 C 
ENDBRANCH  26  31
ENDBRANCH  20  23
ENDBRANCH   2  20
TORSDOF 7
ENDMDL
MODEL 7
REMARK VINA RESULT:     -10.5      5.289      9.924
REMARK  Name = 16741245
REMARK  7 active torsions:
REMARK  status: ('A' for Active; 'I' for Inactive)
REMARK    1  A    between atoms: C_2  and  S_20
REMARK    2  A    between atoms: C_3  and  N_9
REMARK    3  A    between atoms: C_10  and  C_12
REMARK    4  A    between atoms: C_12  and  C_17
REMARK    5  A    between atoms: C_12  and  O_18
REMARK    6  A    between atoms: S_20  and  C_23
REMARK    7  A    between atoms: C_26  and  C_31
REMARK                            x       y       z     vdW  Elec       q    Type
REMARK                         _______ _______ _______ _____ _____    ______ ____
ROOT
ATOM      1 CL   UNL     1      32.792 -21.613 -19.125  0.00  0.00    -0.081 Cl
ATOM      2  C   UNL     1      35.688 -19.721 -21.120  0.00  0.00    +0.111 C 
ATOM      3  C   UNL     1      35.509 -21.423 -18.938  0.00  0.00    +0.061 C 
ATOM      4  C   UNL     1      34.443 -20.194 -20.704  0.00  0.00    +0.031 C 
ATOM      5  C   UNL     1      36.843 -20.105 -20.438  0.00  0.00    +0.020 C 
ATOM      6  C   UNL     1      34.354 -21.050 -19.607  0.00  0.00    +0.072 C 
ATOM      7  C   UNL     1      36.753 -20.960 -19.340  0.00  0.00    +0.017 C 
ENDROOT
BRANCH   3   9
ATOM      8  O   UNL     1      37.078 -21.399 -16.392  0.00  0.00    -0.272 OA
ATOM      9  N   UNL     1      35.453 -22.291 -17.821  0.00  0.00    -0.281 N 
ATOM     10  C   UNL     1      36.212 -22.230 -16.658  0.00  0.00    +0.259 C 
ATOM     11  H   UNL     1      34.798 -23.024 -17.874  0.00  0.00    +0.155 HD
BRANCH  10  12
ATOM     12  C   UNL     1      35.867 -23.352 -15.662  0.00  0.00    +0.245 C 
ATOM     13  C   UNL     1      35.026 -22.825 -14.499  0.00  0.00    +0.048 C 
BRANCH  12  17
ATOM     14  F   UNL     1      38.216 -23.705 -15.861  0.00  0.00    -0.167 F 
ATOM     15  F   UNL     1      36.986 -25.411 -15.298  0.00  0.00    -0.167 F 
ATOM     16  F   UNL     1      37.347 -23.810 -13.862  0.00  0.00    -0.167 F 
ATOM     17  C   UNL     1      37.115 -24.070 -15.169  0.00  0.00    +0.427 C 
ENDBRANCH  12  17
BRANCH  12  18
ATOM     18  O   UNL     1      35.087 -24.317 -16.368  0.00  0.00    -0.372 OA
ATOM     19  H   UNL     1      35.677 -24.926 -16.840  0.00  0.00    +0.211 HD
ENDBRANCH  12  18
ENDBRANCH  10  12
ENDBRANCH   3   9
BRANCH   2  20
ATOM     20  S   UNL     1      35.801 -18.650 -22.494  0.00  0.00    +0.027 S 
ATOM     21  O   UNL     1      35.114 -19.254 -23.628  0.00  0.00    -0.164 OA
ATOM     22  O   UNL     1      37.205 -18.282 -22.613  0.00  0.00    -0.164 OA
BRANCH  20  23
ATOM     23  C   UNL     1      34.884 -17.176 -22.134  0.00  0.00    +0.110 C 
ATOM     24  C   UNL     1      34.164 -16.571 -23.147  0.00  0.00    +0.019 C 
ATOM     25  C   UNL     1      34.912 -16.665 -20.851  0.00  0.00    +0.019 C 
ATOM     26  C   UNL     1      33.458 -14.877 -21.576  0.00  0.00    +0.054 C 
ATOM     27  C   UNL     1      33.444 -15.410 -22.865  0.00  0.00    +0.006 C 
ATOM     28  C   UNL     1      34.191 -15.505 -20.569  0.00  0.00    +0.006 C 
BRANCH  26  31
ATOM     29  O   UNL     1      32.242 -13.559 -20.139  0.00  0.00    -0.270 OA
ATOM     30  N   UNL     1      32.535 -12.708 -22.296  0.00  0.00    -0.273 N 
ATOM     31  C   UNL     1      32.706 -13.667 -21.282  0.00  0.00    +0.249 C 
ATOM     32  C   UNL     1      33.101 -12.879 -23.633  0.00  0.00    +0.115 C 
ATOM     33  C   UNL     1      31.781 -11.481 -22.084  0.00  0.00    +0.115 C 
ENDBRANCH  26  31
ENDBRANCH  20  23
ENDBRANCH   2  20
TORSDOF 7
ENDMDL
MODEL 8
REMARK VINA RESULT:     -10.5      3.170      4.695
REMARK  Name = 16741245
REMARK  7 active torsions:
REMARK  status: ('A' for Active; 'I' for Inactive)
REMARK    1  A    between atoms: C_2  and  S_20
REMARK    2  A    between atoms: C_3  and  N_9
REMARK    3  A    between atoms: C_10  and  C_12
REMARK    4  A    between atoms: C_12  and  C_17
REMARK    5  A    between atoms: C_12  and  O_18
REMARK    6  A    between atoms: S_20  and  C_23
REMARK    7  A    between atoms: C_26  and  C_31
REMARK                            x       y       z     vdW  Elec       q    Type
REMARK                         _______ _______ _______ _____ _____    ______ ____
ROOT
ATOM      1 CL   UNL     1      35.001  -9.897 -25.502  0.00  0.00    -0.081 Cl
ATOM      2  C   UNL     1      33.487 -13.526 -24.808  0.00  0.00    +0.111 C 
ATOM      3  C   UNL     1      33.342 -11.014 -23.642  0.00  0.00    +0.061 C 
ATOM      4  C   UNL     1      34.188 -12.457 -25.365  0.00  0.00    +0.031 C 
ATOM      5  C   UNL     1      32.712 -13.330 -23.664  0.00  0.00    +0.020 C 
ATOM      6  C   UNL     1      34.116 -11.193 -24.779  0.00  0.00    +0.072 C 
ATOM      7  C   UNL     1      32.640 -12.068 -23.078  0.00  0.00    +0.017 C 
ENDROOT
BRANCH   3   9
ATOM      8  O   UNL     1      30.936  -9.407 -22.888  0.00  0.00    -0.272 OA
ATOM      9  N   UNL     1      33.248  -9.744 -23.023  0.00  0.00    -0.281 N 
ATOM     10  C   UNL     1      32.094  -9.042 -22.696  0.00  0.00    +0.259 C 
ATOM     11  H   UNL     1      34.101  -9.307 -22.799  0.00  0.00    +0.155 HD
BRANCH  10  12
ATOM     12  C   UNL     1      32.391  -7.686 -22.030  0.00  0.00    +0.245 C 
ATOM     13  C   UNL     1      32.056  -7.712 -20.538  0.00  0.00    +0.048 C 
BRANCH  12  17
ATOM     14  F   UNL     1      30.369  -6.487 -22.426  0.00  0.00    -0.167 F 
ATOM     15  F   UNL     1      31.765  -6.681 -24.085  0.00  0.00    -0.167 F 
ATOM     16  F   UNL     1      32.230  -5.350 -22.423  0.00  0.00    -0.167 F 
ATOM     17  C   UNL     1      31.680  -6.543 -22.741  0.00  0.00    +0.427 C 
ENDBRANCH  12  17
BRANCH  12  18
ATOM     18  O   UNL     1      33.792  -7.448 -22.163  0.00  0.00    -0.372 OA
ATOM     19  H   UNL     1      34.002  -6.560 -21.833  0.00  0.00    +0.211 HD
ENDBRANCH  12  18
ENDBRANCH  10  12
ENDBRANCH   3   9
BRANCH   2  20
ATOM     20  S   UNL     1      33.576 -15.107 -25.542  0.00  0.00    +0.027 S 
ATOM     21  O   UNL     1      34.553 -15.077 -26.623  0.00  0.00    -0.164 OA
ATOM     22  O   UNL     1      32.204 -15.509 -25.819  0.00  0.00    -0.164 OA
BRANCH  20  23
ATOM     23  C   UNL     1      34.242 -16.241 -24.354  0.00  0.00    +0.110 C 
ATOM     24  C   UNL     1      34.543 -17.529 -24.752  0.00  0.00    +0.019 C 
ATOM     25  C   UNL     1      34.443 -15.812 -23.055  0.00  0.00    +0.019 C 
ATOM     26  C   UNL     1      35.276 -18.011 -22.501  0.00  0.00    +0.054 C 
ATOM     27  C   UNL     1      35.065 -18.423 -23.817  0.00  0.00    +0.006 C 
ATOM     28  C   UNL     1      34.966 -16.706 -22.121  0.00  0.00    +0.006 C 
BRANCH  26  31
ATOM     29  O   UNL     1      37.045 -18.905 -21.339  0.00  0.00    -0.270 OA
ATOM     30  N   UNL     1      34.951 -19.830 -20.871  0.00  0.00    -0.273 N 
ATOM     31  C   UNL     1      35.822 -18.942 -21.526  0.00  0.00    +0.249 C 
ATOM     32  C   UNL     1      33.512 -19.839 -21.125  0.00  0.00    +0.115 C 
ATOM     33  C   UNL     1      35.424 -20.802 -19.895  0.00  0.00    +0.115 C 
ENDBRANCH  26  31
ENDBRANCH  20  23
ENDBRANCH   2  20
TORSDOF 7
ENDMDL
MODEL 9
REMARK VINA RESULT:     -10.5      5.664      9.830
REMARK  Name = 16741245
REMARK  7 active torsions:
REMARK  status: ('A' for Active; 'I' for Inactive)
REMARK    1  A    between atoms: C_2  and  S_20
REMARK    2  A    between atoms: C_3  and  N_9
REMARK    3  A    between atoms: C_10  and  C_12
REMARK    4  A    between atoms: C_12  and  C_17
REMARK    5  A    between atoms: C_12  and  O_18
REMARK    6  A    between atoms: S_20  and  C_23
REMARK    7  A    between atoms: C_26  and  C_31
REMARK                            x       y       z     vdW  Elec       q    Type
REMARK                         _______ _______ _______ _____ _____    ______ ____
ROOT
ATOM      1 CL   UNL     1      34.449 -24.110 -15.451  0.00  0.00    -0.081 Cl
ATOM      2  C   UNL     1      35.127 -21.801 -18.637  0.00  0.00    +0.111 C 
ATOM      3  C   UNL     1      32.932 -22.978 -17.418  0.00  0.00    +0.061 C 
ATOM      4  C   UNL     1      35.298 -22.572 -17.487  0.00  0.00    +0.031 C 
ATOM      5  C   UNL     1      33.852 -21.623 -19.174  0.00  0.00    +0.020 C 
ATOM      6  C   UNL     1      34.193 -23.164 -16.874  0.00  0.00    +0.072 C 
ATOM      7  C   UNL     1      32.748 -22.215 -18.562  0.00  0.00    +0.017 C 
ENDROOT
BRANCH   3   9
ATOM      8  O   UNL     1      31.533 -22.313 -14.860  0.00  0.00    -0.272 OA
ATOM      9  N   UNL     1      31.791 -23.566 -16.821  0.00  0.00    -0.281 N 
ATOM     10  C   UNL     1      31.183 -23.212 -15.622  0.00  0.00    +0.259 C 
ATOM     11  H   UNL     1      31.380 -24.313 -17.312  0.00  0.00    +0.155 HD
BRANCH  10  12
ATOM     12  C   UNL     1      29.957 -24.085 -15.296  0.00  0.00    +0.245 C 
ATOM     13  C   UNL     1      30.260 -25.570 -15.497  0.00  0.00    +0.048 C 
BRANCH  12  17
ATOM     14  F   UNL     1      27.698 -23.322 -15.289  0.00  0.00    -0.167 F 
ATOM     15  F   UNL     1      28.307 -24.647 -16.905  0.00  0.00    -0.167 F 
ATOM     16  F   UNL     1      29.006 -22.582 -16.870  0.00  0.00    -0.167 F 
ATOM     17  C   UNL     1      28.733 -23.653 -16.091  0.00  0.00    +0.427 C 
ENDBRANCH  12  17
BRANCH  12  18
ATOM     18  O   UNL     1      29.648 -23.881 -13.918  0.00  0.00    -0.372 OA
ATOM     19  H   UNL     1      29.111 -23.078 -13.823  0.00  0.00    +0.211 HD
ENDBRANCH  12  18
ENDBRANCH  10  12
ENDBRANCH   3   9
BRANCH   2  20
ATOM     20  S   UNL     1      36.509 -21.059 -19.404  0.00  0.00    +0.027 S 
ATOM     21  O   UNL     1      37.244 -22.074 -20.147  0.00  0.00    -0.164 OA
ATOM     22  O   UNL     1      37.186 -20.287 -18.371  0.00  0.00    -0.164 OA
BRANCH  20  23
ATOM     23  C   UNL     1      35.926 -19.923 -20.634  0.00  0.00    +0.110 C 
ATOM     24  C   UNL     1      36.830 -19.080 -21.249  0.00  0.00    +0.019 C 
ATOM     25  C   UNL     1      34.580 -19.906 -20.947  0.00  0.00    +0.019 C 
ATOM     26  C   UNL     1      35.017 -18.150 -22.547  0.00  0.00    +0.054 C 
ATOM     27  C   UNL     1      36.372 -18.184 -22.215  0.00  0.00    +0.006 C 
ATOM     28  C   UNL     1      34.122 -19.011 -21.914  0.00  0.00    +0.006 C 
BRANCH  26  31
ATOM     29  O   UNL     1      34.532 -17.614 -24.728  0.00  0.00    -0.270 OA
ATOM     30  N   UNL     1      34.133 -15.932 -23.156  0.00  0.00    -0.273 N 
ATOM     31  C   UNL     1      34.540 -17.217 -23.556  0.00  0.00    +0.249 C 
ATOM     32  C   UNL     1      34.159 -15.506 -21.759  0.00  0.00    +0.115 C 
ATOM     33  C   UNL     1      33.658 -14.938 -24.109  0.00  0.00    +0.115 C 
ENDBRANCH  26  31
ENDBRANCH  20  23
ENDBRANCH   2  20
TORSDOF 7
ENDMDL
