MODEL 1
REMARK VINA RESULT:      -7.6      0.000      0.000
REMARK  Name = 854026
REMARK  1 active torsions:
REMARK  status: ('A' for Active; 'I' for Inactive)
REMARK    1  A    between atoms: C_3  and  N_19
REMARK                            x       y       z     vdW  Elec       q    Type
REMARK                         _______ _______ _______ _____ _____    ______ ____
ROOT
ATOM      1  O   UNL     1      35.548 -21.249 -19.525  0.00  0.00    -0.270 OA
ATOM      2  N   UNL     1      36.512 -21.996 -17.565  0.00  0.00    -0.284 N 
ATOM      3  C   UNL     1      35.102 -23.976 -14.631  0.00  0.00    -0.009 C 
ATOM      4  C   UNL     1      37.595 -23.787 -14.407  0.00  0.00    +0.043 C 
ATOM      5  C   UNL     1      36.265 -23.593 -13.707  0.00  0.00    -0.059 C 
ATOM      6  C   UNL     1      35.227 -25.515 -14.870  0.00  0.00    +0.009 C 
ATOM      7  C   UNL     1      35.251 -23.236 -15.981  0.00  0.00    -0.028 C 
ATOM      8  C   UNL     1      37.684 -22.746 -15.541  0.00  0.00    +0.049 C 
ATOM      9  C   UNL     1      36.416 -22.667 -16.363  0.00  0.00    +0.023 C 
ATOM     10  C   UNL     1      36.640 -25.990 -15.164  0.00  0.00    -0.049 C 
ATOM     11  C   UNL     1      37.707 -25.193 -14.961  0.00  0.00    -0.031 C 
ATOM     12  C   UNL     1      36.192 -23.131 -12.449  0.00  0.00    -0.036 C 
ATOM     13  C   UNL     1      34.118 -23.155 -16.892  0.00  0.00    -0.000 C 
ATOM     14  C   UNL     1      36.777 -27.386 -15.690  0.00  0.00    +0.026 C 
ATOM     15  C   UNL     1      34.192 -22.507 -18.061  0.00  0.00    +0.058 C 
ATOM     16  C   UNL     1      35.467 -21.855 -18.460  0.00  0.00    +0.249 C 
ATOM     17  C   UNL     1      37.381 -22.767 -11.629  0.00  0.00    +0.030 C 
ATOM     18  H   UNL     1      37.378 -21.593 -17.801  0.00  0.00    +0.155 HD
ENDROOT
BRANCH   3  19
ATOM     19  N   UNL     1      33.791 -23.707 -14.009  0.00  0.00    +0.388 N 
ATOM     20  H   UNL     1      33.615 -24.393 -13.275  0.00  0.00    -0.088 HD
ATOM     21  H   UNL     1      33.059 -23.772 -14.717  0.00  0.00    -0.088 HD
ATOM     22  H   UNL     1      33.791 -22.770 -13.606  0.00  0.00    -0.088 HD
ENDBRANCH   3  19
TORSDOF 1
ENDMDL
MODEL 2
REMARK VINA RESULT:      -7.2      5.077      8.358
REMARK  Name = 854026
REMARK  1 active torsions:
REMARK  status: ('A' for Active; 'I' for Inactive)
REMARK    1  A    between atoms: C_3  and  N_19
REMARK                            x       y       z     vdW  Elec       q    Type
REMARK                         _______ _______ _______ _____ _____    ______ ____
ROOT
ATOM      1  O   UNL     1      33.206 -23.338 -18.615  0.00  0.00    -0.270 OA
ATOM      2  N   UNL     1      33.064 -21.286 -19.663  0.00  0.00    -0.284 N 
ATOM      3  C   UNL     1      35.726 -18.987 -21.125  0.00  0.00    -0.009 C 
ATOM      4  C   UNL     1      33.445 -18.150 -21.754  0.00  0.00    +0.043 C 
ATOM      5  C   UNL     1      34.784 -17.776 -21.152  0.00  0.00    -0.059 C 
ATOM      6  C   UNL     1      36.024 -19.337 -22.618  0.00  0.00    +0.009 C 
ATOM      7  C   UNL     1      35.011 -20.182 -20.453  0.00  0.00    -0.028 C 
ATOM      8  C   UNL     1      32.748 -19.122 -20.781  0.00  0.00    +0.049 C 
ATOM      9  C   UNL     1      33.670 -20.214 -20.285  0.00  0.00    +0.023 C 
ATOM     10  C   UNL     1      34.801 -19.326 -23.519  0.00  0.00    -0.049 C 
ATOM     11  C   UNL     1      33.631 -18.795 -23.113  0.00  0.00    -0.031 C 
ATOM     12  C   UNL     1      35.035 -16.534 -20.709  0.00  0.00    -0.036 C 
ATOM     13  C   UNL     1      35.787 -21.326 -19.996  0.00  0.00    -0.000 C 
ATOM     14  C   UNL     1      34.969 -19.937 -24.877  0.00  0.00    +0.026 C 
ATOM     15  C   UNL     1      35.215 -22.374 -19.390  0.00  0.00    +0.058 C 
ATOM     16  C   UNL     1      33.744 -22.389 -19.179  0.00  0.00    +0.249 C 
ATOM     17  C   UNL     1      34.048 -15.420 -20.761  0.00  0.00    +0.030 C 
ATOM     18  H   UNL     1      32.086 -21.265 -19.558  0.00  0.00    +0.155 HD
ENDROOT
BRANCH   3  19
ATOM     19  N   UNL     1      37.005 -18.676 -20.456  0.00  0.00    +0.388 N 
ATOM     20  H   UNL     1      37.019 -17.691 -20.190  0.00  0.00    -0.088 HD
ATOM     21  H   UNL     1      37.778 -18.866 -21.094  0.00  0.00    -0.088 HD
ATOM     22  H   UNL     1      37.102 -19.255 -19.622  0.00  0.00    -0.088 HD
ENDBRANCH   3  19
TORSDOF 1
ENDMDL
MODEL 3
REMARK VINA RESULT:      -7.1     15.722     17.593
REMARK  Name = 854026
REMARK  1 active torsions:
REMARK  status: ('A' for Active; 'I' for Inactive)
REMARK    1  A    between atoms: C_3  and  N_19
REMARK                            x       y       z     vdW  Elec       q    Type
REMARK                         _______ _______ _______ _____ _____    ______ ____
ROOT
ATOM      1  O   UNL     1      33.927 -12.679 -25.750  0.00  0.00    -0.270 OA
ATOM      2  N   UNL     1      32.897 -11.204 -24.302  0.00  0.00    -0.284 N 
ATOM      3  C   UNL     1      33.893  -7.740 -23.067  0.00  0.00    -0.009 C 
ATOM      4  C   UNL     1      31.543  -8.255 -22.347  0.00  0.00    +0.043 C 
ATOM      5  C   UNL     1      32.910  -7.787 -21.889  0.00  0.00    -0.059 C 
ATOM      6  C   UNL     1      33.369  -6.622 -24.024  0.00  0.00    +0.009 C 
ATOM      7  C   UNL     1      33.874  -9.097 -23.809  0.00  0.00    -0.028 C 
ATOM      8  C   UNL     1      31.669  -9.734 -22.766  0.00  0.00    +0.049 C 
ATOM      9  C   UNL     1      32.875  -9.994 -23.641  0.00  0.00    +0.023 C 
ATOM     10  C   UNL     1      31.869  -6.658 -24.266  0.00  0.00    -0.049 C 
ATOM     11  C   UNL     1      31.051  -7.411 -23.507  0.00  0.00    -0.031 C 
ATOM     12  C   UNL     1      33.158  -7.486 -20.605  0.00  0.00    -0.036 C 
ATOM     13  C   UNL     1      34.946  -9.432 -24.735  0.00  0.00    -0.000 C 
ATOM     14  C   UNL     1      31.357  -5.812 -25.392  0.00  0.00    +0.026 C 
ATOM     15  C   UNL     1      34.985 -10.602 -25.383  0.00  0.00    +0.058 C 
ATOM     16  C   UNL     1      33.901 -11.597 -25.170  0.00  0.00    +0.249 C 
ATOM     17  C   UNL     1      32.140  -7.577 -19.521  0.00  0.00    +0.030 C 
ATOM     18  H   UNL     1      32.152 -11.828 -24.147  0.00  0.00    +0.155 HD
ENDROOT
BRANCH   3  19
ATOM     19  N   UNL     1      35.257  -7.380 -22.633  0.00  0.00    +0.388 N 
ATOM     20  H   UNL     1      35.912  -8.100 -22.940  0.00  0.00    -0.088 HD
ATOM     21  H   UNL     1      35.283  -7.310 -21.616  0.00  0.00    -0.088 HD
ATOM     22  H   UNL     1      35.520  -6.484 -23.043  0.00  0.00    -0.088 HD
ENDBRANCH   3  19
TORSDOF 1
ENDMDL
MODEL 4
REMARK VINA RESULT:      -6.4     14.338     17.304
REMARK  Name = 854026
REMARK  1 active torsions:
REMARK  status: ('A' for Active; 'I' for Inactive)
REMARK    1  A    between atoms: C_3  and  N_19
REMARK                            x       y       z     vdW  Elec       q    Type
REMARK                         _______ _______ _______ _____ _____    ______ ____
ROOT
ATOM      1  O   UNL     1      34.060 -13.461 -23.615  0.00  0.00    -0.270 OA
ATOM      2  N   UNL     1      34.260 -11.166 -23.759  0.00  0.00    -0.284 N 
ATOM      3  C   UNL     1      31.734  -8.357 -23.260  0.00  0.00    -0.009 C 
ATOM      4  C   UNL     1      34.043  -7.394 -23.473  0.00  0.00    +0.043 C 
ATOM      5  C   UNL     1      32.616  -7.325 -23.977  0.00  0.00    -0.059 C 
ATOM      6  C   UNL     1      31.670  -7.908 -21.765  0.00  0.00    +0.009 C 
ATOM      7  C   UNL     1      32.398  -9.752 -23.347  0.00  0.00    -0.028 C 
ATOM      8  C   UNL     1      34.636  -8.744 -23.924  0.00  0.00    +0.049 C 
ATOM      9  C   UNL     1      33.702  -9.907 -23.671  0.00  0.00    +0.023 C 
ATOM     10  C   UNL     1      33.009  -7.490 -21.180  0.00  0.00    -0.049 C 
ATOM     11  C   UNL     1      34.083  -7.271 -21.962  0.00  0.00    -0.031 C 
ATOM     12  C   UNL     1      32.248  -6.461 -24.936  0.00  0.00    -0.036 C 
ATOM     13  C   UNL     1      31.617 -10.945 -23.055  0.00  0.00    -0.000 C 
ATOM     14  C   UNL     1      33.064  -7.339 -19.690  0.00  0.00    +0.026 C 
ATOM     15  C   UNL     1      32.142 -12.174 -23.137  0.00  0.00    +0.058 C 
ATOM     16  C   UNL     1      33.567 -12.340 -23.526  0.00  0.00    +0.249 C 
ATOM     17  C   UNL     1      33.182  -5.502 -25.590  0.00  0.00    +0.030 C 
ATOM     18  H   UNL     1      35.211 -11.233 -24.003  0.00  0.00    +0.155 HD
ENDROOT
BRANCH   3  19
ATOM     19  N   UNL     1      30.361  -8.378 -23.800  0.00  0.00    +0.388 N 
ATOM     20  H   UNL     1      30.034  -7.421 -23.936  0.00  0.00    -0.088 HD
ATOM     21  H   UNL     1      29.745  -8.857 -23.142  0.00  0.00    -0.088 HD
ATOM     22  H   UNL     1      30.353  -8.871 -24.693  0.00  0.00    -0.088 HD
ENDBRANCH   3  19
TORSDOF 1
ENDMDL
MODEL 5
REMARK VINA RESULT:      -6.3      6.139      8.743
REMARK  Name = 854026
REMARK  1 active torsions:
REMARK  status: ('A' for Active; 'I' for Inactive)
REMARK    1  A    between atoms: C_3  and  N_19
REMARK                            x       y       z     vdW  Elec       q    Type
REMARK                         _______ _______ _______ _____ _____    ______ ____
ROOT
ATOM      1  O   UNL     1      32.981 -13.728 -20.258  0.00  0.00    -0.270 OA
ATOM      2  N   UNL     1      34.365 -15.543 -20.601  0.00  0.00    -0.284 N 
ATOM      3  C   UNL     1      33.621 -19.223 -21.249  0.00  0.00    -0.009 C 
ATOM      4  C   UNL     1      36.069 -18.781 -21.587  0.00  0.00    +0.043 C 
ATOM      5  C   UNL     1      35.048 -19.660 -20.893  0.00  0.00    -0.059 C 
ATOM      6  C   UNL     1      33.447 -19.509 -22.775  0.00  0.00    +0.009 C 
ATOM      7  C   UNL     1      33.467 -17.706 -20.993  0.00  0.00    -0.028 C 
ATOM      8  C   UNL     1      35.965 -17.369 -20.976  0.00  0.00    +0.049 C 
ATOM      9  C   UNL     1      34.536 -16.890 -20.848  0.00  0.00    +0.023 C 
ATOM     10  C   UNL     1      34.627 -19.077 -23.630  0.00  0.00    -0.049 C 
ATOM     11  C   UNL     1      35.809 -18.737 -23.081  0.00  0.00    -0.031 C 
ATOM     12  C   UNL     1      35.418 -20.660 -20.079  0.00  0.00    -0.036 C 
ATOM     13  C   UNL     1      32.139 -17.114 -20.921  0.00  0.00    -0.000 C 
ATOM     14  C   UNL     1      34.400 -19.050 -25.111  0.00  0.00    +0.026 C 
ATOM     15  C   UNL     1      31.955 -15.810 -20.680  0.00  0.00    +0.058 C 
ATOM     16  C   UNL     1      33.133 -14.925 -20.489  0.00  0.00    +0.249 C 
ATOM     17  C   UNL     1      36.836 -21.003 -19.778  0.00  0.00    +0.030 C 
ATOM     18  H   UNL     1      35.171 -14.988 -20.497  0.00  0.00    +0.155 HD
ENDROOT
BRANCH   3  19
ATOM     19  N   UNL     1      32.606 -20.001 -20.511  0.00  0.00    +0.388 N 
ATOM     20  H   UNL     1      32.174 -20.679 -21.140  0.00  0.00    -0.088 HD
ATOM     21  H   UNL     1      31.891 -19.370 -20.150  0.00  0.00    -0.088 HD
ATOM     22  H   UNL     1      33.050 -20.492 -19.736  0.00  0.00    -0.088 HD
ENDBRANCH   3  19
TORSDOF 1
ENDMDL
MODEL 6
REMARK VINA RESULT:      -6.3      3.040      4.954
REMARK  Name = 854026
REMARK  1 active torsions:
REMARK  status: ('A' for Active; 'I' for Inactive)
REMARK    1  A    between atoms: C_3  and  N_19
REMARK                            x       y       z     vdW  Elec       q    Type
REMARK                         _______ _______ _______ _____ _____    ______ ____
ROOT
ATOM      1  O   UNL     1      40.799 -27.156 -14.625  0.00  0.00    -0.270 OA
ATOM      2  N   UNL     1      38.615 -26.465 -14.916  0.00  0.00    -0.284 N 
ATOM      3  C   UNL     1      36.690 -23.474 -13.551  0.00  0.00    -0.009 C 
ATOM      4  C   UNL     1      35.317 -24.640 -15.300  0.00  0.00    +0.043 C 
ATOM      5  C   UNL     1      35.327 -24.093 -13.886  0.00  0.00    -0.059 C 
ATOM      6  C   UNL     1      36.841 -22.227 -14.482  0.00  0.00    +0.009 C 
ATOM      7  C   UNL     1      37.812 -24.490 -13.873  0.00  0.00    -0.028 C 
ATOM      8  C   UNL     1      36.277 -25.846 -15.342  0.00  0.00    +0.049 C 
ATOM      9  C   UNL     1      37.600 -25.567 -14.663  0.00  0.00    +0.023 C 
ATOM     10  C   UNL     1      36.433 -22.471 -15.925  0.00  0.00    -0.049 C 
ATOM     11  C   UNL     1      35.752 -23.575 -16.288  0.00  0.00    -0.031 C 
ATOM     12  C   UNL     1      34.253 -24.187 -13.088  0.00  0.00    -0.036 C 
ATOM     13  C   UNL     1      39.149 -24.288 -13.334  0.00  0.00    -0.000 C 
ATOM     14  C   UNL     1      36.831 -21.419 -16.915  0.00  0.00    +0.026 C 
ATOM     15  C   UNL     1      40.145 -25.151 -13.567  0.00  0.00    +0.058 C 
ATOM     16  C   UNL     1      39.897 -26.350 -14.410  0.00  0.00    +0.249 C 
ATOM     17  C   UNL     1      32.970 -24.823 -13.495  0.00  0.00    +0.030 C 
ATOM     18  H   UNL     1      38.415 -27.237 -15.492  0.00  0.00    +0.155 HD
ENDROOT
BRANCH   3  19
ATOM     19  N   UNL     1      36.760 -23.019 -12.149  0.00  0.00    +0.388 N 
ATOM     20  H   UNL     1      37.380 -23.635 -11.622  0.00  0.00    -0.088 HD
ATOM     21  H   UNL     1      35.827 -23.045 -11.736  0.00  0.00    -0.088 HD
ATOM     22  H   UNL     1      37.120 -22.066 -12.117  0.00  0.00    -0.088 HD
ENDBRANCH   3  19
TORSDOF 1
ENDMDL
MODEL 7
REMARK VINA RESULT:      -5.9     16.155     18.366
REMARK  Name = 854026
REMARK  1 active torsions:
REMARK  status: ('A' for Active; 'I' for Inactive)
REMARK    1  A    between atoms: C_3  and  N_19
REMARK                            x       y       z     vdW  Elec       q    Type
REMARK                         _______ _______ _______ _____ _____    ______ ____
ROOT
ATOM      1  O   UNL     1      30.061  -4.151 -25.086  0.00  0.00    -0.270 OA
ATOM      2  N   UNL     1      30.631  -6.331 -24.584  0.00  0.00    -0.284 N 
ATOM      3  C   UNL     1      33.718  -7.838 -22.936  0.00  0.00    -0.009 C 
ATOM      4  C   UNL     1      31.946  -9.598 -23.187  0.00  0.00    +0.043 C 
ATOM      5  C   UNL     1      33.399  -9.252 -23.440  0.00  0.00    -0.059 C 
ATOM      6  C   UNL     1      33.567  -7.888 -21.381  0.00  0.00    +0.009 C 
ATOM      7  C   UNL     1      32.690  -6.839 -23.517  0.00  0.00    -0.028 C 
ATOM      8  C   UNL     1      31.083  -8.694 -24.090  0.00  0.00    +0.049 C 
ATOM      9  C   UNL     1      31.518  -7.246 -24.056  0.00  0.00    +0.023 C 
ATOM     10  C   UNL     1      32.329  -8.624 -20.897  0.00  0.00    -0.049 C 
ATOM     11  C   UNL     1      31.593  -9.388 -21.727  0.00  0.00    -0.031 C 
ATOM     12  C   UNL     1      34.233 -10.112 -24.044  0.00  0.00    -0.036 C 
ATOM     13  C   UNL     1      32.966  -5.410 -23.476  0.00  0.00    -0.000 C 
ATOM     14  C   UNL     1      31.975  -8.449 -19.451  0.00  0.00    +0.026 C 
ATOM     15  C   UNL     1      32.117  -4.509 -23.986  0.00  0.00    +0.058 C 
ATOM     16  C   UNL     1      30.845  -4.965 -24.606  0.00  0.00    +0.249 C 
ATOM     17  C   UNL     1      33.829 -11.465 -24.517  0.00  0.00    +0.030 C 
ATOM     18  H   UNL     1      29.792  -6.672 -24.970  0.00  0.00    +0.155 HD
ENDROOT
BRANCH   3  19
ATOM     19  N   UNL     1      35.102  -7.437 -23.257  0.00  0.00    +0.388 N 
ATOM     20  H   UNL     1      35.749  -7.913 -22.627  0.00  0.00    -0.088 HD
ATOM     21  H   UNL     1      35.199  -6.428 -23.142  0.00  0.00    -0.088 HD
ATOM     22  H   UNL     1      35.316  -7.692 -24.221  0.00  0.00    -0.088 HD
ENDBRANCH   3  19
TORSDOF 1
ENDMDL
MODEL 8
REMARK VINA RESULT:      -5.6     15.966     18.507
REMARK  Name = 854026
REMARK  1 active torsions:
REMARK  status: ('A' for Active; 'I' for Inactive)
REMARK    1  A    between atoms: C_3  and  N_19
REMARK                            x       y       z     vdW  Elec       q    Type
REMARK                         _______ _______ _______ _____ _____    ______ ____
ROOT
ATOM      1  O   UNL     1      31.080  -2.633 -23.311  0.00  0.00    -0.270 OA
ATOM      2  N   UNL     1      31.852  -4.515 -22.222  0.00  0.00    -0.284 N 
ATOM      3  C   UNL     1      31.500  -8.228 -23.001  0.00  0.00    -0.009 C 
ATOM      4  C   UNL     1      33.139  -7.906 -21.126  0.00  0.00    +0.043 C 
ATOM      5  C   UNL     1      31.898  -8.649 -21.580  0.00  0.00    -0.059 C 
ATOM      6  C   UNL     1      32.649  -8.725 -23.937  0.00  0.00    +0.009 C 
ATOM      7  C   UNL     1      31.411  -6.686 -23.077  0.00  0.00    -0.028 C 
ATOM      8  C   UNL     1      32.763  -6.419 -20.966  0.00  0.00    +0.049 C 
ATOM      9  C   UNL     1      31.966  -5.888 -22.136  0.00  0.00    +0.023 C 
ATOM     10  C   UNL     1      34.047  -8.453 -23.409  0.00  0.00    -0.049 C 
ATOM     11  C   UNL     1      34.258  -8.070 -22.135  0.00  0.00    -0.031 C 
ATOM     12  C   UNL     1      31.275  -9.532 -20.784  0.00  0.00    -0.036 C 
ATOM     13  C   UNL     1      30.729  -6.054 -24.196  0.00  0.00    -0.000 C 
ATOM     14  C   UNL     1      35.172  -8.632 -24.384  0.00  0.00    +0.026 C 
ATOM     15  C   UNL     1      30.607  -4.724 -24.294  0.00  0.00    +0.058 C 
ATOM     16  C   UNL     1      31.191  -3.853 -23.240  0.00  0.00    +0.249 C 
ATOM     17  C   UNL     1      31.726  -9.867 -19.404  0.00  0.00    +0.030 C 
ATOM     18  H   UNL     1      32.267  -3.973 -21.513  0.00  0.00    +0.155 HD
ENDROOT
BRANCH   3  19
ATOM     19  N   UNL     1      30.240  -8.864 -23.432  0.00  0.00    +0.388 N 
ATOM     20  H   UNL     1      30.339  -9.201 -24.391  0.00  0.00    -0.088 HD
ATOM     21  H   UNL     1      29.483  -8.182 -23.390  0.00  0.00    -0.088 HD
ATOM     22  H   UNL     1      30.026  -9.649 -22.817  0.00  0.00    -0.088 HD
ENDBRANCH   3  19
TORSDOF 1
ENDMDL
MODEL 9
REMARK VINA RESULT:      -5.6      7.861      9.906
REMARK  Name = 854026
REMARK  1 active torsions:
REMARK  status: ('A' for Active; 'I' for Inactive)
REMARK    1  A    between atoms: C_3  and  N_19
REMARK                            x       y       z     vdW  Elec       q    Type
REMARK                         _______ _______ _______ _____ _____    ______ ____
ROOT
ATOM      1  O   UNL     1      33.866 -13.064 -24.062  0.00  0.00    -0.270 OA
ATOM      2  N   UNL     1      33.999 -14.874 -22.636  0.00  0.00    -0.284 N 
ATOM      3  C   UNL     1      34.511 -18.593 -23.287  0.00  0.00    -0.009 C 
ATOM      4  C   UNL     1      34.673 -18.133 -20.825  0.00  0.00    +0.043 C 
ATOM      5  C   UNL     1      34.018 -18.990 -21.889  0.00  0.00    -0.059 C 
ATOM      6  C   UNL     1      36.029 -18.960 -23.333  0.00  0.00    +0.009 C 
ATOM      7  C   UNL     1      34.348 -17.066 -23.477  0.00  0.00    -0.028 C 
ATOM      8  C   UNL     1      34.147 -16.693 -20.992  0.00  0.00    +0.049 C 
ATOM      9  C   UNL     1      34.161 -16.229 -22.432  0.00  0.00    +0.023 C 
ATOM     10  C   UNL     1      36.807 -18.555 -22.092  0.00  0.00    -0.049 C 
ATOM     11  C   UNL     1      36.183 -18.170 -20.962  0.00  0.00    -0.031 C 
ATOM     12  C   UNL     1      33.125 -19.941 -21.576  0.00  0.00    -0.036 C 
ATOM     13  C   UNL     1      34.415 -16.491 -24.813  0.00  0.00    -0.000 C 
ATOM     14  C   UNL     1      38.301 -18.608 -22.198  0.00  0.00    +0.026 C 
ATOM     15  C   UNL     1      34.259 -15.179 -25.029  0.00  0.00    +0.058 C 
ATOM     16  C   UNL     1      34.020 -14.268 -23.879  0.00  0.00    +0.249 C 
ATOM     17  C   UNL     1      32.693 -20.247 -20.184  0.00  0.00    +0.030 C 
ATOM     18  H   UNL     1      33.861 -14.302 -21.847  0.00  0.00    +0.155 HD
ENDROOT
BRANCH   3  19
ATOM     19  N   UNL     1      33.818 -19.346 -24.351  0.00  0.00    +0.388 N 
ATOM     20  H   UNL     1      33.897 -18.840 -25.233  0.00  0.00    -0.088 HD
ATOM     21  H   UNL     1      32.833 -19.450 -24.107  0.00  0.00    -0.088 HD
ATOM     22  H   UNL     1      34.243 -20.268 -24.448  0.00  0.00    -0.088 HD
ENDBRANCH   3  19
TORSDOF 1
ENDMDL
