MODEL 1
REMARK VINA RESULT:      -7.7      0.000      0.000
REMARK  Name = 62751
REMARK  2 active torsions:
REMARK  status: ('A' for Active; 'I' for Inactive)
REMARK    1  A    between atoms: C_1  and  N_7
REMARK    2  A    between atoms: C_1  and  C_15
REMARK                            x       y       z     vdW  Elec       q    Type
REMARK                         _______ _______ _______ _____ _____    ______ ____
ROOT
ATOM      1  C   UNL     1      32.275  -8.251 -22.889  0.00  0.00    -0.017 C 
ATOM      2  C   UNL     1      31.135  -7.711 -23.799  0.00  0.00    -0.014 C 
ATOM      3  C   UNL     1      33.023  -7.030 -22.281  0.00  0.00    -0.014 C 
ATOM      4  C   UNL     1      30.213  -6.699 -23.111  0.00  0.00    -0.002 C 
ATOM      5  C   UNL     1      32.105  -6.008 -21.603  0.00  0.00    -0.002 C 
ATOM      6  C   UNL     1      31.001  -5.530 -22.536  0.00  0.00    -0.000 C 
ENDROOT
BRANCH   1   7
ATOM      7  N   UNL     1      31.634  -8.998 -21.808  0.00  0.00    +0.392 N 
ATOM      8  C   UNL     1      31.313 -10.363 -22.248  0.00  0.00    -0.077 C 
ATOM      9  C   UNL     1      32.492  -9.013 -20.614  0.00  0.00    -0.077 C 
ATOM     10  C   UNL     1      30.598 -11.145 -21.144  0.00  0.00    -0.023 C 
ATOM     11  C   UNL     1      31.815  -9.750 -19.458  0.00  0.00    -0.023 C 
ATOM     12  C   UNL     1      31.418 -11.166 -19.859  0.00  0.00    -0.004 C 
ATOM     13  H   UNL     1      30.760  -8.534 -21.562  0.00  0.00    -0.079 HD
ENDBRANCH   1   7
BRANCH   1  15
ATOM     14  S   UNL     1      34.819  -8.558 -24.031  0.00  0.00    -0.093 S 
ATOM     15  C   UNL     1      33.273  -9.165 -23.626  0.00  0.00    -0.011 C 
ATOM     16  C   UNL     1      33.096 -10.464 -24.029  0.00  0.00    +0.001 C 
ATOM     17  C   UNL     1      34.253 -10.977 -24.686  0.00  0.00    +0.007 C 
ATOM     18  C   UNL     1      35.265 -10.044 -24.754  0.00  0.00    +0.035 C 
ENDBRANCH   1  15
TORSDOF 2
ENDMDL
MODEL 2
REMARK VINA RESULT:      -7.7      1.511      4.357
REMARK  Name = 62751
REMARK  2 active torsions:
REMARK  status: ('A' for Active; 'I' for Inactive)
REMARK    1  A    between atoms: C_1  and  N_7
REMARK    2  A    between atoms: C_1  and  C_15
REMARK                            x       y       z     vdW  Elec       q    Type
REMARK                         _______ _______ _______ _____ _____    ______ ____
ROOT
ATOM      1  C   UNL     1      31.818  -8.817 -22.138  0.00  0.00    -0.017 C 
ATOM      2  C   UNL     1      30.717  -9.905 -22.290  0.00  0.00    -0.014 C 
ATOM      3  C   UNL     1      32.049  -8.576 -20.618  0.00  0.00    -0.014 C 
ATOM      4  C   UNL     1      30.989 -11.185 -21.494  0.00  0.00    -0.002 C 
ATOM      5  C   UNL     1      32.308  -9.854 -19.815  0.00  0.00    -0.002 C 
ATOM      6  C   UNL     1      31.207 -10.885 -20.017  0.00  0.00    -0.000 C 
ENDROOT
BRANCH   1   7
ATOM      7  N   UNL     1      33.041  -9.370 -22.719  0.00  0.00    +0.392 N 
ATOM      8  C   UNL     1      32.718 -10.451 -23.660  0.00  0.00    -0.077 C 
ATOM      9  C   UNL     1      33.822  -8.311 -23.374  0.00  0.00    -0.077 C 
ATOM     10  C   UNL     1      33.989 -11.073 -24.242  0.00  0.00    -0.023 C 
ATOM     11  C   UNL     1      35.128  -8.864 -23.946  0.00  0.00    -0.023 C 
ATOM     12  C   UNL     1      34.870 -10.021 -24.904  0.00  0.00    -0.004 C 
ATOM     13  H   UNL     1      33.610  -9.764 -21.971  0.00  0.00    -0.079 HD
ENDBRANCH   1   7
BRANCH   1  15
ATOM     14  S   UNL     1      31.610  -6.025 -21.958  0.00  0.00    -0.093 S 
ATOM     15  C   UNL     1      31.473  -7.486 -22.834  0.00  0.00    -0.011 C 
ATOM     16  C   UNL     1      31.046  -7.289 -24.123  0.00  0.00    +0.001 C 
ATOM     17  C   UNL     1      30.826  -5.908 -24.402  0.00  0.00    +0.007 C 
ATOM     18  C   UNL     1      31.096  -5.111 -23.311  0.00  0.00    +0.035 C 
ENDBRANCH   1  15
TORSDOF 2
ENDMDL
MODEL 3
REMARK VINA RESULT:      -7.1      1.559      4.055
REMARK  Name = 62751
REMARK  2 active torsions:
REMARK  status: ('A' for Active; 'I' for Inactive)
REMARK    1  A    between atoms: C_1  and  N_7
REMARK    2  A    between atoms: C_1  and  C_15
REMARK                            x       y       z     vdW  Elec       q    Type
REMARK                         _______ _______ _______ _____ _____    ______ ____
ROOT
ATOM      1  C   UNL     1      31.927  -8.372 -22.695  0.00  0.00    -0.017 C 
ATOM      2  C   UNL     1      32.535  -7.000 -22.288  0.00  0.00    -0.014 C 
ATOM      3  C   UNL     1      30.550  -8.107 -23.369  0.00  0.00    -0.014 C 
ATOM      4  C   UNL     1      32.590  -5.978 -23.428  0.00  0.00    -0.002 C 
ATOM      5  C   UNL     1      30.597  -7.076 -24.501  0.00  0.00    -0.002 C 
ATOM      6  C   UNL     1      31.216  -5.762 -24.048  0.00  0.00    -0.000 C 
ENDROOT
BRANCH   1   7
ATOM      7  N   UNL     1      32.831  -8.958 -23.684  0.00  0.00    +0.392 N 
ATOM      8  C   UNL     1      34.206  -8.489 -23.463  0.00  0.00    -0.077 C 
ATOM      9  C   UNL     1      32.758 -10.426 -23.641  0.00  0.00    -0.077 C 
ATOM     10  C   UNL     1      35.158  -9.055 -24.519  0.00  0.00    -0.023 C 
ATOM     11  C   UNL     1      33.662 -11.054 -24.702  0.00  0.00    -0.023 C 
ATOM     12  C   UNL     1      35.103 -10.578 -24.557  0.00  0.00    -0.004 C 
ATOM     13  H   UNL     1      32.541  -8.656 -24.613  0.00  0.00    -0.079 HD
ENDBRANCH   1   7
BRANCH   1  15
ATOM     14  S   UNL     1      32.288  -8.878 -19.960  0.00  0.00    -0.093 S 
ATOM     15  C   UNL     1      31.754  -9.347 -21.514  0.00  0.00    -0.011 C 
ATOM     16  C   UNL     1      31.206 -10.605 -21.525  0.00  0.00    +0.001 C 
ATOM     17  C   UNL     1      31.223 -11.201 -20.230  0.00  0.00    +0.007 C 
ATOM     18  C   UNL     1      31.784 -10.370 -19.286  0.00  0.00    +0.035 C 
ENDBRANCH   1  15
TORSDOF 2
ENDMDL
MODEL 4
REMARK VINA RESULT:      -6.9      1.081      3.925
REMARK  Name = 62751
REMARK  2 active torsions:
REMARK  status: ('A' for Active; 'I' for Inactive)
REMARK    1  A    between atoms: C_1  and  N_7
REMARK    2  A    between atoms: C_1  and  C_15
REMARK                            x       y       z     vdW  Elec       q    Type
REMARK                         _______ _______ _______ _____ _____    ______ ____
ROOT
ATOM      1  C   UNL     1      32.315  -9.560 -22.137  0.00  0.00    -0.017 C 
ATOM      2  C   UNL     1      32.878  -9.359 -20.701  0.00  0.00    -0.014 C 
ATOM      3  C   UNL     1      31.433 -10.841 -22.132  0.00  0.00    -0.014 C 
ATOM      4  C   UNL     1      31.810  -9.370 -19.603  0.00  0.00    -0.002 C 
ATOM      5  C   UNL     1      30.371 -10.865 -21.028  0.00  0.00    -0.002 C 
ATOM      6  C   UNL     1      30.979 -10.646 -19.650  0.00  0.00    -0.000 C 
ENDROOT
BRANCH   1   7
ATOM      7  N   UNL     1      31.467  -8.403 -22.423  0.00  0.00    +0.392 N 
ATOM      8  C   UNL     1      31.978  -7.209 -21.738  0.00  0.00    -0.077 C 
ATOM      9  C   UNL     1      31.372  -8.184 -23.874  0.00  0.00    -0.077 C 
ATOM     10  C   UNL     1      31.075  -6.000 -21.989  0.00  0.00    -0.023 C 
ATOM     11  C   UNL     1      30.448  -7.007 -24.193  0.00  0.00    -0.023 C 
ATOM     12  C   UNL     1      30.899  -5.738 -23.480  0.00  0.00    -0.004 C 
ATOM     13  H   UNL     1      30.529  -8.590 -22.071  0.00  0.00    -0.079 HD
ENDBRANCH   1   7
BRANCH   1  15
ATOM     14  S   UNL     1      33.564 -11.140 -24.089  0.00  0.00    -0.093 S 
ATOM     15  C   UNL     1      33.407  -9.678 -23.218  0.00  0.00    -0.011 C 
ATOM     16  C   UNL     1      34.324  -8.734 -23.605  0.00  0.00    +0.001 C 
ATOM     17  C   UNL     1      35.175  -9.217 -24.641  0.00  0.00    +0.007 C 
ATOM     18  C   UNL     1      34.871 -10.512 -24.999  0.00  0.00    +0.035 C 
ENDBRANCH   1  15
TORSDOF 2
ENDMDL
MODEL 5
REMARK VINA RESULT:      -6.8      7.753      9.900
REMARK  Name = 62751
REMARK  2 active torsions:
REMARK  status: ('A' for Active; 'I' for Inactive)
REMARK    1  A    between atoms: C_1  and  N_7
REMARK    2  A    between atoms: C_1  and  C_15
REMARK                            x       y       z     vdW  Elec       q    Type
REMARK                         _______ _______ _______ _____ _____    ______ ____
ROOT
ATOM      1  C   UNL     1      34.244 -17.469 -21.272  0.00  0.00    -0.017 C 
ATOM      2  C   UNL     1      34.965 -16.169 -20.814  0.00  0.00    -0.014 C 
ATOM      3  C   UNL     1      32.833 -17.493 -20.616  0.00  0.00    -0.014 C 
ATOM      4  C   UNL     1      34.154 -14.890 -21.042  0.00  0.00    -0.002 C 
ATOM      5  C   UNL     1      32.023 -16.212 -20.830  0.00  0.00    -0.002 C 
ATOM      6  C   UNL     1      32.785 -14.974 -20.379  0.00  0.00    -0.000 C 
ENDROOT
BRANCH   1   7
ATOM      7  N   UNL     1      34.088 -17.375 -22.724  0.00  0.00    +0.392 N 
ATOM      8  C   UNL     1      34.941 -16.308 -23.264  0.00  0.00    -0.077 C 
ATOM      9  C   UNL     1      34.388 -18.668 -23.356  0.00  0.00    -0.077 C 
ATOM     10  C   UNL     1      34.755 -16.165 -24.775  0.00  0.00    -0.023 C 
ATOM     11  C   UNL     1      34.183 -18.600 -24.870  0.00  0.00    -0.023 C 
ATOM     12  C   UNL     1      35.012 -17.484 -25.494  0.00  0.00    -0.004 C 
ATOM     13  H   UNL     1      33.119 -17.139 -22.934  0.00  0.00    -0.079 HD
ENDBRANCH   1   7
BRANCH   1  15
ATOM     14  S   UNL     1      34.132 -20.154 -20.470  0.00  0.00    -0.093 S 
ATOM     15  C   UNL     1      35.010 -18.758 -20.919  0.00  0.00    -0.011 C 
ATOM     16  C   UNL     1      36.366 -18.964 -20.908  0.00  0.00    +0.001 C 
ATOM     17  C   UNL     1      36.696 -20.296 -20.524  0.00  0.00    +0.007 C 
ATOM     18  C   UNL     1      35.575 -21.051 -20.258  0.00  0.00    +0.035 C 
ENDBRANCH   1  15
TORSDOF 2
ENDMDL
MODEL 6
REMARK VINA RESULT:      -6.8      7.620      9.935
REMARK  Name = 62751
REMARK  2 active torsions:
REMARK  status: ('A' for Active; 'I' for Inactive)
REMARK    1  A    between atoms: C_1  and  N_7
REMARK    2  A    between atoms: C_1  and  C_15
REMARK                            x       y       z     vdW  Elec       q    Type
REMARK                         _______ _______ _______ _____ _____    ______ ____
ROOT
ATOM      1  C   UNL     1      34.826 -18.320 -22.020  0.00  0.00    -0.017 C 
ATOM      2  C   UNL     1      36.291 -18.608 -21.582  0.00  0.00    -0.014 C 
ATOM      3  C   UNL     1      34.010 -19.636 -21.862  0.00  0.00    -0.014 C 
ATOM      4  C   UNL     1      36.414 -19.250 -20.197  0.00  0.00    -0.002 C 
ATOM      5  C   UNL     1      34.140 -20.290 -20.484  0.00  0.00    -0.002 C 
ATOM      6  C   UNL     1      35.594 -20.530 -20.103  0.00  0.00    -0.000 C 
ENDROOT
BRANCH   1   7
ATOM      7  N   UNL     1      34.296 -17.322 -21.092  0.00  0.00    +0.392 N 
ATOM      8  C   UNL     1      35.027 -16.055 -21.229  0.00  0.00    -0.077 C 
ATOM      9  C   UNL     1      32.855 -17.130 -21.312  0.00  0.00    -0.077 C 
ATOM     10  C   UNL     1      34.517 -15.013 -20.232  0.00  0.00    -0.023 C 
ATOM     11  C   UNL     1      32.275 -16.124 -20.317  0.00  0.00    -0.023 C 
ATOM     12  C   UNL     1      33.016 -14.793 -20.377  0.00  0.00    -0.004 C 
ATOM     13  H   UNL     1      34.427 -17.658 -20.139  0.00  0.00    -0.079 HD
ENDBRANCH   1   7
BRANCH   1  15
ATOM     14  S   UNL     1      34.341 -18.896 -24.722  0.00  0.00    -0.093 S 
ATOM     15  C   UNL     1      34.704 -17.797 -23.465  0.00  0.00    -0.011 C 
ATOM     16  C   UNL     1      34.854 -16.510 -23.916  0.00  0.00    +0.001 C 
ATOM     17  C   UNL     1      34.667 -16.420 -25.327  0.00  0.00    +0.007 C 
ATOM     18  C   UNL     1      34.381 -17.644 -25.890  0.00  0.00    +0.035 C 
ENDBRANCH   1  15
TORSDOF 2
ENDMDL
MODEL 7
REMARK VINA RESULT:      -6.4     15.781     18.286
REMARK  Name = 62751
REMARK  2 active torsions:
REMARK  status: ('A' for Active; 'I' for Inactive)
REMARK    1  A    between atoms: C_1  and  N_7
REMARK    2  A    between atoms: C_1  and  C_15
REMARK                            x       y       z     vdW  Elec       q    Type
REMARK                         _______ _______ _______ _____ _____    ______ ____
ROOT
ATOM      1  C   UNL     1      36.522 -23.725 -13.720  0.00  0.00    -0.017 C 
ATOM      2  C   UNL     1      35.171 -24.255 -13.161  0.00  0.00    -0.014 C 
ATOM      3  C   UNL     1      37.090 -22.692 -12.704  0.00  0.00    -0.014 C 
ATOM      4  C   UNL     1      35.251 -24.780 -11.725  0.00  0.00    -0.002 C 
ATOM      5  C   UNL     1      37.160 -23.206 -11.263  0.00  0.00    -0.002 C 
ATOM      6  C   UNL     1      35.814 -23.727 -10.779  0.00  0.00    -0.000 C 
ENDROOT
BRANCH   1   7
ATOM      7  N   UNL     1      37.430 -24.869 -13.786  0.00  0.00    +0.392 N 
ATOM      8  C   UNL     1      37.120 -25.703 -14.956  0.00  0.00    -0.077 C 
ATOM      9  C   UNL     1      38.828 -24.415 -13.813  0.00  0.00    -0.077 C 
ATOM     10  C   UNL     1      38.030 -26.931 -15.014  0.00  0.00    -0.023 C 
ATOM     11  C   UNL     1      39.792 -25.602 -13.833  0.00  0.00    -0.023 C 
ATOM     12  C   UNL     1      39.501 -26.534 -15.004  0.00  0.00    -0.004 C 
ATOM     13  H   UNL     1      37.300 -25.439 -12.951  0.00  0.00    -0.079 HD
ENDBRANCH   1   7
BRANCH   1  15
ATOM     14  S   UNL     1      34.921 -23.178 -15.957  0.00  0.00    -0.093 S 
ATOM     15  C   UNL     1      36.404 -23.079 -15.114  0.00  0.00    -0.011 C 
ATOM     16  C   UNL     1      37.366 -22.401 -15.820  0.00  0.00    +0.001 C 
ATOM     17  C   UNL     1      36.878 -21.951 -17.081  0.00  0.00    +0.007 C 
ATOM     18  C   UNL     1      35.562 -22.305 -17.283  0.00  0.00    +0.035 C 
ENDBRANCH   1  15
TORSDOF 2
ENDMDL
MODEL 8
REMARK VINA RESULT:      -6.3     15.568     18.147
REMARK  Name = 62751
REMARK  2 active torsions:
REMARK  status: ('A' for Active; 'I' for Inactive)
REMARK    1  A    between atoms: C_1  and  N_7
REMARK    2  A    between atoms: C_1  and  C_15
REMARK                            x       y       z     vdW  Elec       q    Type
REMARK                         _______ _______ _______ _____ _____    ______ ____
ROOT
ATOM      1  C   UNL     1      36.394 -23.365 -14.738  0.00  0.00    -0.017 C 
ATOM      2  C   UNL     1      37.185 -22.163 -15.329  0.00  0.00    -0.014 C 
ATOM      3  C   UNL     1      34.950 -23.321 -15.315  0.00  0.00    -0.014 C 
ATOM      4  C   UNL     1      37.131 -22.070 -16.857  0.00  0.00    -0.002 C 
ATOM      5  C   UNL     1      34.890 -23.214 -16.841  0.00  0.00    -0.002 C 
ATOM      6  C   UNL     1      35.694 -22.031 -17.361  0.00  0.00    -0.000 C 
ENDROOT
BRANCH   1   7
ATOM      7  N   UNL     1      37.055 -24.580 -15.214  0.00  0.00    +0.392 N 
ATOM      8  C   UNL     1      38.353 -24.754 -14.547  0.00  0.00    -0.077 C 
ATOM      9  C   UNL     1      36.190 -25.750 -15.006  0.00  0.00    -0.077 C 
ATOM     10  C   UNL     1      39.079 -25.995 -15.068  0.00  0.00    -0.023 C 
ATOM     11  C   UNL     1      36.846 -27.023 -15.542  0.00  0.00    -0.023 C 
ATOM     12  C   UNL     1      38.220 -27.245 -14.920  0.00  0.00    -0.004 C 
ATOM     13  H   UNL     1      37.226 -24.490 -16.215  0.00  0.00    -0.079 HD
ENDBRANCH   1   7
BRANCH   1  15
ATOM     14  S   UNL     1      35.033 -24.136 -12.410  0.00  0.00    -0.093 S 
ATOM     15  C   UNL     1      36.345 -23.376 -13.198  0.00  0.00    -0.011 C 
ATOM     16  C   UNL     1      37.246 -22.834 -12.316  0.00  0.00    +0.001 C 
ATOM     17  C   UNL     1      36.854 -23.046 -10.962  0.00  0.00    +0.007 C 
ATOM     18  C   UNL     1      35.669 -23.742 -10.870  0.00  0.00    +0.035 C 
ENDBRANCH   1  15
TORSDOF 2
ENDMDL
MODEL 9
REMARK VINA RESULT:      -6.2     15.917     18.225
REMARK  Name = 62751
REMARK  2 active torsions:
REMARK  status: ('A' for Active; 'I' for Inactive)
REMARK    1  A    between atoms: C_1  and  N_7
REMARK    2  A    between atoms: C_1  and  C_15
REMARK                            x       y       z     vdW  Elec       q    Type
REMARK                         _______ _______ _______ _____ _____    ______ ____
ROOT
ATOM      1  C   UNL     1      36.793 -24.152 -14.877  0.00  0.00    -0.017 C 
ATOM      2  C   UNL     1      35.640 -25.045 -15.417  0.00  0.00    -0.014 C 
ATOM      3  C   UNL     1      36.909 -22.906 -15.802  0.00  0.00    -0.014 C 
ATOM      4  C   UNL     1      34.317 -24.302 -15.622  0.00  0.00    -0.002 C 
ATOM      5  C   UNL     1      35.587 -22.166 -16.022  0.00  0.00    -0.002 C 
ATOM      6  C   UNL     1      34.494 -23.094 -16.533  0.00  0.00    -0.000 C 
ENDROOT
BRANCH   1   7
ATOM      7  N   UNL     1      36.396 -23.712 -13.540  0.00  0.00    +0.392 N 
ATOM      8  C   UNL     1      35.713 -24.798 -12.824  0.00  0.00    -0.077 C 
ATOM      9  C   UNL     1      37.565 -23.232 -12.789  0.00  0.00    -0.077 C 
ATOM     10  C   UNL     1      35.249 -24.340 -11.440  0.00  0.00    -0.023 C 
ATOM     11  C   UNL     1      37.159 -22.723 -11.405  0.00  0.00    -0.023 C 
ATOM     12  C   UNL     1      36.408 -23.791 -10.618  0.00  0.00    -0.004 C 
ATOM     13  H   UNL     1      35.741 -22.936 -13.632  0.00  0.00    -0.079 HD
ENDBRANCH   1   7
BRANCH   1  15
ATOM     14  S   UNL     1      38.207 -26.488 -14.237  0.00  0.00    -0.093 S 
ATOM     15  C   UNL     1      38.152 -24.875 -14.799  0.00  0.00    -0.011 C 
ATOM     16  C   UNL     1      39.392 -24.390 -15.129  0.00  0.00    +0.001 C 
ATOM     17  C   UNL     1      40.413 -25.362 -14.918  0.00  0.00    +0.007 C 
ATOM     18  C   UNL     1      39.907 -26.548 -14.436  0.00  0.00    +0.035 C 
ENDBRANCH   1  15
TORSDOF 2
ENDMDL
