MODEL 1
REMARK VINA RESULT:      -7.6      0.000      0.000
REMARK  Name = 3758
REMARK  2 active torsions:
REMARK  status: ('A' for Active; 'I' for Inactive)
REMARK    1  A    between atoms: N_3  and  C_15
REMARK    2  A    between atoms: C_15  and  C_16
REMARK                            x       y       z     vdW  Elec       q    Type
REMARK                         _______ _______ _______ _____ _____    ______ ____
ROOT
ATOM      1  O   UNL     1      35.175 -16.631 -21.443  0.00  0.00    -0.246 OA
ATOM      2  O   UNL     1      34.594 -18.010 -25.893  0.00  0.00    -0.265 OA
ATOM      3  N   UNL     1      34.119 -15.174 -22.918  0.00  0.00    -0.269 N 
ATOM      4  N   UNL     1      34.898 -17.344 -23.657  0.00  0.00    -0.246 N 
ATOM      5  N   UNL     1      33.286 -15.361 -26.314  0.00  0.00    -0.310 N 
ATOM      6  N   UNL     1      33.043 -13.851 -24.692  0.00  0.00    -0.302 N 
ATOM      7  C   UNL     1      33.676 -14.968 -24.217  0.00  0.00    +0.132 A 
ATOM      8  C   UNL     1      33.838 -15.912 -25.194  0.00  0.00    +0.133 A 
ATOM      9  C   UNL     1      34.760 -16.393 -22.583  0.00  0.00    +0.335 A 
ATOM     10  C   UNL     1      34.462 -17.180 -24.998  0.00  0.00    +0.280 A 
ATOM     11  C   UNL     1      35.557 -18.599 -23.309  0.00  0.00    +0.138 C 
ATOM     12  C   UNL     1      32.820 -14.121 -25.962  0.00  0.00    +0.183 C 
ATOM     13  H   UNL     1      33.232 -15.775 -27.205  0.00  0.00    +0.149 HD
ATOM     14  H   UNL     1      32.807 -13.033 -24.197  0.00  0.00    +0.150 HD
ENDROOT
BRANCH   3  15
ATOM     15  C   UNL     1      33.923 -14.138 -21.911  0.00  0.00    +0.112 C 
BRANCH  15  16
ATOM     16  C   UNL     1      32.513 -14.167 -21.310  0.00  0.00    +0.023 C 
ATOM     17  C   UNL     1      32.050 -12.745 -20.990  0.00  0.00    +0.002 C 
ATOM     18  C   UNL     1      32.455 -15.031 -20.048  0.00  0.00    +0.002 C 
ENDBRANCH  15  16
ENDBRANCH   3  15
TORSDOF 2
ENDMDL
MODEL 2
REMARK VINA RESULT:      -7.6      1.827      4.863
REMARK  Name = 3758
REMARK  2 active torsions:
REMARK  status: ('A' for Active; 'I' for Inactive)
REMARK    1  A    between atoms: N_3  and  C_15
REMARK    2  A    between atoms: C_15  and  C_16
REMARK                            x       y       z     vdW  Elec       q    Type
REMARK                         _______ _______ _______ _____ _____    ______ ____
ROOT
ATOM      1  O   UNL     1      34.318 -16.521 -25.934  0.00  0.00    -0.246 OA
ATOM      2  O   UNL     1      32.383 -13.010 -23.489  0.00  0.00    -0.265 OA
ATOM      3  N   UNL     1      34.656 -16.465 -23.632  0.00  0.00    -0.269 N 
ATOM      4  N   UNL     1      33.341 -14.759 -24.739  0.00  0.00    -0.246 N 
ATOM      5  N   UNL     1      33.622 -14.286 -21.094  0.00  0.00    -0.310 N 
ATOM      6  N   UNL     1      34.843 -16.148 -21.200  0.00  0.00    -0.302 N 
ATOM      7  C   UNL     1      34.403 -15.792 -22.446  0.00  0.00    +0.132 A 
ATOM      8  C   UNL     1      33.650 -14.649 -22.409  0.00  0.00    +0.133 A 
ATOM      9  C   UNL     1      34.125 -15.963 -24.848  0.00  0.00    +0.335 A 
ATOM     10  C   UNL     1      33.055 -14.035 -23.551  0.00  0.00    +0.280 A 
ATOM     11  C   UNL     1      32.794 -14.245 -25.991  0.00  0.00    +0.138 C 
ATOM     12  C   UNL     1      34.353 -15.218 -20.404  0.00  0.00    +0.183 C 
ATOM     13  H   UNL     1      33.164 -13.503 -20.712  0.00  0.00    +0.149 HD
ATOM     14  H   UNL     1      35.398 -16.923 -20.953  0.00  0.00    +0.150 HD
ENDROOT
BRANCH   3  15
ATOM     15  C   UNL     1      35.464 -17.678 -23.621  0.00  0.00    +0.112 C 
BRANCH  15  16
ATOM     16  C   UNL     1      34.611 -18.946 -23.504  0.00  0.00    +0.023 C 
ATOM     17  C   UNL     1      34.905 -19.657 -22.182  0.00  0.00    +0.002 C 
ATOM     18  C   UNL     1      34.855 -19.901 -24.675  0.00  0.00    +0.002 C 
ENDBRANCH  15  16
ENDBRANCH   3  15
TORSDOF 2
ENDMDL
MODEL 3
REMARK VINA RESULT:      -7.4      2.257      4.344
REMARK  Name = 3758
REMARK  2 active torsions:
REMARK  status: ('A' for Active; 'I' for Inactive)
REMARK    1  A    between atoms: N_3  and  C_15
REMARK    2  A    between atoms: C_15  and  C_16
REMARK                            x       y       z     vdW  Elec       q    Type
REMARK                         _______ _______ _______ _____ _____    ______ ____
ROOT
ATOM      1  O   UNL     1      35.074 -16.269 -20.191  0.00  0.00    -0.246 OA
ATOM      2  O   UNL     1      33.825 -15.005 -24.537  0.00  0.00    -0.265 OA
ATOM      3  N   UNL     1      35.079 -17.896 -21.856  0.00  0.00    -0.269 N 
ATOM      4  N   UNL     1      34.447 -15.611 -22.350  0.00  0.00    -0.246 N 
ATOM      5  N   UNL     1      34.315 -17.855 -25.273  0.00  0.00    -0.310 N 
ATOM      6  N   UNL     1      34.991 -19.392 -23.807  0.00  0.00    -0.302 N 
ATOM      7  C   UNL     1      34.847 -18.176 -23.195  0.00  0.00    +0.132 A 
ATOM      8  C   UNL     1      34.432 -17.214 -24.074  0.00  0.00    +0.133 A 
ATOM      9  C   UNL     1      34.883 -16.577 -21.374  0.00  0.00    +0.335 A 
ATOM     10  C   UNL     1      34.197 -15.850 -23.728  0.00  0.00    +0.280 A 
ATOM     11  C   UNL     1      34.247 -14.254 -21.852  0.00  0.00    +0.138 C 
ATOM     12  C   UNL     1      34.662 -19.164 -25.062  0.00  0.00    +0.183 C 
ATOM     13  H   UNL     1      34.034 -17.454 -26.127  0.00  0.00    +0.149 HD
ATOM     14  H   UNL     1      35.276 -20.243 -23.402  0.00  0.00    +0.150 HD
ENDROOT
BRANCH   3  15
ATOM     15  C   UNL     1      35.521 -18.956 -20.957  0.00  0.00    +0.112 C 
BRANCH  15  16
ATOM     16  C   UNL     1      34.518 -20.112 -20.881  0.00  0.00    +0.023 C 
ATOM     17  C   UNL     1      33.115 -19.571 -20.599  0.00  0.00    +0.002 C 
ATOM     18  C   UNL     1      34.910 -21.129 -19.807  0.00  0.00    +0.002 C 
ENDBRANCH  15  16
ENDBRANCH   3  15
TORSDOF 2
ENDMDL
MODEL 4
REMARK VINA RESULT:      -7.4      9.055     11.090
REMARK  Name = 3758
REMARK  2 active torsions:
REMARK  status: ('A' for Active; 'I' for Inactive)
REMARK    1  A    between atoms: N_3  and  C_15
REMARK    2  A    between atoms: C_15  and  C_16
REMARK                            x       y       z     vdW  Elec       q    Type
REMARK                         _______ _______ _______ _____ _____    ______ ____
ROOT
ATOM      1  O   UNL     1      35.491 -23.735 -16.389  0.00  0.00    -0.246 OA
ATOM      2  O   UNL     1      32.341 -23.539 -12.912  0.00  0.00    -0.265 OA
ATOM      3  N   UNL     1      33.277 -23.265 -16.933  0.00  0.00    -0.269 N 
ATOM      4  N   UNL     1      33.940 -23.644 -14.635  0.00  0.00    -0.246 N 
ATOM      5  N   UNL     1      30.346 -22.933 -15.047  0.00  0.00    -0.310 N 
ATOM      6  N   UNL     1      30.879 -22.791 -17.206  0.00  0.00    -0.302 N 
ATOM      7  C   UNL     1      31.987 -23.080 -16.457  0.00  0.00    +0.132 A 
ATOM      8  C   UNL     1      31.687 -23.173 -15.126  0.00  0.00    +0.133 A 
ATOM      9  C   UNL     1      34.323 -23.560 -16.022  0.00  0.00    +0.335 A 
ATOM     10  C   UNL     1      32.637 -23.462 -14.101  0.00  0.00    +0.280 A 
ATOM     11  C   UNL     1      35.018 -23.946 -13.699  0.00  0.00    +0.138 C 
ATOM     12  C   UNL     1      29.903 -22.707 -16.324  0.00  0.00    +0.183 C 
ATOM     13  H   UNL     1      29.800 -22.923 -14.228  0.00  0.00    +0.149 HD
ATOM     14  H   UNL     1      30.822 -22.671 -18.182  0.00  0.00    +0.150 HD
ENDROOT
BRANCH   3  15
ATOM     15  C   UNL     1      33.548 -23.155 -18.362  0.00  0.00    +0.112 C 
BRANCH  15  16
ATOM     16  C   UNL     1      34.107 -21.781 -18.746  0.00  0.00    +0.023 C 
ATOM     17  C   UNL     1      33.136 -21.062 -19.684  0.00  0.00    +0.002 C 
ATOM     18  C   UNL     1      35.482 -21.896 -19.408  0.00  0.00    +0.002 C 
ENDBRANCH  15  16
ENDBRANCH   3  15
TORSDOF 2
ENDMDL
MODEL 5
REMARK VINA RESULT:      -7.3      1.515      3.156
REMARK  Name = 3758
REMARK  2 active torsions:
REMARK  status: ('A' for Active; 'I' for Inactive)
REMARK    1  A    between atoms: N_3  and  C_15
REMARK    2  A    between atoms: C_15  and  C_16
REMARK                            x       y       z     vdW  Elec       q    Type
REMARK                         _______ _______ _______ _____ _____    ______ ____
ROOT
ATOM      1  O   UNL     1      33.024 -13.620 -24.194  0.00  0.00    -0.246 OA
ATOM      2  O   UNL     1      34.553 -17.717 -25.905  0.00  0.00    -0.265 OA
ATOM      3  N   UNL     1      34.081 -15.096 -22.737  0.00  0.00    -0.269 N 
ATOM      4  N   UNL     1      33.777 -15.656 -25.073  0.00  0.00    -0.246 N 
ATOM      5  N   UNL     1      35.495 -18.275 -23.129  0.00  0.00    -0.310 N 
ATOM      6  N   UNL     1      35.227 -16.845 -21.441  0.00  0.00    -0.302 N 
ATOM      7  C   UNL     1      34.701 -16.329 -22.594  0.00  0.00    +0.132 A 
ATOM      8  C   UNL     1      34.851 -17.189 -23.648  0.00  0.00    +0.133 A 
ATOM      9  C   UNL     1      33.586 -14.706 -24.007  0.00  0.00    +0.335 A 
ATOM     10  C   UNL     1      34.404 -16.927 -24.977  0.00  0.00    +0.280 A 
ATOM     11  C   UNL     1      33.267 -15.252 -26.380  0.00  0.00    +0.138 C 
ATOM     12  C   UNL     1      35.700 -18.022 -21.798  0.00  0.00    +0.183 C 
ATOM     13  H   UNL     1      35.761 -19.087 -23.618  0.00  0.00    +0.149 HD
ATOM     14  H   UNL     1      35.249 -16.431 -20.548  0.00  0.00    +0.150 HD
ENDROOT
BRANCH   3  15
ATOM     15  C   UNL     1      33.944 -14.214 -21.585  0.00  0.00    +0.112 C 
BRANCH  15  16
ATOM     16  C   UNL     1      32.513 -14.186 -21.038  0.00  0.00    +0.023 C 
ATOM     17  C   UNL     1      32.162 -12.777 -20.556  0.00  0.00    +0.002 C 
ATOM     18  C   UNL     1      32.324 -15.189 -19.897  0.00  0.00    +0.002 C 
ENDBRANCH  15  16
ENDBRANCH   3  15
TORSDOF 2
ENDMDL
MODEL 6
REMARK VINA RESULT:      -7.3      1.852      4.120
REMARK  Name = 3758
REMARK  2 active torsions:
REMARK  status: ('A' for Active; 'I' for Inactive)
REMARK    1  A    between atoms: N_3  and  C_15
REMARK    2  A    between atoms: C_15  and  C_16
REMARK                            x       y       z     vdW  Elec       q    Type
REMARK                         _______ _______ _______ _____ _____    ______ ____
ROOT
ATOM      1  O   UNL     1      34.604 -16.112 -20.650  0.00  0.00    -0.246 OA
ATOM      2  O   UNL     1      31.918 -12.927 -22.816  0.00  0.00    -0.265 OA
ATOM      3  N   UNL     1      34.470 -16.181 -22.973  0.00  0.00    -0.269 N 
ATOM      4  N   UNL     1      33.257 -14.512 -21.705  0.00  0.00    -0.246 N 
ATOM      5  N   UNL     1      32.761 -14.259 -25.349  0.00  0.00    -0.310 N 
ATOM      6  N   UNL     1      34.138 -16.011 -25.405  0.00  0.00    -0.302 N 
ATOM      7  C   UNL     1      33.926 -15.609 -24.114  0.00  0.00    +0.132 A 
ATOM      8  C   UNL     1      33.082 -14.533 -24.052  0.00  0.00    +0.133 A 
ATOM      9  C   UNL     1      34.150 -15.643 -21.701  0.00  0.00    +0.335 A 
ATOM     10  C   UNL     1      32.676 -13.892 -22.843  0.00  0.00    +0.280 A 
ATOM     11  C   UNL     1      32.930 -13.959 -20.394  0.00  0.00    +0.138 C 
ATOM     12  C   UNL     1      33.421 -15.174 -26.127  0.00  0.00    +0.183 C 
ATOM     13  H   UNL     1      32.169 -13.540 -25.667  0.00  0.00    +0.149 HD
ATOM     14  H   UNL     1      34.700 -16.755 -25.722  0.00  0.00    +0.150 HD
ENDROOT
BRANCH   3  15
ATOM     15  C   UNL     1      35.364 -17.326 -23.090  0.00  0.00    +0.112 C 
BRANCH  15  16
ATOM     16  C   UNL     1      34.610 -18.660 -23.067  0.00  0.00    +0.023 C 
ATOM     17  C   UNL     1      35.061 -19.497 -21.869  0.00  0.00    +0.002 C 
ATOM     18  C   UNL     1      34.819 -19.449 -24.362  0.00  0.00    +0.002 C 
ENDBRANCH  15  16
ENDBRANCH   3  15
TORSDOF 2
ENDMDL
MODEL 7
REMARK VINA RESULT:      -7.2      2.312      4.411
REMARK  Name = 3758
REMARK  2 active torsions:
REMARK  status: ('A' for Active; 'I' for Inactive)
REMARK    1  A    between atoms: N_3  and  C_15
REMARK    2  A    between atoms: C_15  and  C_16
REMARK                            x       y       z     vdW  Elec       q    Type
REMARK                         _______ _______ _______ _____ _____    ______ ____
ROOT
ATOM      1  O   UNL     1      35.291 -19.393 -23.786  0.00  0.00    -0.246 OA
ATOM      2  O   UNL     1      33.815 -15.016 -24.633  0.00  0.00    -0.265 OA
ATOM      3  N   UNL     1      35.112 -17.924 -21.990  0.00  0.00    -0.269 N 
ATOM      4  N   UNL     1      34.552 -17.216 -24.237  0.00  0.00    -0.246 N 
ATOM      5  N   UNL     1      34.127 -14.577 -21.698  0.00  0.00    -0.310 N 
ATOM      6  N   UNL     1      34.828 -16.162 -20.297  0.00  0.00    -0.302 N 
ATOM      7  C   UNL     1      34.781 -16.641 -21.578  0.00  0.00    +0.132 A 
ATOM      8  C   UNL     1      34.353 -15.686 -22.460  0.00  0.00    +0.133 A 
ATOM      9  C   UNL     1      35.009 -18.266 -23.362  0.00  0.00    +0.335 A 
ATOM     10  C   UNL     1      34.202 -15.891 -23.864  0.00  0.00    +0.280 A 
ATOM     11  C   UNL     1      34.445 -17.571 -25.649  0.00  0.00    +0.138 C 
ATOM     12  C   UNL     1      34.426 -14.911 -20.403  0.00  0.00    +0.183 C 
ATOM     13  H   UNL     1      33.809 -13.701 -22.018  0.00  0.00    +0.149 HD
ATOM     14  H   UNL     1      35.099 -16.641 -19.481  0.00  0.00    +0.150 HD
ENDROOT
BRANCH   3  15
ATOM     15  C   UNL     1      35.563 -18.907 -21.012  0.00  0.00    +0.112 C 
BRANCH  15  16
ATOM     16  C   UNL     1      34.620 -20.112 -20.920  0.00  0.00    +0.023 C 
ATOM     17  C   UNL     1      33.193 -19.642 -20.637  0.00  0.00    +0.002 C 
ATOM     18  C   UNL     1      35.068 -21.097 -19.837  0.00  0.00    +0.002 C 
ENDBRANCH  15  16
ENDBRANCH   3  15
TORSDOF 2
ENDMDL
MODEL 8
REMARK VINA RESULT:      -7.1      7.512      9.719
REMARK  Name = 3758
REMARK  2 active torsions:
REMARK  status: ('A' for Active; 'I' for Inactive)
REMARK    1  A    between atoms: N_3  and  C_15
REMARK    2  A    between atoms: C_15  and  C_16
REMARK                            x       y       z     vdW  Elec       q    Type
REMARK                         _______ _______ _______ _____ _____    ______ ____
ROOT
ATOM      1  O   UNL     1      36.866 -21.752 -18.702  0.00  0.00    -0.246 OA
ATOM      2  O   UNL     1      35.492 -23.235 -14.463  0.00  0.00    -0.265 OA
ATOM      3  N   UNL     1      34.624 -22.299 -18.400  0.00  0.00    -0.269 N 
ATOM      4  N   UNL     1      36.208 -22.489 -16.578  0.00  0.00    -0.246 N 
ATOM      5  N   UNL     1      32.770 -23.455 -15.663  0.00  0.00    -0.310 N 
ATOM      6  N   UNL     1      32.330 -22.944 -17.788  0.00  0.00    -0.302 N 
ATOM      7  C   UNL     1      33.657 -22.750 -17.513  0.00  0.00    +0.132 A 
ATOM      8  C   UNL     1      33.954 -23.057 -16.213  0.00  0.00    +0.133 A 
ATOM      9  C   UNL     1      35.963 -22.149 -17.956  0.00  0.00    +0.335 A 
ATOM     10  C   UNL     1      35.253 -22.953 -15.634  0.00  0.00    +0.280 A 
ATOM     11  C   UNL     1      37.586 -22.333 -16.123  0.00  0.00    +0.138 C 
ATOM     12  C   UNL     1      31.821 -23.370 -16.650  0.00  0.00    +0.183 C 
ATOM     13  H   UNL     1      32.624 -23.749 -14.735  0.00  0.00    +0.149 HD
ATOM     14  H   UNL     1      31.862 -22.798 -18.642  0.00  0.00    +0.150 HD
ENDROOT
BRANCH   3  15
ATOM     15  C   UNL     1      34.259 -21.984 -19.775  0.00  0.00    +0.112 C 
BRANCH  15  16
ATOM     16  C   UNL     1      34.122 -20.476 -20.012  0.00  0.00    +0.023 C 
ATOM     17  C   UNL     1      32.701 -20.144 -20.471  0.00  0.00    +0.002 C 
ATOM     18  C   UNL     1      35.134 -19.972 -21.043  0.00  0.00    +0.002 C 
ENDBRANCH  15  16
ENDBRANCH   3  15
TORSDOF 2
ENDMDL
MODEL 9
REMARK VINA RESULT:      -7.1      9.791     11.443
REMARK  Name = 3758
REMARK  2 active torsions:
REMARK  status: ('A' for Active; 'I' for Inactive)
REMARK    1  A    between atoms: N_3  and  C_15
REMARK    2  A    between atoms: C_15  and  C_16
REMARK                            x       y       z     vdW  Elec       q    Type
REMARK                         _______ _______ _______ _____ _____    ______ ____
ROOT
ATOM      1  O   UNL     1      32.247 -24.024 -13.235  0.00  0.00    -0.246 OA
ATOM      2  O   UNL     1      36.146 -23.828 -15.845  0.00  0.00    -0.265 OA
ATOM      3  N   UNL     1      32.066 -23.275 -15.431  0.00  0.00    -0.269 N 
ATOM      4  N   UNL     1      34.207 -23.936 -14.514  0.00  0.00    -0.246 N 
ATOM      5  N   UNL     1      34.375 -22.816 -18.023  0.00  0.00    -0.310 N 
ATOM      6  N   UNL     1      32.179 -22.528 -17.773  0.00  0.00    -0.302 N 
ATOM      7  C   UNL     1      32.736 -23.000 -16.615  0.00  0.00    +0.132 A 
ATOM      8  C   UNL     1      34.085 -23.186 -16.742  0.00  0.00    +0.133 A 
ATOM      9  C   UNL     1      32.791 -23.762 -14.314  0.00  0.00    +0.335 A 
ATOM     10  C   UNL     1      34.937 -23.670 -15.704  0.00  0.00    +0.280 A 
ATOM     11  C   UNL     1      34.952 -24.439 -13.364  0.00  0.00    +0.138 C 
ATOM     12  C   UNL     1      33.196 -22.428 -18.605  0.00  0.00    +0.183 C 
ATOM     13  H   UNL     1      35.262 -22.826 -18.449  0.00  0.00    +0.149 HD
ATOM     14  H   UNL     1      31.234 -22.313 -17.945  0.00  0.00    +0.150 HD
ENDROOT
BRANCH   3  15
ATOM     15  C   UNL     1      30.626 -23.061 -15.344  0.00  0.00    +0.112 C 
BRANCH  15  16
ATOM     16  C   UNL     1      29.826 -24.260 -15.866  0.00  0.00    +0.023 C 
ATOM     17  C   UNL     1      28.629 -23.774 -16.686  0.00  0.00    +0.002 C 
ATOM     18  C   UNL     1      29.345 -25.158 -14.724  0.00  0.00    +0.002 C 
ENDBRANCH  15  16
ENDBRANCH   3  15
TORSDOF 2
ENDMDL
