MODEL 1
REMARK VINA RESULT:      -9.5      0.000      0.000
REMARK  Name = 4369325
REMARK  8 active torsions:
REMARK  status: ('A' for Active; 'I' for Inactive)
REMARK    1  A    between atoms: C_2  and  C_9
REMARK    2  A    between atoms: C_3  and  O_21
REMARK    3  A    between atoms: C_9  and  N_10
REMARK    4  A    between atoms: N_10  and  C_12
REMARK    5  A    between atoms: C_12  and  C_15
REMARK    6  A    between atoms: O_21  and  C_22
REMARK    7  A    between atoms: C_22  and  C_24
REMARK    8  A    between atoms: C_24  and  O_25
REMARK                            x       y       z     vdW  Elec       q    Type
REMARK                         _______ _______ _______ _____ _____    ______ ____
ROOT
ATOM      1  F   UNL     1      35.175 -16.462 -25.690  0.00  0.00    -0.204 F 
ATOM      2  C   UNL     1      34.573 -18.673 -22.255  0.00  0.00    +0.054 C 
ATOM      3  C   UNL     1      34.812 -17.302 -22.169  0.00  0.00    +0.143 C 
ATOM      4  C   UNL     1      34.536 -19.298 -23.502  0.00  0.00    +0.007 C 
ATOM      5  C   UNL     1      35.015 -16.555 -23.329  0.00  0.00    +0.067 C 
ATOM      6  C   UNL     1      34.740 -18.551 -24.662  0.00  0.00    +0.030 C 
ATOM      7  C   UNL     1      34.980 -17.179 -24.575  0.00  0.00    +0.143 C 
ENDROOT
BRANCH   2   9
ATOM      8  S   UNL     1      32.815 -19.929 -20.551  0.00  0.00    -0.035 S 
ATOM      9  C   UNL     1      34.358 -19.472 -21.056  0.00  0.00    +0.084 C 
BRANCH   9  10
ATOM     10  N   UNL     1      35.469 -19.864 -20.320  0.00  0.00    -0.324 N 
ATOM     11  H   UNL     1      35.955 -19.161 -19.832  0.00  0.00    +0.148 HD
BRANCH  10  12
ATOM     12  C   UNL     1      35.977 -21.218 -20.205  0.00  0.00    +0.117 C 
BRANCH  12  15
ATOM     13 BR   UNL     1      35.350 -23.438 -14.481  0.00  0.00    -0.049 Br
ATOM     14  F   UNL     1      33.719 -22.702 -19.380  0.00  0.00    -0.204 F 
ATOM     15  C   UNL     1      35.822 -21.759 -18.812  0.00  0.00    +0.025 C 
ATOM     16  C   UNL     1      34.683 -22.482 -18.476  0.00  0.00    +0.138 C 
ATOM     17  C   UNL     1      36.822 -21.531 -17.874  0.00  0.00    +0.000 C 
ATOM     18  C   UNL     1      34.542 -22.982 -17.182  0.00  0.00    +0.036 C 
ATOM     19  C   UNL     1      36.681 -22.032 -16.580  0.00  0.00    +0.007 C 
ATOM     20  C   UNL     1      35.541 -22.759 -16.234  0.00  0.00    +0.037 C 
ENDBRANCH  12  15
ENDBRANCH  10  12
ENDBRANCH   9  10
ENDBRANCH   2   9
BRANCH   3  21
ATOM     21  O   UNL     1      34.851 -16.673 -20.960  0.00  0.00    -0.464 OA
BRANCH  21  22
ATOM     22  C   UNL     1      34.222 -15.397 -20.874  0.00  0.00    +0.314 C 
BRANCH  22  24
ATOM     23  O   UNL     1      32.020 -16.326 -20.435  0.00  0.00    -0.246 OA
ATOM     24  C   UNL     1      32.737 -15.549 -21.048  0.00  0.00    +0.359 C 
BRANCH  24  25
ATOM     25  O   UNL     1      32.286 -14.690 -21.997  0.00  0.00    -0.478 OA
ATOM     26  H   UNL     1      31.563 -14.123 -21.812  0.00  0.00    +0.295 HD
ENDBRANCH  24  25
ENDBRANCH  22  24
ENDBRANCH  21  22
ENDBRANCH   3  21
TORSDOF 8
ENDMDL
MODEL 2
REMARK VINA RESULT:      -9.4      3.204      4.584
REMARK  Name = 4369325
REMARK  8 active torsions:
REMARK  status: ('A' for Active; 'I' for Inactive)
REMARK    1  A    between atoms: C_2  and  C_9
REMARK    2  A    between atoms: C_3  and  O_21
REMARK    3  A    between atoms: C_9  and  N_10
REMARK    4  A    between atoms: N_10  and  C_12
REMARK    5  A    between atoms: C_12  and  C_15
REMARK    6  A    between atoms: O_21  and  C_22
REMARK    7  A    between atoms: C_22  and  C_24
REMARK    8  A    between atoms: C_24  and  O_25
REMARK                            x       y       z     vdW  Elec       q    Type
REMARK                         _______ _______ _______ _____ _____    ______ ____
ROOT
ATOM      1  F   UNL     1      31.629 -12.477 -20.721  0.00  0.00    -0.204 F 
ATOM      2  C   UNL     1      33.861 -15.633 -22.172  0.00  0.00    +0.054 C 
ATOM      3  C   UNL     1      33.505 -14.583 -23.018  0.00  0.00    +0.143 C 
ATOM      4  C   UNL     1      33.463 -15.617 -20.835  0.00  0.00    +0.007 C 
ATOM      5  C   UNL     1      32.752 -13.517 -22.529  0.00  0.00    +0.067 C 
ATOM      6  C   UNL     1      32.709 -14.550 -20.345  0.00  0.00    +0.030 C 
ATOM      7  C   UNL     1      32.353 -13.501 -21.192  0.00  0.00    +0.143 C 
ENDROOT
BRANCH   2   9
ATOM      8  S   UNL     1      34.683 -17.176 -24.297  0.00  0.00    -0.035 S 
ATOM      9  C   UNL     1      34.648 -16.756 -22.663  0.00  0.00    +0.084 C 
BRANCH   9  10
ATOM     10  N   UNL     1      35.388 -17.491 -21.746  0.00  0.00    -0.324 N 
ATOM     11  H   UNL     1      35.601 -17.056 -20.889  0.00  0.00    +0.148 HD
BRANCH  10  12
ATOM     12  C   UNL     1      35.876 -18.843 -21.938  0.00  0.00    +0.117 C 
BRANCH  12  15
ATOM     13 BR   UNL     1      33.238 -22.824 -18.030  0.00  0.00    -0.049 Br
ATOM     14  F   UNL     1      37.370 -20.587 -20.293  0.00  0.00    -0.204 F 
ATOM     15  C   UNL     1      35.236 -19.812 -20.986  0.00  0.00    +0.025 C 
ATOM     16  C   UNL     1      36.034 -20.642 -20.206  0.00  0.00    +0.138 C 
ATOM     17  C   UNL     1      33.851 -19.870 -20.896  0.00  0.00    +0.000 C 
ATOM     18  C   UNL     1      35.437 -21.541 -19.324  0.00  0.00    +0.036 C 
ATOM     19  C   UNL     1      33.253 -20.770 -20.014  0.00  0.00    +0.007 C 
ATOM     20  C   UNL     1      34.046 -21.605 -19.227  0.00  0.00    +0.037 C 
ENDBRANCH  12  15
ENDBRANCH  10  12
ENDBRANCH   9  10
ENDBRANCH   2   9
BRANCH   3  21
ATOM     21  O   UNL     1      33.885 -14.580 -24.327  0.00  0.00    -0.464 OA
BRANCH  21  22
ATOM     22  C   UNL     1      33.100 -13.802 -25.227  0.00  0.00    +0.314 C 
BRANCH  22  24
ATOM     23  O   UNL     1      33.742 -13.923 -27.567  0.00  0.00    -0.246 OA
ATOM     24  C   UNL     1      33.161 -14.401 -26.605  0.00  0.00    +0.359 C 
BRANCH  24  25
ATOM     25  O   UNL     1      32.472 -15.570 -26.638  0.00  0.00    -0.478 OA
ATOM     26  H   UNL     1      32.921 -16.375 -26.809  0.00  0.00    +0.295 HD
ENDBRANCH  24  25
ENDBRANCH  22  24
ENDBRANCH  21  22
ENDBRANCH   3  21
TORSDOF 8
ENDMDL
MODEL 3
REMARK VINA RESULT:      -9.1      5.501      7.936
REMARK  Name = 4369325
REMARK  8 active torsions:
REMARK  status: ('A' for Active; 'I' for Inactive)
REMARK    1  A    between atoms: C_2  and  C_9
REMARK    2  A    between atoms: C_3  and  O_21
REMARK    3  A    between atoms: C_9  and  N_10
REMARK    4  A    between atoms: N_10  and  C_12
REMARK    5  A    between atoms: C_12  and  C_15
REMARK    6  A    between atoms: O_21  and  C_22
REMARK    7  A    between atoms: C_22  and  C_24
REMARK    8  A    between atoms: C_24  and  O_25
REMARK                            x       y       z     vdW  Elec       q    Type
REMARK                         _______ _______ _______ _____ _____    ______ ____
ROOT
ATOM      1  F   UNL     1      33.515  -6.683 -22.581  0.00  0.00    -0.204 F 
ATOM      2  C   UNL     1      33.743 -10.571 -23.954  0.00  0.00    +0.054 C 
ATOM      3  C   UNL     1      32.725 -10.200 -23.075  0.00  0.00    +0.143 C 
ATOM      4  C   UNL     1      34.683  -9.628 -24.370  0.00  0.00    +0.007 C 
ATOM      5  C   UNL     1      32.648  -8.887 -22.611  0.00  0.00    +0.067 C 
ATOM      6  C   UNL     1      34.606  -8.315 -23.906  0.00  0.00    +0.030 C 
ATOM      7  C   UNL     1      33.589  -7.944 -23.026  0.00  0.00    +0.143 C 
ENDROOT
BRANCH   2   9
ATOM      8  S   UNL     1      33.851 -12.290 -26.099  0.00  0.00    -0.035 S 
ATOM      9  C   UNL     1      33.842 -11.936 -24.450  0.00  0.00    +0.084 C 
BRANCH   9  10
ATOM     10  N   UNL     1      33.935 -12.967 -23.523  0.00  0.00    -0.324 N 
ATOM     11  H   UNL     1      34.587 -12.857 -22.793  0.00  0.00    +0.148 HD
BRANCH  10  12
ATOM     12  C   UNL     1      33.159 -14.192 -23.535  0.00  0.00    +0.117 C 
BRANCH  12  15
ATOM     13 BR   UNL     1      36.293 -18.938 -21.139  0.00  0.00    -0.049 Br
ATOM     14  F   UNL     1      34.340 -16.204 -25.128  0.00  0.00    -0.204 F 
ATOM     15  C   UNL     1      33.922 -15.347 -22.954  0.00  0.00    +0.025 C 
ATOM     16  C   UNL     1      34.477 -16.302 -23.798  0.00  0.00    +0.138 C 
ATOM     17  C   UNL     1      34.065 -15.450 -21.575  0.00  0.00    +0.000 C 
ATOM     18  C   UNL     1      35.184 -17.374 -23.256  0.00  0.00    +0.036 C 
ATOM     19  C   UNL     1      34.772 -16.522 -21.033  0.00  0.00    +0.007 C 
ATOM     20  C   UNL     1      35.333 -17.485 -21.873  0.00  0.00    +0.037 C 
ENDBRANCH  12  15
ENDBRANCH  10  12
ENDBRANCH   9  10
ENDBRANCH   2   9
BRANCH   3  21
ATOM     21  O   UNL     1      31.797 -11.106 -22.657  0.00  0.00    -0.464 OA
BRANCH  21  22
ATOM     22  C   UNL     1      31.040 -10.770 -21.498  0.00  0.00    +0.314 C 
BRANCH  22  24
ATOM     23  O   UNL     1      31.490 -11.181 -19.146  0.00  0.00    -0.246 OA
ATOM     24  C   UNL     1      31.556 -11.538 -20.313  0.00  0.00    +0.359 C 
BRANCH  24  25
ATOM     25  O   UNL     1      32.116 -12.705 -20.719  0.00  0.00    -0.478 OA
ATOM     26  H   UNL     1      32.094 -12.945 -21.625  0.00  0.00    +0.295 HD
ENDBRANCH  24  25
ENDBRANCH  22  24
ENDBRANCH  21  22
ENDBRANCH   3  21
TORSDOF 8
ENDMDL
MODEL 4
REMARK VINA RESULT:      -9.0      6.638     10.224
REMARK  Name = 4369325
REMARK  8 active torsions:
REMARK  status: ('A' for Active; 'I' for Inactive)
REMARK    1  A    between atoms: C_2  and  C_9
REMARK    2  A    between atoms: C_3  and  O_21
REMARK    3  A    between atoms: C_9  and  N_10
REMARK    4  A    between atoms: N_10  and  C_12
REMARK    5  A    between atoms: C_12  and  C_15
REMARK    6  A    between atoms: O_21  and  C_22
REMARK    7  A    between atoms: C_22  and  C_24
REMARK    8  A    between atoms: C_24  and  O_25
REMARK                            x       y       z     vdW  Elec       q    Type
REMARK                         _______ _______ _______ _____ _____    ______ ____
ROOT
ATOM      1  F   UNL     1      32.554 -15.384 -19.361  0.00  0.00    -0.204 F 
ATOM      2  C   UNL     1      33.343 -13.740 -23.066  0.00  0.00    +0.054 C 
ATOM      3  C   UNL     1      34.073 -14.843 -22.623  0.00  0.00    +0.143 C 
ATOM      4  C   UNL     1      32.345 -13.193 -22.258  0.00  0.00    +0.007 C 
ATOM      5  C   UNL     1      33.807 -15.398 -21.372  0.00  0.00    +0.067 C 
ATOM      6  C   UNL     1      32.079 -13.749 -21.007  0.00  0.00    +0.030 C 
ATOM      7  C   UNL     1      32.811 -14.851 -20.563  0.00  0.00    +0.143 C 
ENDROOT
BRANCH   2   9
ATOM      8  S   UNL     1      33.080 -13.863 -25.803  0.00  0.00    -0.035 S 
ATOM      9  C   UNL     1      33.605 -13.145 -24.369  0.00  0.00    +0.084 C 
BRANCH   9  10
ATOM     10  N   UNL     1      34.307 -11.947 -24.416  0.00  0.00    -0.324 N 
ATOM     11  H   UNL     1      35.226 -11.951 -24.061  0.00  0.00    +0.148 HD
BRANCH  10  12
ATOM     12  C   UNL     1      33.808 -10.690 -24.940  0.00  0.00    +0.117 C 
BRANCH  12  15
ATOM     13 BR   UNL     1      32.200  -6.789 -20.436  0.00  0.00    -0.049 Br
ATOM     14  F   UNL     1      35.245  -8.322 -24.383  0.00  0.00    -0.204 F 
ATOM     15  C   UNL     1      33.418  -9.739 -23.845  0.00  0.00    +0.025 C 
ATOM     16  C   UNL     1      34.172  -8.592 -23.627  0.00  0.00    +0.138 C 
ATOM     17  C   UNL     1      32.307 -10.018 -23.059  0.00  0.00    +0.000 C 
ATOM     18  C   UNL     1      33.809  -7.712 -22.608  0.00  0.00    +0.036 C 
ATOM     19  C   UNL     1      31.943  -9.138 -22.041  0.00  0.00    +0.007 C 
ATOM     20  C   UNL     1      32.693  -7.983 -21.816  0.00  0.00    +0.037 C 
ENDBRANCH  12  15
ENDBRANCH  10  12
ENDBRANCH   9  10
ENDBRANCH   2   9
BRANCH   3  21
ATOM     21  O   UNL     1      35.051 -15.392 -23.398  0.00  0.00    -0.464 OA
BRANCH  21  22
ATOM     22  C   UNL     1      35.168 -16.812 -23.382  0.00  0.00    +0.314 C 
BRANCH  22  24
ATOM     23  O   UNL     1      34.887 -16.787 -25.796  0.00  0.00    -0.246 OA
ATOM     24  C   UNL     1      34.786 -17.369 -24.726  0.00  0.00    +0.359 C 
BRANCH  24  25
ATOM     25  O   UNL     1      34.304 -18.631 -24.590  0.00  0.00    -0.478 OA
ATOM     26  H   UNL     1      34.851 -19.306 -24.240  0.00  0.00    +0.295 HD
ENDBRANCH  24  25
ENDBRANCH  22  24
ENDBRANCH  21  22
ENDBRANCH   3  21
TORSDOF 8
ENDMDL
MODEL 5
REMARK VINA RESULT:      -9.0      7.673      9.956
REMARK  Name = 4369325
REMARK  8 active torsions:
REMARK  status: ('A' for Active; 'I' for Inactive)
REMARK    1  A    between atoms: C_2  and  C_9
REMARK    2  A    between atoms: C_3  and  O_21
REMARK    3  A    between atoms: C_9  and  N_10
REMARK    4  A    between atoms: N_10  and  C_12
REMARK    5  A    between atoms: C_12  and  C_15
REMARK    6  A    between atoms: O_21  and  C_22
REMARK    7  A    between atoms: C_22  and  C_24
REMARK    8  A    between atoms: C_24  and  O_25
REMARK                            x       y       z     vdW  Elec       q    Type
REMARK                         _______ _______ _______ _____ _____    ______ ____
ROOT
ATOM      1  F   UNL     1      40.398 -26.175 -13.171  0.00  0.00    -0.204 F 
ATOM      2  C   UNL     1      37.630 -23.643 -14.897  0.00  0.00    +0.054 C 
ATOM      3  C   UNL     1      37.541 -23.953 -13.540  0.00  0.00    +0.143 C 
ATOM      4  C   UNL     1      38.656 -24.188 -15.671  0.00  0.00    +0.007 C 
ATOM      5  C   UNL     1      38.475 -24.808 -12.957  0.00  0.00    +0.067 C 
ATOM      6  C   UNL     1      39.590 -25.043 -15.088  0.00  0.00    +0.030 C 
ATOM      7  C   UNL     1      39.500 -25.354 -13.731  0.00  0.00    +0.143 C 
ENDROOT
BRANCH   2   9
ATOM      8  S   UNL     1      37.120 -21.615 -16.686  0.00  0.00    -0.035 S 
ATOM      9  C   UNL     1      36.665 -22.752 -15.526  0.00  0.00    +0.084 C 
BRANCH   9  10
ATOM     10  N   UNL     1      35.331 -22.858 -15.151  0.00  0.00    -0.324 N 
ATOM     11  H   UNL     1      34.931 -22.083 -14.693  0.00  0.00    +0.148 HD
BRANCH  10  12
ATOM     12  C   UNL     1      34.475 -24.007 -15.374  0.00  0.00    +0.117 C 
BRANCH  12  15
ATOM     13 BR   UNL     1      28.508 -22.440 -15.537  0.00  0.00    -0.049 Br
ATOM     14  F   UNL     1      33.156 -23.257 -17.757  0.00  0.00    -0.204 F 
ATOM     15  C   UNL     1      33.023 -23.626 -15.416  0.00  0.00    +0.025 C 
ATOM     16  C   UNL     1      32.438 -23.267 -16.626  0.00  0.00    +0.138 C 
ATOM     17  C   UNL     1      32.278 -23.635 -14.243  0.00  0.00    +0.000 C 
ATOM     18  C   UNL     1      31.090 -22.912 -16.661  0.00  0.00    +0.036 C 
ATOM     19  C   UNL     1      30.930 -23.280 -14.278  0.00  0.00    +0.007 C 
ATOM     20  C   UNL     1      30.335 -22.920 -15.488  0.00  0.00    +0.037 C 
ENDBRANCH  12  15
ENDBRANCH  10  12
ENDBRANCH   9  10
ENDBRANCH   2   9
BRANCH   3  21
ATOM     21  O   UNL     1      36.547 -23.431 -12.767  0.00  0.00    -0.464 OA
BRANCH  21  22
ATOM     22  C   UNL     1      36.683 -23.572 -11.355  0.00  0.00    +0.314 C 
BRANCH  22  24
ATOM     23  O   UNL     1      35.320 -24.615  -9.635  0.00  0.00    -0.246 OA
ATOM     24  C   UNL     1      35.551 -24.402 -10.816  0.00  0.00    +0.359 C 
BRANCH  24  25
ATOM     25  O   UNL     1      34.803 -24.893 -11.836  0.00  0.00    -0.478 OA
ATOM     26  H   UNL     1      34.045 -24.425 -12.129  0.00  0.00    +0.295 HD
ENDBRANCH  24  25
ENDBRANCH  22  24
ENDBRANCH  21  22
ENDBRANCH   3  21
TORSDOF 8
ENDMDL
MODEL 6
REMARK VINA RESULT:      -8.9      5.977      9.265
REMARK  Name = 4369325
REMARK  8 active torsions:
REMARK  status: ('A' for Active; 'I' for Inactive)
REMARK    1  A    between atoms: C_2  and  C_9
REMARK    2  A    between atoms: C_3  and  O_21
REMARK    3  A    between atoms: C_9  and  N_10
REMARK    4  A    between atoms: N_10  and  C_12
REMARK    5  A    between atoms: C_12  and  C_15
REMARK    6  A    between atoms: O_21  and  C_22
REMARK    7  A    between atoms: C_22  and  C_24
REMARK    8  A    between atoms: C_24  and  O_25
REMARK                            x       y       z     vdW  Elec       q    Type
REMARK                         _______ _______ _______ _____ _____    ______ ____
ROOT
ATOM      1  F   UNL     1      35.747 -19.083 -22.808  0.00  0.00    -0.204 F 
ATOM      2  C   UNL     1      34.147 -15.607 -24.361  0.00  0.00    +0.054 C 
ATOM      3  C   UNL     1      34.629 -15.630 -23.052  0.00  0.00    +0.143 C 
ATOM      4  C   UNL     1      34.207 -16.759 -25.146  0.00  0.00    +0.007 C 
ATOM      5  C   UNL     1      35.170 -16.803 -22.527  0.00  0.00    +0.067 C 
ATOM      6  C   UNL     1      34.747 -17.933 -24.621  0.00  0.00    +0.030 C 
ATOM      7  C   UNL     1      35.228 -17.955 -23.312  0.00  0.00    +0.143 C 
ENDROOT
BRANCH   2   9
ATOM      8  S   UNL     1      32.697 -14.405 -26.366  0.00  0.00    -0.035 S 
ATOM      9  C   UNL     1      33.579 -14.392 -24.928  0.00  0.00    +0.084 C 
BRANCH   9  10
ATOM     10  N   UNL     1      33.774 -13.196 -24.250  0.00  0.00    -0.324 N 
ATOM     11  H   UNL     1      33.733 -13.226 -23.266  0.00  0.00    +0.148 HD
BRANCH  10  12
ATOM     12  C   UNL     1      34.034 -11.906 -24.860  0.00  0.00    +0.117 C 
BRANCH  12  15
ATOM     13 BR   UNL     1      32.281  -7.241 -21.221  0.00  0.00    -0.049 Br
ATOM     14  F   UNL     1      35.319  -9.391 -24.874  0.00  0.00    -0.204 F 
ATOM     15  C   UNL     1      33.609 -10.770 -23.976  0.00  0.00    +0.025 C 
ATOM     16  C   UNL     1      34.288  -9.558 -24.035  0.00  0.00    +0.138 C 
ATOM     17  C   UNL     1      32.540 -10.942 -23.105  0.00  0.00    +0.000 C 
ATOM     18  C   UNL     1      33.891  -8.505 -23.212  0.00  0.00    +0.036 C 
ATOM     19  C   UNL     1      32.143  -9.889 -22.282  0.00  0.00    +0.007 C 
ATOM     20  C   UNL     1      32.818  -8.669 -22.336  0.00  0.00    +0.037 C 
ENDBRANCH  12  15
ENDBRANCH  10  12
ENDBRANCH   9  10
ENDBRANCH   2   9
BRANCH   3  21
ATOM     21  O   UNL     1      34.581 -14.514 -22.270  0.00  0.00    -0.464 OA
BRANCH  21  22
ATOM     22  C   UNL     1      33.992 -14.654 -20.979  0.00  0.00    +0.314 C 
BRANCH  22  24
ATOM     23  O   UNL     1      32.004 -16.008 -20.633  0.00  0.00    -0.246 OA
ATOM     24  C   UNL     1      32.541 -15.024 -21.120  0.00  0.00    +0.359 C 
BRANCH  24  25
ATOM     25  O   UNL     1      31.893 -14.100 -21.874  0.00  0.00    -0.478 OA
ATOM     26  H   UNL     1      32.332 -13.692 -22.594  0.00  0.00    +0.295 HD
ENDBRANCH  24  25
ENDBRANCH  22  24
ENDBRANCH  21  22
ENDBRANCH   3  21
TORSDOF 8
ENDMDL
MODEL 7
REMARK VINA RESULT:      -8.8      2.611      3.490
REMARK  Name = 4369325
REMARK  8 active torsions:
REMARK  status: ('A' for Active; 'I' for Inactive)
REMARK    1  A    between atoms: C_2  and  C_9
REMARK    2  A    between atoms: C_3  and  O_21
REMARK    3  A    between atoms: C_9  and  N_10
REMARK    4  A    between atoms: N_10  and  C_12
REMARK    5  A    between atoms: C_12  and  C_15
REMARK    6  A    between atoms: O_21  and  C_22
REMARK    7  A    between atoms: C_22  and  C_24
REMARK    8  A    between atoms: C_24  and  O_25
REMARK                            x       y       z     vdW  Elec       q    Type
REMARK                         _______ _______ _______ _____ _____    ______ ____
ROOT
ATOM      1  F   UNL     1      33.268 -14.400 -27.025  0.00  0.00    -0.204 F 
ATOM      2  C   UNL     1      33.929 -15.883 -23.228  0.00  0.00    +0.054 C 
ATOM      3  C   UNL     1      33.209 -14.701 -23.400  0.00  0.00    +0.143 C 
ATOM      4  C   UNL     1      34.425 -16.565 -24.340  0.00  0.00    +0.007 C 
ATOM      5  C   UNL     1      32.986 -14.200 -24.682  0.00  0.00    +0.067 C 
ATOM      6  C   UNL     1      34.201 -16.064 -25.622  0.00  0.00    +0.030 C 
ATOM      7  C   UNL     1      33.483 -14.881 -25.793  0.00  0.00    +0.143 C 
ENDROOT
BRANCH   2   9
ATOM      8  S   UNL     1      34.629 -15.442 -20.604  0.00  0.00    -0.035 S 
ATOM      9  C   UNL     1      34.173 -16.424 -21.899  0.00  0.00    +0.084 C 
BRANCH   9  10
ATOM     10  N   UNL     1      34.020 -17.791 -21.705  0.00  0.00    -0.324 N 
ATOM     11  H   UNL     1      33.099 -18.138 -21.664  0.00  0.00    +0.148 HD
BRANCH  10  12
ATOM     12  C   UNL     1      35.094 -18.754 -21.560  0.00  0.00    +0.117 C 
BRANCH  12  15
ATOM     13 BR   UNL     1      33.537 -23.391 -17.797  0.00  0.00    -0.049 Br
ATOM     14  F   UNL     1      37.006 -20.423 -20.319  0.00  0.00    -0.204 F 
ATOM     15  C   UNL     1      34.717 -19.883 -20.644  0.00  0.00    +0.025 C 
ATOM     16  C   UNL     1      35.712 -20.664 -20.067  0.00  0.00    +0.138 C 
ATOM     17  C   UNL     1      33.376 -20.134 -20.382  0.00  0.00    +0.000 C 
ATOM     18  C   UNL     1      35.359 -21.712 -19.218  0.00  0.00    +0.036 C 
ATOM     19  C   UNL     1      33.023 -21.182 -19.533  0.00  0.00    +0.007 C 
ATOM     20  C   UNL     1      34.015 -21.971 -18.949  0.00  0.00    +0.037 C 
ENDBRANCH  12  15
ENDBRANCH  10  12
ENDBRANCH   9  10
ENDBRANCH   2   9
BRANCH   3  21
ATOM     21  O   UNL     1      32.716 -14.020 -22.327  0.00  0.00    -0.464 OA
BRANCH  21  22
ATOM     22  C   UNL     1      32.318 -12.669 -22.545  0.00  0.00    +0.314 C 
BRANCH  22  24
ATOM     23  O   UNL     1      31.954 -12.270 -20.176  0.00  0.00    -0.246 OA
ATOM     24  C   UNL     1      31.589 -12.152 -21.336  0.00  0.00    +0.359 C 
BRANCH  24  25
ATOM     25  O   UNL     1      30.447 -11.522 -21.712  0.00  0.00    -0.478 OA
ATOM     26  H   UNL     1      30.425 -10.587 -21.771  0.00  0.00    +0.295 HD
ENDBRANCH  24  25
ENDBRANCH  22  24
ENDBRANCH  21  22
ENDBRANCH   3  21
TORSDOF 8
ENDMDL
MODEL 8
REMARK VINA RESULT:      -8.8      5.773      8.895
REMARK  Name = 4369325
REMARK  8 active torsions:
REMARK  status: ('A' for Active; 'I' for Inactive)
REMARK    1  A    between atoms: C_2  and  C_9
REMARK    2  A    between atoms: C_3  and  O_21
REMARK    3  A    between atoms: C_9  and  N_10
REMARK    4  A    between atoms: N_10  and  C_12
REMARK    5  A    between atoms: C_12  and  C_15
REMARK    6  A    between atoms: O_21  and  C_22
REMARK    7  A    between atoms: C_22  and  C_24
REMARK    8  A    between atoms: C_24  and  O_25
REMARK                            x       y       z     vdW  Elec       q    Type
REMARK                         _______ _______ _______ _____ _____    ______ ____
ROOT
ATOM      1  F   UNL     1      34.961 -20.246 -24.993  0.00  0.00    -0.204 F 
ATOM      2  C   UNL     1      34.450 -16.674 -22.984  0.00  0.00    +0.054 C 
ATOM      3  C   UNL     1      34.389 -16.706 -24.378  0.00  0.00    +0.143 C 
ATOM      4  C   UNL     1      34.683 -17.850 -22.269  0.00  0.00    +0.007 C 
ATOM      5  C   UNL     1      34.561 -17.912 -25.056  0.00  0.00    +0.067 C 
ATOM      6  C   UNL     1      34.856 -19.056 -22.948  0.00  0.00    +0.030 C 
ATOM      7  C   UNL     1      34.795 -19.087 -24.342  0.00  0.00    +0.143 C 
ENDROOT
BRANCH   2   9
ATOM      8  S   UNL     1      34.499 -15.324 -20.587  0.00  0.00    -0.035 S 
ATOM      9  C   UNL     1      34.273 -15.426 -22.256  0.00  0.00    +0.084 C 
BRANCH   9  10
ATOM     10  N   UNL     1      33.910 -14.292 -22.973  0.00  0.00    -0.324 N 
ATOM     11  H   UNL     1      34.574 -13.928 -23.602  0.00  0.00    +0.148 HD
BRANCH  10  12
ATOM     12  C   UNL     1      32.641 -13.597 -22.877  0.00  0.00    +0.117 C 
BRANCH  12  15
ATOM     13 BR   UNL     1      33.283  -7.507 -23.640  0.00  0.00    -0.049 Br
ATOM     14  F   UNL     1      31.059 -11.709 -21.495  0.00  0.00    -0.204 F 
ATOM     15  C   UNL     1      32.796 -12.115 -23.061  0.00  0.00    +0.025 C 
ATOM     16  C   UNL     1      31.982 -11.243 -22.347  0.00  0.00    +0.138 C 
ATOM     17  C   UNL     1      33.752 -11.631 -23.945  0.00  0.00    +0.000 C 
ATOM     18  C   UNL     1      32.128  -9.867 -22.521  0.00  0.00    +0.036 C 
ATOM     19  C   UNL     1      33.898 -10.255 -24.119  0.00  0.00    +0.007 C 
ATOM     20  C   UNL     1      33.086  -9.372 -23.406  0.00  0.00    +0.037 C 
ENDBRANCH  12  15
ENDBRANCH  10  12
ENDBRANCH   9  10
ENDBRANCH   2   9
BRANCH   3  21
ATOM     21  O   UNL     1      34.161 -15.569 -25.094  0.00  0.00    -0.464 OA
BRANCH  21  22
ATOM     22  C   UNL     1      33.308 -15.679 -26.230  0.00  0.00    +0.314 C 
BRANCH  22  24
ATOM     23  O   UNL     1      33.846 -13.800 -27.674  0.00  0.00    -0.246 OA
ATOM     24  C   UNL     1      33.110 -14.325 -26.851  0.00  0.00    +0.359 C 
BRANCH  24  25
ATOM     25  O   UNL     1      31.980 -13.749 -26.368  0.00  0.00    -0.478 OA
ATOM     26  H   UNL     1      31.205 -13.722 -26.895  0.00  0.00    +0.295 HD
ENDBRANCH  24  25
ENDBRANCH  22  24
ENDBRANCH  21  22
ENDBRANCH   3  21
TORSDOF 8
ENDMDL
MODEL 9
REMARK VINA RESULT:      -8.8      7.288      9.317
REMARK  Name = 4369325
REMARK  8 active torsions:
REMARK  status: ('A' for Active; 'I' for Inactive)
REMARK    1  A    between atoms: C_2  and  C_9
REMARK    2  A    between atoms: C_3  and  O_21
REMARK    3  A    between atoms: C_9  and  N_10
REMARK    4  A    between atoms: N_10  and  C_12
REMARK    5  A    between atoms: C_12  and  C_15
REMARK    6  A    between atoms: O_21  and  C_22
REMARK    7  A    between atoms: C_22  and  C_24
REMARK    8  A    between atoms: C_24  and  O_25
REMARK                            x       y       z     vdW  Elec       q    Type
REMARK                         _______ _______ _______ _____ _____    ______ ____
ROOT
ATOM      1  F   UNL     1      37.106 -21.608 -18.195  0.00  0.00    -0.204 F 
ATOM      2  C   UNL     1      35.274 -23.590 -15.070  0.00  0.00    +0.054 C 
ATOM      3  C   UNL     1      36.661 -23.442 -15.085  0.00  0.00    +0.143 C 
ATOM      4  C   UNL     1      34.506 -23.067 -16.111  0.00  0.00    +0.007 C 
ATOM      5  C   UNL     1      37.280 -22.773 -16.141  0.00  0.00    +0.067 C 
ATOM      6  C   UNL     1      35.125 -22.398 -17.167  0.00  0.00    +0.030 C 
ATOM      7  C   UNL     1      36.512 -22.251 -17.182  0.00  0.00    +0.143 C 
ENDROOT
BRANCH   2   9
ATOM      8  S   UNL     1      35.152 -24.178 -12.385  0.00  0.00    -0.035 S 
ATOM      9  C   UNL     1      34.607 -24.285 -13.978  0.00  0.00    +0.084 C 
BRANCH   9  10
ATOM     10  N   UNL     1      33.488 -25.054 -14.274  0.00  0.00    -0.324 N 
ATOM     11  H   UNL     1      33.560 -25.678 -15.032  0.00  0.00    +0.148 HD
BRANCH  10  12
ATOM     12  C   UNL     1      32.224 -25.020 -13.565  0.00  0.00    +0.117 C 
BRANCH  12  15
ATOM     13 BR   UNL     1      27.687 -22.683 -17.035  0.00  0.00    -0.049 Br
ATOM     14  F   UNL     1      31.978 -22.257 -14.101  0.00  0.00    -0.204 F 
ATOM     15  C   UNL     1      31.121 -24.449 -14.409  0.00  0.00    +0.025 C 
ATOM     16  C   UNL     1      31.061 -23.078 -14.632  0.00  0.00    +0.138 C 
ATOM     17  C   UNL     1      30.170 -25.299 -14.960  0.00  0.00    +0.000 C 
ATOM     18  C   UNL     1      30.035 -22.551 -15.415  0.00  0.00    +0.036 C 
ATOM     19  C   UNL     1      29.144 -24.772 -15.743  0.00  0.00    +0.007 C 
ATOM     20  C   UNL     1      29.077 -23.397 -15.972  0.00  0.00    +0.037 C 
ENDBRANCH  12  15
ENDBRANCH  10  12
ENDBRANCH   9  10
ENDBRANCH   2   9
BRANCH   3  21
ATOM     21  O   UNL     1      37.429 -23.945 -14.078  0.00  0.00    -0.464 OA
BRANCH  21  22
ATOM     22  C   UNL     1      38.373 -24.954 -14.426  0.00  0.00    +0.314 C 
BRANCH  22  24
ATOM     23  O   UNL     1      37.341 -26.983 -13.577  0.00  0.00    -0.246 OA
ATOM     24  C   UNL     1      37.683 -26.286 -14.521  0.00  0.00    +0.359 C 
BRANCH  24  25
ATOM     25  O   UNL     1      37.485 -26.620 -15.821  0.00  0.00    -0.478 OA
ATOM     26  H   UNL     1      37.115 -27.452 -16.041  0.00  0.00    +0.295 HD
ENDBRANCH  24  25
ENDBRANCH  22  24
ENDBRANCH  21  22
ENDBRANCH   3  21
TORSDOF 8
ENDMDL
