MODEL 1
REMARK VINA RESULT:      -9.0      0.000      0.000
REMARK  Name = 4174
REMARK  3 active torsions:
REMARK  status: ('A' for Active; 'I' for Inactive)
REMARK    1  A    between atoms: C_1  and  C_5
REMARK    2  A    between atoms: C_1  and  C_11
REMARK    3  A    between atoms: C_11  and  C_13
REMARK                            x       y       z     vdW  Elec       q    Type
REMARK                         _______ _______ _______ _____ _____    ______ ____
ROOT
ATOM      1  C   UNL     1      35.094 -18.351 -21.872  0.00  0.00    +0.076 C 
ATOM      2  C   UNL     1      34.504 -18.273 -23.298  0.00  0.00    +0.012 C 
ATOM      3  C   UNL     1      36.620 -18.575 -22.047  0.00  0.00    +0.012 C 
ENDROOT
BRANCH   1   5
ATOM      4  N   UNL     1      32.691 -20.638 -20.083  0.00  0.00    -0.243 NA
ATOM      5  C   UNL     1      34.564 -19.504 -21.007  0.00  0.00    +0.003 C 
ATOM      6  C   UNL     1      35.452 -20.367 -20.429  0.00  0.00    -0.001 C 
ATOM      7  C   UNL     1      33.222 -19.645 -20.833  0.00  0.00    +0.095 C 
ATOM      8  C   UNL     1      34.944 -21.401 -19.650  0.00  0.00    +0.020 C 
ATOM      9  C   UNL     1      33.568 -21.491 -19.509  0.00  0.00    +0.099 C 
ENDBRANCH   1   5
BRANCH   1  11
ATOM     10  O   UNL     1      35.352 -16.696 -20.110  0.00  0.00    -0.291 OA
ATOM     11  C   UNL     1      34.888 -16.962 -21.221  0.00  0.00    +0.178 C 
BRANCH  11  13
ATOM     12  N   UNL     1      32.201 -14.501 -22.044  0.00  0.00    -0.242 NA
ATOM     13  C   UNL     1      34.151 -15.871 -21.916  0.00  0.00    +0.054 C 
ATOM     14  C   UNL     1      34.711 -15.262 -23.011  0.00  0.00    +0.006 C 
ATOM     15  C   UNL     1      32.922 -15.484 -21.458  0.00  0.00    +0.102 C 
ATOM     16  C   UNL     1      33.999 -14.246 -23.640  0.00  0.00    +0.021 C 
ATOM     17  C   UNL     1      32.759 -13.906 -23.121  0.00  0.00    +0.099 C 
ENDBRANCH  11  13
ENDBRANCH   1  11
TORSDOF 3
ENDMDL
MODEL 2
REMARK VINA RESULT:      -8.9      0.706      1.170
REMARK  Name = 4174
REMARK  3 active torsions:
REMARK  status: ('A' for Active; 'I' for Inactive)
REMARK    1  A    between atoms: C_1  and  C_5
REMARK    2  A    between atoms: C_1  and  C_11
REMARK    3  A    between atoms: C_11  and  C_13
REMARK                            x       y       z     vdW  Elec       q    Type
REMARK                         _______ _______ _______ _____ _____    ______ ____
ROOT
ATOM      1  C   UNL     1      35.122 -18.300 -21.923  0.00  0.00    +0.076 C 
ATOM      2  C   UNL     1      34.495 -18.232 -23.333  0.00  0.00    +0.012 C 
ATOM      3  C   UNL     1      36.648 -18.491 -22.138  0.00  0.00    +0.012 C 
ENDROOT
BRANCH   1   5
ATOM      4  N   UNL     1      35.196 -21.365 -19.731  0.00  0.00    -0.243 NA
ATOM      5  C   UNL     1      34.640 -19.466 -21.048  0.00  0.00    +0.003 C 
ATOM      6  C   UNL     1      33.301 -19.625 -20.826  0.00  0.00    -0.001 C 
ATOM      7  C   UNL     1      35.554 -20.318 -20.510  0.00  0.00    +0.095 C 
ATOM      8  C   UNL     1      32.894 -20.690 -20.030  0.00  0.00    +0.020 C 
ATOM      9  C   UNL     1      33.872 -21.524 -19.512  0.00  0.00    +0.099 C 
ENDBRANCH   1   5
BRANCH   1  11
ATOM     10  O   UNL     1      35.366 -16.653 -20.152  0.00  0.00    -0.291 OA
ATOM     11  C   UNL     1      34.904 -16.916 -21.264  0.00  0.00    +0.178 C 
BRANCH  11  13
ATOM     12  N   UNL     1      32.197 -14.467 -22.059  0.00  0.00    -0.242 NA
ATOM     13  C   UNL     1      34.153 -15.829 -21.951  0.00  0.00    +0.054 C 
ATOM     14  C   UNL     1      34.699 -15.219 -23.053  0.00  0.00    +0.006 C 
ATOM     15  C   UNL     1      32.929 -15.447 -21.481  0.00  0.00    +0.102 C 
ATOM     16  C   UNL     1      33.976 -14.207 -23.675  0.00  0.00    +0.021 C 
ATOM     17  C   UNL     1      32.741 -13.871 -23.143  0.00  0.00    +0.099 C 
ENDBRANCH  11  13
ENDBRANCH   1  11
TORSDOF 3
ENDMDL
MODEL 3
REMARK VINA RESULT:      -8.4      1.608      5.693
REMARK  Name = 4174
REMARK  3 active torsions:
REMARK  status: ('A' for Active; 'I' for Inactive)
REMARK    1  A    between atoms: C_1  and  C_5
REMARK    2  A    between atoms: C_1  and  C_11
REMARK    3  A    between atoms: C_11  and  C_13
REMARK                            x       y       z     vdW  Elec       q    Type
REMARK                         _______ _______ _______ _____ _____    ______ ____
ROOT
ATOM      1  C   UNL     1      35.106 -18.270 -22.834  0.00  0.00    +0.076 C 
ATOM      2  C   UNL     1      36.592 -18.158 -22.428  0.00  0.00    +0.012 C 
ATOM      3  C   UNL     1      34.974 -19.600 -23.625  0.00  0.00    +0.012 C 
ENDROOT
BRANCH   1   5
ATOM      4  N   UNL     1      33.851 -16.484 -25.907  0.00  0.00    -0.243 NA
ATOM      5  C   UNL     1      34.591 -17.149 -23.748  0.00  0.00    +0.003 C 
ATOM      6  C   UNL     1      34.427 -15.892 -23.235  0.00  0.00    -0.001 C 
ATOM      7  C   UNL     1      34.307 -17.426 -25.050  0.00  0.00    +0.095 C 
ATOM      8  C   UNL     1      33.960 -14.897 -24.086  0.00  0.00    +0.020 C 
ATOM      9  C   UNL     1      33.690 -15.241 -25.401  0.00  0.00    +0.099 C 
ENDBRANCH   1   5
BRANCH   1  11
ATOM     10  O   UNL     1      33.674 -17.456 -21.046  0.00  0.00    -0.291 OA
ATOM     11  C   UNL     1      34.289 -18.411 -21.527  0.00  0.00    +0.178 C 
BRANCH  11  13
ATOM     12  N   UNL     1      32.786 -21.448 -19.956  0.00  0.00    -0.242 NA
ATOM     13  C   UNL     1      34.181 -19.708 -20.805  0.00  0.00    +0.054 C 
ATOM     14  C   UNL     1      35.317 -20.328 -20.346  0.00  0.00    +0.006 C 
ATOM     15  C   UNL     1      32.953 -20.273 -20.604  0.00  0.00    +0.102 C 
ATOM     16  C   UNL     1      35.185 -21.538 -19.675  0.00  0.00    +0.021 C 
ATOM     17  C   UNL     1      33.909 -22.052 -19.508  0.00  0.00    +0.099 C 
ENDBRANCH  11  13
ENDBRANCH   1  11
TORSDOF 3
ENDMDL
MODEL 4
REMARK VINA RESULT:      -8.1      1.872      2.450
REMARK  Name = 4174
REMARK  3 active torsions:
REMARK  status: ('A' for Active; 'I' for Inactive)
REMARK    1  A    between atoms: C_1  and  C_5
REMARK    2  A    between atoms: C_1  and  C_11
REMARK    3  A    between atoms: C_11  and  C_13
REMARK                            x       y       z     vdW  Elec       q    Type
REMARK                         _______ _______ _______ _____ _____    ______ ____
ROOT
ATOM      1  C   UNL     1      35.450 -18.654 -21.723  0.00  0.00    +0.076 C 
ATOM      2  C   UNL     1      36.994 -18.701 -21.701  0.00  0.00    +0.012 C 
ATOM      3  C   UNL     1      35.051 -17.280 -21.120  0.00  0.00    +0.012 C 
ENDROOT
BRANCH   1   5
ATOM      4  N   UNL     1      32.717 -20.646 -20.060  0.00  0.00    -0.243 NA
ATOM      5  C   UNL     1      34.751 -19.735 -20.886  0.00  0.00    +0.003 C 
ATOM      6  C   UNL     1      35.505 -20.687 -20.260  0.00  0.00    -0.001 C 
ATOM      7  C   UNL     1      33.394 -19.724 -20.782  0.00  0.00    +0.095 C 
ATOM      8  C   UNL     1      34.845 -21.652 -19.508  0.00  0.00    +0.020 C 
ATOM      9  C   UNL     1      33.462 -21.588 -19.440  0.00  0.00    +0.099 C 
ENDBRANCH   1   5
BRANCH   1  11
ATOM     10  O   UNL     1      35.004 -19.707 -23.868  0.00  0.00    -0.291 OA
ATOM     11  C   UNL     1      35.018 -18.665 -23.210  0.00  0.00    +0.178 C 
BRANCH  11  13
ATOM     12  N   UNL     1      33.889 -16.374 -25.935  0.00  0.00    -0.242 NA
ATOM     13  C   UNL     1      34.570 -17.427 -23.906  0.00  0.00    +0.054 C 
ATOM     14  C   UNL     1      34.431 -16.261 -23.196  0.00  0.00    +0.006 C 
ATOM     15  C   UNL     1      34.299 -17.462 -25.245  0.00  0.00    +0.102 C 
ATOM     16  C   UNL     1      34.010 -15.121 -23.872  0.00  0.00    +0.021 C 
ATOM     17  C   UNL     1      33.754 -15.229 -25.229  0.00  0.00    +0.099 C 
ENDBRANCH  11  13
ENDBRANCH   1  11
TORSDOF 3
ENDMDL
MODEL 5
REMARK VINA RESULT:      -7.6      1.809      5.876
REMARK  Name = 4174
REMARK  3 active torsions:
REMARK  status: ('A' for Active; 'I' for Inactive)
REMARK    1  A    between atoms: C_1  and  C_5
REMARK    2  A    between atoms: C_1  and  C_11
REMARK    3  A    between atoms: C_11  and  C_13
REMARK                            x       y       z     vdW  Elec       q    Type
REMARK                         _______ _______ _______ _____ _____    ______ ____
ROOT
ATOM      1  C   UNL     1      34.613 -18.765 -22.011  0.00  0.00    +0.076 C 
ATOM      2  C   UNL     1      34.827 -19.399 -23.403  0.00  0.00    +0.012 C 
ATOM      3  C   UNL     1      33.214 -19.240 -21.532  0.00  0.00    +0.012 C 
ENDROOT
BRANCH   1   5
ATOM      4  N   UNL     1      34.898 -15.190 -23.166  0.00  0.00    -0.243 NA
ATOM      5  C   UNL     1      34.603 -17.230 -21.984  0.00  0.00    +0.003 C 
ATOM      6  C   UNL     1      34.308 -16.585 -20.816  0.00  0.00    -0.001 C 
ATOM      7  C   UNL     1      34.888 -16.541 -23.122  0.00  0.00    +0.095 C 
ATOM      8  C   UNL     1      34.308 -15.194 -20.821  0.00  0.00    +0.020 C 
ATOM      9  C   UNL     1      34.607 -14.550 -22.011  0.00  0.00    +0.099 C 
ENDBRANCH   1   5
BRANCH   1  11
ATOM     10  O   UNL     1      36.833 -18.965 -21.041  0.00  0.00    -0.291 OA
ATOM     11  C   UNL     1      35.673 -19.381 -21.066  0.00  0.00    +0.178 C 
BRANCH  11  13
ATOM     12  N   UNL     1      36.088 -22.069 -18.505  0.00  0.00    -0.242 NA
ATOM     13  C   UNL     1      35.337 -20.481 -20.120  0.00  0.00    +0.054 C 
ATOM     14  C   UNL     1      34.036 -20.900 -19.999  0.00  0.00    +0.006 C 
ATOM     15  C   UNL     1      36.326 -21.066 -19.380  0.00  0.00    +0.102 C 
ATOM     16  C   UNL     1      33.751 -21.929 -19.108  0.00  0.00    +0.021 C 
ATOM     17  C   UNL     1      34.804 -22.475 -18.391  0.00  0.00    +0.099 C 
ENDBRANCH  11  13
ENDBRANCH   1  11
TORSDOF 3
ENDMDL
MODEL 6
REMARK VINA RESULT:      -7.6      8.329     10.474
REMARK  Name = 4174
REMARK  3 active torsions:
REMARK  status: ('A' for Active; 'I' for Inactive)
REMARK    1  A    between atoms: C_1  and  C_5
REMARK    2  A    between atoms: C_1  and  C_11
REMARK    3  A    between atoms: C_11  and  C_13
REMARK                            x       y       z     vdW  Elec       q    Type
REMARK                         _______ _______ _______ _____ _____    ______ ____
ROOT
ATOM      1  C   UNL     1      32.550  -8.621 -22.808  0.00  0.00    +0.076 C 
ATOM      2  C   UNL     1      33.154  -9.567 -23.869  0.00  0.00    +0.012 C 
ATOM      3  C   UNL     1      33.664  -7.597 -22.458  0.00  0.00    +0.012 C 
ENDROOT
BRANCH   1   5
ATOM      4  N   UNL     1      31.971  -9.177 -19.126  0.00  0.00    -0.243 NA
ATOM      5  C   UNL     1      32.128  -9.295 -21.494  0.00  0.00    +0.003 C 
ATOM      6  C   UNL     1      31.569 -10.541 -21.533  0.00  0.00    -0.001 C 
ATOM      7  C   UNL     1      32.319  -8.639 -20.317  0.00  0.00    +0.095 C 
ATOM      8  C   UNL     1      31.198 -11.127 -20.328  0.00  0.00    +0.020 C 
ATOM      9  C   UNL     1      31.419 -10.410 -19.162  0.00  0.00    +0.099 C 
ENDBRANCH   1   5
BRANCH   1  11
ATOM     10  O   UNL     1      30.439  -8.442 -23.999  0.00  0.00    -0.291 OA
ATOM     11  C   UNL     1      31.395  -7.851 -23.492  0.00  0.00    +0.178 C 
BRANCH  11  13
ATOM     12  N   UNL     1      30.756  -4.307 -22.501  0.00  0.00    -0.242 NA
ATOM     13  C   UNL     1      31.366  -6.363 -23.546  0.00  0.00    +0.054 C 
ATOM     14  C   UNL     1      31.894  -5.711 -24.632  0.00  0.00    +0.006 C 
ATOM     15  C   UNL     1      30.814  -5.658 -22.513  0.00  0.00    +0.102 C 
ATOM     16  C   UNL     1      31.853  -4.322 -24.654  0.00  0.00    +0.021 C 
ATOM     17  C   UNL     1      31.279  -3.672 -23.573  0.00  0.00    +0.099 C 
ENDBRANCH  11  13
ENDBRANCH   1  11
TORSDOF 3
ENDMDL
MODEL 7
REMARK VINA RESULT:      -7.5      1.497      5.793
REMARK  Name = 4174
REMARK  3 active torsions:
REMARK  status: ('A' for Active; 'I' for Inactive)
REMARK    1  A    between atoms: C_1  and  C_5
REMARK    2  A    between atoms: C_1  and  C_11
REMARK    3  A    between atoms: C_11  and  C_13
REMARK                            x       y       z     vdW  Elec       q    Type
REMARK                         _______ _______ _______ _____ _____    ______ ____
ROOT
ATOM      1  C   UNL     1      35.044 -18.372 -21.823  0.00  0.00    +0.076 C 
ATOM      2  C   UNL     1      36.326 -18.761 -21.054  0.00  0.00    +0.012 C 
ATOM      3  C   UNL     1      35.202 -18.962 -23.251  0.00  0.00    +0.012 C 
ENDROOT
BRANCH   1   5
ATOM      4  N   UNL     1      34.482 -14.752 -20.941  0.00  0.00    -0.243 NA
ATOM      5  C   UNL     1      34.807 -16.863 -21.982  0.00  0.00    +0.003 C 
ATOM      6  C   UNL     1      34.717 -16.330 -23.237  0.00  0.00    -0.001 C 
ATOM      7  C   UNL     1      34.692 -16.086 -20.871  0.00  0.00    +0.095 C 
ATOM      8  C   UNL     1      34.500 -14.961 -23.350  0.00  0.00    +0.020 C 
ATOM      9  C   UNL     1      34.391 -14.223 -22.182  0.00  0.00    +0.099 C 
ENDBRANCH   1   5
BRANCH   1  11
ATOM     10  O   UNL     1      32.703 -18.708 -21.260  0.00  0.00    -0.291 OA
ATOM     11  C   UNL     1      33.864 -19.102 -21.135  0.00  0.00    +0.178 C 
BRANCH  11  13
ATOM     12  N   UNL     1      33.116 -22.066 -18.988  0.00  0.00    -0.242 NA
ATOM     13  C   UNL     1      34.070 -20.328 -20.316  0.00  0.00    +0.054 C 
ATOM     14  C   UNL     1      35.338 -20.826 -20.145  0.00  0.00    +0.006 C 
ATOM     15  C   UNL     1      32.997 -20.950 -19.742  0.00  0.00    +0.102 C 
ATOM     16  C   UNL     1      35.501 -21.973 -19.376  0.00  0.00    +0.021 C 
ATOM     17  C   UNL     1      34.367 -22.550 -18.824  0.00  0.00    +0.099 C 
ENDBRANCH  11  13
ENDBRANCH   1  11
TORSDOF 3
ENDMDL
MODEL 8
REMARK VINA RESULT:      -7.4      7.516      9.846
REMARK  Name = 4174
REMARK  3 active torsions:
REMARK  status: ('A' for Active; 'I' for Inactive)
REMARK    1  A    between atoms: C_1  and  C_5
REMARK    2  A    between atoms: C_1  and  C_11
REMARK    3  A    between atoms: C_11  and  C_13
REMARK                            x       y       z     vdW  Elec       q    Type
REMARK                         _______ _______ _______ _____ _____    ______ ____
ROOT
ATOM      1  C   UNL     1      36.554 -24.244 -14.658  0.00  0.00    +0.076 C 
ATOM      2  C   UNL     1      35.948 -25.580 -15.143  0.00  0.00    +0.012 C 
ATOM      3  C   UNL     1      38.056 -24.284 -15.048  0.00  0.00    +0.012 C 
ENDROOT
BRANCH   1   5
ATOM      4  N   UNL     1      37.315 -22.841 -11.244  0.00  0.00    -0.243 NA
ATOM      5  C   UNL     1      36.487 -24.007 -13.142  0.00  0.00    +0.003 C 
ATOM      6  C   UNL     1      35.590 -24.717 -12.395  0.00  0.00    -0.001 C 
ATOM      7  C   UNL     1      37.322 -23.096 -12.572  0.00  0.00    +0.095 C 
ATOM      8  C   UNL     1      35.553 -24.482 -11.025  0.00  0.00    +0.020 C 
ATOM      9  C   UNL     1      36.428 -23.543 -10.503  0.00  0.00    +0.099 C 
ENDBRANCH   1   5
BRANCH   1  11
ATOM     10  O   UNL     1      36.524 -22.159 -15.908  0.00  0.00    -0.291 OA
ATOM     11  C   UNL     1      35.879 -23.117 -15.478  0.00  0.00    +0.178 C 
BRANCH  11  13
ATOM     12  N   UNL     1      32.732 -23.137 -17.491  0.00  0.00    -0.242 NA
ATOM     13  C   UNL     1      34.428 -23.152 -15.813  0.00  0.00    +0.054 C 
ATOM     14  C   UNL     1      33.500 -23.225 -14.805  0.00  0.00    +0.006 C 
ATOM     15  C   UNL     1      34.032 -23.110 -17.120  0.00  0.00    +0.102 C 
ATOM     16  C   UNL     1      32.152 -23.256 -15.147  0.00  0.00    +0.021 C 
ATOM     17  C   UNL     1      31.824 -23.210 -16.493  0.00  0.00    +0.099 C 
ENDBRANCH  11  13
ENDBRANCH   1  11
TORSDOF 3
ENDMDL
MODEL 9
REMARK VINA RESULT:      -7.4      1.825      6.157
REMARK  Name = 4174
REMARK  3 active torsions:
REMARK  status: ('A' for Active; 'I' for Inactive)
REMARK    1  A    between atoms: C_1  and  C_5
REMARK    2  A    between atoms: C_1  and  C_11
REMARK    3  A    between atoms: C_11  and  C_13
REMARK                            x       y       z     vdW  Elec       q    Type
REMARK                         _______ _______ _______ _____ _____    ______ ____
ROOT
ATOM      1  C   UNL     1      33.569 -15.686 -21.318  0.00  0.00    +0.076 C 
ATOM      2  C   UNL     1      32.310 -16.194 -20.580  0.00  0.00    +0.012 C 
ATOM      3  C   UNL     1      34.606 -15.343 -20.215  0.00  0.00    +0.012 C 
ENDROOT
BRANCH   1   5
ATOM      4  N   UNL     1      34.097 -13.057 -23.966  0.00  0.00    -0.243 NA
ATOM      5  C   UNL     1      33.367 -14.417 -22.158  0.00  0.00    +0.003 C 
ATOM      6  C   UNL     1      32.337 -13.571 -21.855  0.00  0.00    -0.001 C 
ATOM      7  C   UNL     1      34.218 -14.157 -23.188  0.00  0.00    +0.095 C 
ATOM      8  C   UNL     1      32.181 -12.429 -22.632  0.00  0.00    +0.020 C 
ATOM      9  C   UNL     1      33.079 -12.220 -23.666  0.00  0.00    +0.099 C 
ENDBRANCH   1   5
BRANCH   1  11
ATOM     10  O   UNL     1      34.210 -16.824 -23.368  0.00  0.00    -0.291 OA
ATOM     11  C   UNL     1      34.122 -16.875 -22.139  0.00  0.00    +0.178 C 
BRANCH  11  13
ATOM     12  N   UNL     1      36.436 -19.396 -20.640  0.00  0.00    -0.242 NA
ATOM     13  C   UNL     1      34.603 -18.124 -21.486  0.00  0.00    +0.054 C 
ATOM     14  C   UNL     1      33.703 -19.103 -21.145  0.00  0.00    +0.006 C 
ATOM     15  C   UNL     1      35.936 -18.287 -21.230  0.00  0.00    +0.102 C 
ATOM     16  C   UNL     1      34.180 -20.258 -20.536  0.00  0.00    +0.021 C 
ATOM     17  C   UNL     1      35.544 -20.355 -20.307  0.00  0.00    +0.099 C 
ENDBRANCH  11  13
ENDBRANCH   1  11
TORSDOF 3
ENDMDL
