MODEL 1
REMARK VINA RESULT:     -10.7      0.000      0.000
REMARK  Name = 446244
REMARK  2 active torsions:
REMARK  status: ('A' for Active; 'I' for Inactive)
REMARK    1  A    between atoms: C_6  and  S_17
REMARK    2  A    between atoms: S_17  and  C_18
REMARK                            x       y       z     vdW  Elec       q    Type
REMARK                         _______ _______ _______ _____ _____    ______ ____
ROOT
ATOM      1  N   UNL     1      32.983 -14.320 -24.182  0.00  0.00    -0.332 NA
ATOM      2  N   UNL     1      33.724 -16.012 -25.728  0.00  0.00    -0.317 NA
ATOM      3  N   UNL     1      35.015 -17.799 -25.071  0.00  0.00    -0.335 N 
ATOM      4  N   UNL     1      32.411 -14.213 -26.454  0.00  0.00    -0.283 N 
ATOM      5  C   UNL     1      34.326 -16.143 -23.392  0.00  0.00    +0.149 C 
ATOM      6  C   UNL     1      34.980 -16.796 -22.332  0.00  0.00    +0.022 C 
ATOM      7  C   UNL     1      33.612 -14.953 -23.176  0.00  0.00    +0.135 C 
ATOM      8  C   UNL     1      34.343 -16.621 -24.699  0.00  0.00    +0.178 C 
ATOM      9  C   UNL     1      34.925 -16.265 -21.048  0.00  0.00    +0.003 C 
ATOM     10  C   UNL     1      33.574 -14.444 -21.880  0.00  0.00    +0.029 C 
ATOM     11  C   UNL     1      34.221 -15.087 -20.821  0.00  0.00    +0.003 C 
ATOM     12  C   UNL     1      33.074 -14.884 -25.404  0.00  0.00    +0.197 C 
ATOM     13  H   UNL     1      35.000 -18.100 -26.009  0.00  0.00    +0.144 HD
ATOM     14  H   UNL     1      35.500 -18.324 -24.394  0.00  0.00    +0.144 HD
ATOM     15  H   UNL     1      31.918 -13.381 -26.273  0.00  0.00    +0.156 HD
ATOM     16  H   UNL     1      32.442 -14.578 -27.368  0.00  0.00    +0.156 HD
ENDROOT
BRANCH   6  17
ATOM     17  S   UNL     1      35.943 -18.319 -22.389  0.00  0.00    -0.090 S 
BRANCH  17  18
ATOM     18  C   UNL     1      34.948 -19.375 -21.351  0.00  0.00    +0.029 C 
ATOM     19  C   UNL     1      33.559 -19.248 -21.355  0.00  0.00    +0.006 C 
ATOM     20  C   UNL     1      35.559 -20.327 -20.537  0.00  0.00    +0.006 C 
ATOM     21  C   UNL     1      32.782 -20.073 -20.544  0.00  0.00    +0.001 C 
ATOM     22  C   UNL     1      34.782 -21.153 -19.725  0.00  0.00    +0.001 C 
ATOM     23  C   UNL     1      33.392 -21.026 -19.729  0.00  0.00    +0.000 C 
ENDBRANCH  17  18
ENDBRANCH   6  17
TORSDOF 2
ENDMDL
MODEL 2
REMARK VINA RESULT:      -9.8      1.565      2.729
REMARK  Name = 446244
REMARK  2 active torsions:
REMARK  status: ('A' for Active; 'I' for Inactive)
REMARK    1  A    between atoms: C_6  and  S_17
REMARK    2  A    between atoms: S_17  and  C_18
REMARK                            x       y       z     vdW  Elec       q    Type
REMARK                         _______ _______ _______ _____ _____    ______ ____
ROOT
ATOM      1  N   UNL     1      33.036 -14.732 -23.743  0.00  0.00    -0.332 NA
ATOM      2  N   UNL     1      33.585 -14.526 -21.406  0.00  0.00    -0.317 NA
ATOM      3  N   UNL     1      34.965 -16.020 -20.330  0.00  0.00    -0.335 N 
ATOM      4  N   UNL     1      32.174 -12.975 -22.450  0.00  0.00    -0.283 N 
ATOM      5  C   UNL     1      34.485 -16.345 -22.718  0.00  0.00    +0.149 C 
ATOM      6  C   UNL     1      35.275 -17.504 -22.822  0.00  0.00    +0.022 C 
ATOM      7  C   UNL     1      33.794 -15.839 -23.831  0.00  0.00    +0.135 C 
ATOM      8  C   UNL     1      34.336 -15.637 -21.529  0.00  0.00    +0.178 C 
ATOM      9  C   UNL     1      35.382 -18.166 -24.041  0.00  0.00    +0.003 C 
ATOM     10  C   UNL     1      33.919 -16.522 -25.039  0.00  0.00    +0.029 C 
ATOM     11  C   UNL     1      34.703 -17.674 -25.151  0.00  0.00    +0.003 C 
ATOM     12  C   UNL     1      32.972 -14.137 -22.535  0.00  0.00    +0.197 C 
ATOM     13  H   UNL     1      34.831 -15.488 -19.512  0.00  0.00    +0.144 HD
ATOM     14  H   UNL     1      35.539 -16.819 -20.309  0.00  0.00    +0.144 HD
ATOM     15  H   UNL     1      31.701 -12.643 -23.248  0.00  0.00    +0.156 HD
ATOM     16  H   UNL     1      32.090 -12.497 -21.594  0.00  0.00    +0.156 HD
ENDROOT
BRANCH   6  17
ATOM     17  S   UNL     1      36.236 -18.315 -21.530  0.00  0.00    -0.090 S 
BRANCH  17  18
ATOM     18  C   UNL     1      35.029 -19.467 -20.899  0.00  0.00    +0.029 C 
ATOM     19  C   UNL     1      33.669 -19.232 -21.100  0.00  0.00    +0.006 C 
ATOM     20  C   UNL     1      35.446 -20.602 -20.205  0.00  0.00    +0.006 C 
ATOM     21  C   UNL     1      32.726 -20.132 -20.606  0.00  0.00    +0.001 C 
ATOM     22  C   UNL     1      34.503 -21.503 -19.710  0.00  0.00    +0.001 C 
ATOM     23  C   UNL     1      33.142 -21.268 -19.911  0.00  0.00    +0.000 C 
ENDBRANCH  17  18
ENDBRANCH   6  17
TORSDOF 2
ENDMDL
MODEL 3
REMARK VINA RESULT:      -9.2      1.165      1.343
REMARK  Name = 446244
REMARK  2 active torsions:
REMARK  status: ('A' for Active; 'I' for Inactive)
REMARK    1  A    between atoms: C_6  and  S_17
REMARK    2  A    between atoms: S_17  and  C_18
REMARK                            x       y       z     vdW  Elec       q    Type
REMARK                         _______ _______ _______ _____ _____    ______ ____
ROOT
ATOM      1  N   UNL     1      34.019 -13.253 -23.008  0.00  0.00    -0.332 NA
ATOM      2  N   UNL     1      33.819 -14.358 -25.139  0.00  0.00    -0.317 NA
ATOM      3  N   UNL     1      34.030 -16.638 -25.368  0.00  0.00    -0.335 N 
ATOM      4  N   UNL     1      33.595 -12.033 -24.966  0.00  0.00    -0.283 N 
ATOM      5  C   UNL     1      34.256 -15.635 -23.135  0.00  0.00    +0.149 C 
ATOM      6  C   UNL     1      34.485 -16.867 -22.495  0.00  0.00    +0.022 C 
ATOM      7  C   UNL     1      34.237 -14.435 -22.406  0.00  0.00    +0.135 C 
ATOM      8  C   UNL     1      34.040 -15.526 -24.506  0.00  0.00    +0.178 C 
ATOM      9  C   UNL     1      34.695 -16.908 -21.121  0.00  0.00    +0.003 C 
ATOM     10  C   UNL     1      34.450 -14.506 -21.032  0.00  0.00    +0.029 C 
ATOM     11  C   UNL     1      34.677 -15.726 -20.388  0.00  0.00    +0.003 C 
ATOM     12  C   UNL     1      33.822 -13.279 -24.342  0.00  0.00    +0.197 C 
ATOM     13  H   UNL     1      33.873 -16.512 -26.332  0.00  0.00    +0.144 HD
ATOM     14  H   UNL     1      34.181 -17.542 -25.007  0.00  0.00    +0.144 HD
ATOM     15  H   UNL     1      33.586 -11.208 -24.430  0.00  0.00    +0.156 HD
ATOM     16  H   UNL     1      33.444 -11.990 -25.938  0.00  0.00    +0.156 HD
ENDROOT
BRANCH   6  17
ATOM     17  S   UNL     1      34.551 -18.510 -23.235  0.00  0.00    -0.090 S 
BRANCH  17  18
ATOM     18  C   UNL     1      34.466 -19.530 -21.774  0.00  0.00    +0.029 C 
ATOM     19  C   UNL     1      33.229 -19.834 -21.207  0.00  0.00    +0.006 C 
ATOM     20  C   UNL     1      35.637 -20.024 -21.201  0.00  0.00    +0.006 C 
ATOM     21  C   UNL     1      33.163 -20.631 -20.066  0.00  0.00    +0.001 C 
ATOM     22  C   UNL     1      35.572 -20.822 -20.059  0.00  0.00    +0.001 C 
ATOM     23  C   UNL     1      34.334 -21.126 -19.491  0.00  0.00    +0.000 C 
ENDBRANCH  17  18
ENDBRANCH   6  17
TORSDOF 2
ENDMDL
MODEL 4
REMARK VINA RESULT:      -9.1      8.470     10.473
REMARK  Name = 446244
REMARK  2 active torsions:
REMARK  status: ('A' for Active; 'I' for Inactive)
REMARK    1  A    between atoms: C_6  and  S_17
REMARK    2  A    between atoms: S_17  and  C_18
REMARK                            x       y       z     vdW  Elec       q    Type
REMARK                         _______ _______ _______ _____ _____    ______ ____
ROOT
ATOM      1  N   UNL     1      32.094  -4.942 -25.011  0.00  0.00    -0.332 NA
ATOM      2  N   UNL     1      30.585  -4.420 -23.206  0.00  0.00    -0.317 NA
ATOM      3  N   UNL     1      30.726  -5.442 -21.150  0.00  0.00    -0.335 N 
ATOM      4  N   UNL     1      30.395  -3.348 -25.280  0.00  0.00    -0.283 N 
ATOM      5  C   UNL     1      32.328  -6.067 -22.906  0.00  0.00    +0.149 C 
ATOM      6  C   UNL     1      32.999  -7.003 -22.100  0.00  0.00    +0.022 C 
ATOM      7  C   UNL     1      32.728  -5.836 -24.232  0.00  0.00    +0.135 C 
ATOM      8  C   UNL     1      31.243  -5.321 -22.453  0.00  0.00    +0.178 C 
ATOM      9  C   UNL     1      34.078  -7.716 -22.613  0.00  0.00    +0.003 C 
ATOM     10  C   UNL     1      33.811  -6.563 -24.720  0.00  0.00    +0.029 C 
ATOM     11  C   UNL     1      34.484  -7.496 -23.926  0.00  0.00    +0.003 C 
ATOM     12  C   UNL     1      31.056  -4.283 -24.456  0.00  0.00    +0.197 C 
ATOM     13  H   UNL     1      29.956  -4.893 -20.873  0.00  0.00    +0.144 HD
ATOM     14  H   UNL     1      31.135  -6.073 -20.514  0.00  0.00    +0.144 HD
ATOM     15  H   UNL     1      30.698  -3.206 -26.206  0.00  0.00    +0.156 HD
ATOM     16  H   UNL     1      29.630  -2.836 -24.929  0.00  0.00    +0.156 HD
ENDROOT
BRANCH   6  17
ATOM     17  S   UNL     1      32.653  -7.450 -20.388  0.00  0.00    -0.090 S 
BRANCH  17  18
ATOM     18  C   UNL     1      32.046  -9.114 -20.600  0.00  0.00    +0.029 C 
ATOM     19  C   UNL     1      31.975  -9.975 -19.505  0.00  0.00    +0.006 C 
ATOM     20  C   UNL     1      31.643  -9.552 -21.860  0.00  0.00    +0.006 C 
ATOM     21  C   UNL     1      31.501 -11.275 -19.671  0.00  0.00    +0.001 C 
ATOM     22  C   UNL     1      31.168 -10.854 -22.027  0.00  0.00    +0.001 C 
ATOM     23  C   UNL     1      31.097 -11.715 -20.931  0.00  0.00    +0.000 C 
ENDBRANCH  17  18
ENDBRANCH   6  17
TORSDOF 2
ENDMDL
MODEL 5
REMARK VINA RESULT:      -8.7      3.505      6.688
REMARK  Name = 446244
REMARK  2 active torsions:
REMARK  status: ('A' for Active; 'I' for Inactive)
REMARK    1  A    between atoms: C_6  and  S_17
REMARK    2  A    between atoms: S_17  and  C_18
REMARK                            x       y       z     vdW  Elec       q    Type
REMARK                         _______ _______ _______ _____ _____    ______ ____
ROOT
ATOM      1  N   UNL     1      35.017 -21.665 -18.660  0.00  0.00    -0.332 NA
ATOM      2  N   UNL     1      37.227 -20.851 -19.167  0.00  0.00    -0.317 NA
ATOM      3  N   UNL     1      37.634 -19.396 -20.902  0.00  0.00    -0.335 N 
ATOM      4  N   UNL     1      36.871 -22.332 -17.388  0.00  0.00    -0.283 N 
ATOM      5  C   UNL     1      35.331 -20.150 -20.492  0.00  0.00    +0.149 C 
ATOM      6  C   UNL     1      34.791 -19.405 -21.555  0.00  0.00    +0.022 C 
ATOM      7  C   UNL     1      34.511 -20.949 -19.679  0.00  0.00    +0.135 C 
ATOM      8  C   UNL     1      36.688 -20.146 -20.180  0.00  0.00    +0.178 C 
ATOM      9  C   UNL     1      33.425 -19.453 -21.814  0.00  0.00    +0.003 C 
ATOM     10  C   UNL     1      33.147 -20.978 -19.961  0.00  0.00    +0.029 C 
ATOM     11  C   UNL     1      32.602 -20.241 -21.016  0.00  0.00    +0.003 C 
ATOM     12  C   UNL     1      36.348 -21.577 -18.460  0.00  0.00    +0.197 C 
ATOM     13  H   UNL     1      38.585 -19.424 -20.646  0.00  0.00    +0.144 HD
ATOM     14  H   UNL     1      37.346 -18.843 -21.664  0.00  0.00    +0.144 HD
ATOM     15  H   UNL     1      36.272 -22.883 -16.834  0.00  0.00    +0.156 HD
ATOM     16  H   UNL     1      37.836 -22.307 -17.193  0.00  0.00    +0.156 HD
ENDROOT
BRANCH   6  17
ATOM     17  S   UNL     1      35.657 -18.325 -22.710  0.00  0.00    -0.090 S 
BRANCH  17  18
ATOM     18  C   UNL     1      35.003 -16.738 -22.227  0.00  0.00    +0.029 C 
ATOM     19  C   UNL     1      34.836 -16.434 -20.877  0.00  0.00    +0.006 C 
ATOM     20  C   UNL     1      34.660 -15.801 -23.201  0.00  0.00    +0.006 C 
ATOM     21  C   UNL     1      34.325 -15.193 -20.500  0.00  0.00    +0.001 C 
ATOM     22  C   UNL     1      34.148 -14.559 -22.825  0.00  0.00    +0.001 C 
ATOM     23  C   UNL     1      33.981 -14.255 -21.473  0.00  0.00    +0.000 C 
ENDBRANCH  17  18
ENDBRANCH   6  17
TORSDOF 2
ENDMDL
MODEL 6
REMARK VINA RESULT:      -8.5      3.409      7.146
REMARK  Name = 446244
REMARK  2 active torsions:
REMARK  status: ('A' for Active; 'I' for Inactive)
REMARK    1  A    between atoms: C_6  and  S_17
REMARK    2  A    between atoms: S_17  and  C_18
REMARK                            x       y       z     vdW  Elec       q    Type
REMARK                         _______ _______ _______ _____ _____    ______ ____
ROOT
ATOM      1  N   UNL     1      35.079 -17.260 -23.726  0.00  0.00    -0.332 NA
ATOM      2  N   UNL     1      34.939 -16.341 -21.503  0.00  0.00    -0.317 NA
ATOM      3  N   UNL     1      33.782 -14.407 -21.042  0.00  0.00    -0.335 N 
ATOM      4  N   UNL     1      36.134 -18.314 -21.914  0.00  0.00    -0.283 N 
ATOM      5  C   UNL     1      33.846 -15.238 -23.354  0.00  0.00    +0.149 C 
ATOM      6  C   UNL     1      33.061 -14.186 -23.860  0.00  0.00    +0.022 C 
ATOM      7  C   UNL     1      34.329 -16.250 -24.199  0.00  0.00    +0.135 C 
ATOM      8  C   UNL     1      34.190 -15.344 -22.010  0.00  0.00    +0.178 C 
ATOM      9  C   UNL     1      32.752 -14.138 -25.215  0.00  0.00    +0.003 C 
ATOM     10  C   UNL     1      34.004 -16.177 -25.551  0.00  0.00    +0.029 C 
ATOM     11  C   UNL     1      33.225 -15.136 -26.062  0.00  0.00    +0.003 C 
ATOM     12  C   UNL     1      35.344 -17.250 -22.403  0.00  0.00    +0.197 C 
ATOM     13  H   UNL     1      34.049 -14.522 -20.101  0.00  0.00    +0.144 HD
ATOM     14  H   UNL     1      33.227 -13.637 -21.305  0.00  0.00    +0.144 HD
ATOM     15  H   UNL     1      36.458 -19.010 -22.530  0.00  0.00    +0.156 HD
ATOM     16  H   UNL     1      36.359 -18.360 -20.957  0.00  0.00    +0.156 HD
ENDROOT
BRANCH   6  17
ATOM     17  S   UNL     1      32.346 -12.798 -22.959  0.00  0.00    -0.090 S 
BRANCH  17  18
ATOM     18  C   UNL     1      33.299 -11.447 -23.628  0.00  0.00    +0.029 C 
ATOM     19  C   UNL     1      34.232 -11.684 -24.637  0.00  0.00    +0.006 C 
ATOM     20  C   UNL     1      33.110 -10.154 -23.142  0.00  0.00    +0.006 C 
ATOM     21  C   UNL     1      34.977 -10.628 -25.159  0.00  0.00    +0.001 C 
ATOM     22  C   UNL     1      33.855  -9.096 -23.664  0.00  0.00    +0.001 C 
ATOM     23  C   UNL     1      34.788  -9.333 -24.674  0.00  0.00    +0.000 C 
ENDBRANCH  17  18
ENDBRANCH   6  17
TORSDOF 2
ENDMDL
MODEL 7
REMARK VINA RESULT:      -8.5      3.706      6.784
REMARK  Name = 446244
REMARK  2 active torsions:
REMARK  status: ('A' for Active; 'I' for Inactive)
REMARK    1  A    between atoms: C_6  and  S_17
REMARK    2  A    between atoms: S_17  and  C_18
REMARK                            x       y       z     vdW  Elec       q    Type
REMARK                         _______ _______ _______ _____ _____    ______ ____
ROOT
ATOM      1  N   UNL     1      35.150 -22.065 -18.438  0.00  0.00    -0.332 NA
ATOM      2  N   UNL     1      32.898 -21.926 -19.283  0.00  0.00    -0.317 NA
ATOM      3  N   UNL     1      32.332 -20.585 -21.064  0.00  0.00    -0.335 N 
ATOM      4  N   UNL     1      33.417 -23.310 -17.465  0.00  0.00    -0.283 N 
ATOM      5  C   UNL     1      34.668 -20.634 -20.301  0.00  0.00    +0.149 C 
ATOM      6  C   UNL     1      35.109 -19.715 -21.270  0.00  0.00    +0.022 C 
ATOM      7  C   UNL     1      35.561 -21.185 -19.368  0.00  0.00    +0.135 C 
ATOM      8  C   UNL     1      33.343 -21.049 -20.202  0.00  0.00    +0.178 C 
ATOM      9  C   UNL     1      36.448 -19.341 -21.316  0.00  0.00    +0.003 C 
ATOM     10  C   UNL     1      36.896 -20.793 -19.437  0.00  0.00    +0.029 C 
ATOM     11  C   UNL     1      37.343 -19.881 -20.397  0.00  0.00    +0.003 C 
ATOM     12  C   UNL     1      33.841 -22.387 -18.446  0.00  0.00    +0.197 C 
ATOM     13  H   UNL     1      31.407 -20.906 -20.957  0.00  0.00    +0.144 HD
ATOM     14  H   UNL     1      32.549 -19.939 -21.775  0.00  0.00    +0.144 HD
ATOM     15  H   UNL     1      34.066 -23.681 -16.824  0.00  0.00    +0.156 HD
ATOM     16  H   UNL     1      32.472 -23.583 -17.422  0.00  0.00    +0.156 HD
ENDROOT
BRANCH   6  17
ATOM     17  S   UNL     1      34.139 -18.895 -22.549  0.00  0.00    -0.090 S 
BRANCH  17  18
ATOM     18  C   UNL     1      34.330 -17.189 -22.062  0.00  0.00    +0.029 C 
ATOM     19  C   UNL     1      34.382 -16.852 -20.710  0.00  0.00    +0.006 C 
ATOM     20  C   UNL     1      34.429 -16.195 -23.034  0.00  0.00    +0.006 C 
ATOM     21  C   UNL     1      34.531 -15.519 -20.330  0.00  0.00    +0.001 C 
ATOM     22  C   UNL     1      34.578 -14.861 -22.655  0.00  0.00    +0.001 C 
ATOM     23  C   UNL     1      34.630 -14.523 -21.302  0.00  0.00    +0.000 C 
ENDBRANCH  17  18
ENDBRANCH   6  17
TORSDOF 2
ENDMDL
MODEL 8
REMARK VINA RESULT:      -8.5      6.286      9.634
REMARK  Name = 446244
REMARK  2 active torsions:
REMARK  status: ('A' for Active; 'I' for Inactive)
REMARK    1  A    between atoms: C_6  and  S_17
REMARK    2  A    between atoms: S_17  and  C_18
REMARK                            x       y       z     vdW  Elec       q    Type
REMARK                         _______ _______ _______ _____ _____    ______ ____
ROOT
ATOM      1  N   UNL     1      34.061 -12.737 -24.726  0.00  0.00    -0.332 NA
ATOM      2  N   UNL     1      32.271 -13.295 -23.213  0.00  0.00    -0.317 NA
ATOM      3  N   UNL     1      31.262 -11.725 -21.868  0.00  0.00    -0.335 N 
ATOM      4  N   UNL     1      33.263 -14.936 -24.558  0.00  0.00    -0.283 N 
ATOM      5  C   UNL     1      33.077 -11.023 -23.368  0.00  0.00    +0.149 C 
ATOM      6  C   UNL     1      33.024  -9.676 -22.966  0.00  0.00    +0.022 C 
ATOM      7  C   UNL     1      34.001 -11.452 -24.335  0.00  0.00    +0.135 C 
ATOM      8  C   UNL     1      32.237 -12.001 -22.844  0.00  0.00    +0.178 C 
ATOM      9  C   UNL     1      33.892  -8.747 -23.530  0.00  0.00    +0.003 C 
ATOM     10  C   UNL     1      34.858 -10.501 -24.882  0.00  0.00    +0.029 C 
ATOM     11  C   UNL     1      34.811  -9.160 -24.489  0.00  0.00    +0.003 C 
ATOM     12  C   UNL     1      33.193 -13.589 -24.143  0.00  0.00    +0.197 C 
ATOM     13  H   UNL     1      30.689 -12.449 -21.525  0.00  0.00    +0.144 HD
ATOM     14  H   UNL     1      31.151 -10.808 -21.528  0.00  0.00    +0.144 HD
ATOM     15  H   UNL     1      33.920 -15.208 -25.239  0.00  0.00    +0.156 HD
ATOM     16  H   UNL     1      32.653 -15.604 -24.168  0.00  0.00    +0.156 HD
ENDROOT
BRANCH   6  17
ATOM     17  S   UNL     1      31.926  -8.920 -21.753  0.00  0.00    -0.090 S 
BRANCH  17  18
ATOM     18  C   UNL     1      31.601  -7.351 -22.537  0.00  0.00    +0.029 C 
ATOM     19  C   UNL     1      31.067  -7.312 -23.825  0.00  0.00    +0.006 C 
ATOM     20  C   UNL     1      31.881  -6.164 -21.861  0.00  0.00    +0.006 C 
ATOM     21  C   UNL     1      30.814  -6.085 -24.437  0.00  0.00    +0.001 C 
ATOM     22  C   UNL     1      31.628  -4.936 -22.474  0.00  0.00    +0.001 C 
ATOM     23  C   UNL     1      31.094  -4.897 -23.762  0.00  0.00    +0.000 C 
ENDBRANCH  17  18
ENDBRANCH   6  17
TORSDOF 2
ENDMDL
MODEL 9
REMARK VINA RESULT:      -8.5      3.262      6.731
REMARK  Name = 446244
REMARK  2 active torsions:
REMARK  status: ('A' for Active; 'I' for Inactive)
REMARK    1  A    between atoms: C_6  and  S_17
REMARK    2  A    between atoms: S_17  and  C_18
REMARK                            x       y       z     vdW  Elec       q    Type
REMARK                         _______ _______ _______ _____ _____    ______ ____
ROOT
ATOM      1  N   UNL     1      34.522 -16.507 -20.745  0.00  0.00    -0.332 NA
ATOM      2  N   UNL     1      35.321 -17.175 -22.917  0.00  0.00    -0.317 NA
ATOM      3  N   UNL     1      34.722 -16.069 -24.843  0.00  0.00    -0.335 N 
ATOM      4  N   UNL     1      35.964 -18.340 -20.989  0.00  0.00    -0.283 N 
ATOM      5  C   UNL     1      33.836 -15.283 -22.689  0.00  0.00    +0.149 C 
ATOM      6  C   UNL     1      33.100 -14.230 -23.262  0.00  0.00    +0.022 C 
ATOM      7  C   UNL     1      33.822 -15.503 -21.303  0.00  0.00    +0.135 C 
ATOM      8  C   UNL     1      34.609 -16.161 -23.443  0.00  0.00    +0.178 C 
ATOM      9  C   UNL     1      32.346 -13.387 -22.452  0.00  0.00    +0.003 C 
ATOM     10  C   UNL     1      33.059 -14.644 -20.516  0.00  0.00    +0.029 C 
ATOM     11  C   UNL     1      32.325 -13.595 -21.077  0.00  0.00    +0.003 C 
ATOM     12  C   UNL     1      35.233 -17.288 -21.583  0.00  0.00    +0.197 C 
ATOM     13  H   UNL     1      35.282 -16.712 -25.336  0.00  0.00    +0.144 HD
ATOM     14  H   UNL     1      34.242 -15.360 -25.330  0.00  0.00    +0.144 HD
ATOM     15  H   UNL     1      35.937 -18.470 -20.014  0.00  0.00    +0.156 HD
ATOM     16  H   UNL     1      36.503 -18.944 -21.551  0.00  0.00    +0.156 HD
ENDROOT
BRANCH   6  17
ATOM     17  S   UNL     1      32.979 -13.775 -25.002  0.00  0.00    -0.090 S 
BRANCH  17  18
ATOM     18  C   UNL     1      33.792 -12.187 -24.983  0.00  0.00    +0.029 C 
ATOM     19  C   UNL     1      33.627 -11.332 -23.894  0.00  0.00    +0.006 C 
ATOM     20  C   UNL     1      34.592 -11.803 -26.058  0.00  0.00    +0.006 C 
ATOM     21  C   UNL     1      34.262 -10.092 -23.880  0.00  0.00    +0.001 C 
ATOM     22  C   UNL     1      35.228 -10.561 -26.045  0.00  0.00    +0.001 C 
ATOM     23  C   UNL     1      35.063  -9.705 -24.955  0.00  0.00    +0.000 C 
ENDBRANCH  17  18
ENDBRANCH   6  17
TORSDOF 2
ENDMDL
