MODEL 1
REMARK VINA RESULT:     -10.3      0.000      0.000
REMARK  Name = 5496628
REMARK  9 active torsions:
REMARK  status: ('A' for Active; 'I' for Inactive)
REMARK    1  A    between atoms: C_1  and  C_3
REMARK    2  A    between atoms: C_1  and  C_6
REMARK    3  A    between atoms: C_1  and  C_21
REMARK    4  A    between atoms: C_3  and  O_4
REMARK    5  A    between atoms: C_6  and  C_8
REMARK    6  A    between atoms: C_6  and  C_11
REMARK    7  A    between atoms: C_8  and  O_9
REMARK    8  A    between atoms: C_11  and  C_14
REMARK    9  A    between atoms: C_21  and  C_24
REMARK                            x       y       z     vdW  Elec       q    Type
REMARK                         _______ _______ _______ _____ _____    ______ ____
ROOT
ATOM      1  C   UNL     1      34.544 -16.447 -21.823  0.00  0.00    +0.114 C 
ENDROOT
BRANCH   1   3
ATOM      2  O   UNL     1      35.131 -14.681 -20.248  0.00  0.00    -0.250 OA
ATOM      3  C   UNL     1      34.292 -15.457 -20.688  0.00  0.00    +0.314 C 
BRANCH   3   4
ATOM      4  O   UNL     1      33.018 -15.502 -20.224  0.00  0.00    -0.480 OA
ATOM      5  H   UNL     1      32.355 -15.945 -20.716  0.00  0.00    +0.295 HD
ENDBRANCH   3   4
ENDBRANCH   1   3
BRANCH   1   6
ATOM      6  C   UNL     1      34.505 -15.705 -23.189  0.00  0.00    +0.114 C 
BRANCH   6   8
ATOM      7  O   UNL     1      34.446 -16.481 -25.484  0.00  0.00    -0.250 OA
ATOM      8  C   UNL     1      34.886 -16.616 -24.349  0.00  0.00    +0.314 C 
BRANCH   8   9
ATOM      9  O   UNL     1      35.766 -17.592 -24.012  0.00  0.00    -0.480 OA
ATOM     10  H   UNL     1      36.190 -17.573 -23.177  0.00  0.00    +0.295 HD
ENDBRANCH   8   9
ENDBRANCH   6   8
BRANCH   6  11
ATOM     11  C   UNL     1      33.132 -15.068 -23.515  0.00  0.00    +0.038 C 
BRANCH  11  14
ATOM     12  O   UNL     1      31.574 -10.720 -21.770  0.00  0.00    -0.435 OA
ATOM     13  O   UNL     1      32.922  -9.479 -23.336  0.00  0.00    -0.435 OA
ATOM     14  C   UNL     1      33.100 -13.559 -23.495  0.00  0.00    -0.018 C 
ATOM     15  C   UNL     1      32.291 -12.912 -22.570  0.00  0.00    +0.036 C 
ATOM     16  C   UNL     1      33.886 -12.851 -24.409  0.00  0.00    -0.001 C 
ATOM     17  C   UNL     1      32.296 -11.533 -22.590  0.00  0.00    +0.176 C 
ATOM     18  C   UNL     1      33.065 -10.823 -23.484  0.00  0.00    +0.176 C 
ATOM     19  C   UNL     1      33.872 -11.455 -24.407  0.00  0.00    +0.040 C 
ATOM     20  C   UNL     1      31.977  -9.420 -22.248  0.00  0.00    +0.429 C 
ENDBRANCH  11  14
ENDBRANCH   6  11
ENDBRANCH   1   6
BRANCH   1  21
ATOM     21  C   UNL     1      33.472 -17.559 -21.716  0.00  0.00    +0.038 C 
BRANCH  21  24
ATOM     22  O   UNL     1      32.880 -21.904 -19.447  0.00  0.00    -0.435 OA
ATOM     23  O   UNL     1      35.255 -22.294 -19.324  0.00  0.00    -0.435 OA
ATOM     24  C   UNL     1      33.989 -18.828 -21.076  0.00  0.00    -0.018 C 
ATOM     25  C   UNL     1      33.081 -19.746 -20.572  0.00  0.00    +0.036 C 
ATOM     26  C   UNL     1      35.368 -19.039 -21.013  0.00  0.00    -0.001 C 
ATOM     27  C   UNL     1      33.600 -20.889 -19.998  0.00  0.00    +0.176 C 
ATOM     28  C   UNL     1      34.956 -21.112 -19.928  0.00  0.00    +0.176 C 
ATOM     29  C   UNL     1      35.868 -20.205 -20.428  0.00  0.00    +0.040 C 
ATOM     30  C   UNL     1      33.935 -22.791 -19.023  0.00  0.00    +0.429 C 
ENDBRANCH  21  24
ENDBRANCH   1  21
TORSDOF 9
ENDMDL
MODEL 2
REMARK VINA RESULT:     -10.2      0.058      8.638
REMARK  Name = 5496628
REMARK  9 active torsions:
REMARK  status: ('A' for Active; 'I' for Inactive)
REMARK    1  A    between atoms: C_1  and  C_3
REMARK    2  A    between atoms: C_1  and  C_6
REMARK    3  A    between atoms: C_1  and  C_21
REMARK    4  A    between atoms: C_3  and  O_4
REMARK    5  A    between atoms: C_6  and  C_8
REMARK    6  A    between atoms: C_6  and  C_11
REMARK    7  A    between atoms: C_8  and  O_9
REMARK    8  A    between atoms: C_11  and  C_14
REMARK    9  A    between atoms: C_21  and  C_24
REMARK                            x       y       z     vdW  Elec       q    Type
REMARK                         _______ _______ _______ _____ _____    ______ ____
ROOT
ATOM      1  C   UNL     1      34.526 -15.676 -23.247  0.00  0.00    +0.114 C 
ENDROOT
BRANCH   1   3
ATOM      2  O   UNL     1      34.454 -16.590 -25.505  0.00  0.00    -0.250 OA
ATOM      3  C   UNL     1      34.908 -16.638 -24.369  0.00  0.00    +0.314 C 
BRANCH   3   4
ATOM      4  O   UNL     1      35.834 -17.553 -23.985  0.00  0.00    -0.480 OA
ATOM      5  H   UNL     1      36.718 -17.478 -24.284  0.00  0.00    +0.295 HD
ENDBRANCH   3   4
ENDBRANCH   1   3
BRANCH   1   6
ATOM      6  C   UNL     1      34.531 -16.424 -21.884  0.00  0.00    +0.114 C 
BRANCH   6   8
ATOM      7  O   UNL     1      35.113 -14.746 -20.235  0.00  0.00    -0.250 OA
ATOM      8  C   UNL     1      34.263 -15.488 -20.713  0.00  0.00    +0.314 C 
BRANCH   8   9
ATOM      9  O   UNL     1      32.990 -15.544 -20.248  0.00  0.00    -0.480 OA
ATOM     10  H   UNL     1      32.395 -16.183 -20.588  0.00  0.00    +0.295 HD
ENDBRANCH   8   9
ENDBRANCH   6   8
BRANCH   6  11
ATOM     11  C   UNL     1      33.513 -17.588 -21.807  0.00  0.00    +0.038 C 
BRANCH  11  14
ATOM     12  O   UNL     1      32.871 -21.868 -19.430  0.00  0.00    -0.435 OA
ATOM     13  O   UNL     1      35.242 -22.265 -19.266  0.00  0.00    -0.435 OA
ATOM     14  C   UNL     1      34.015 -18.840 -21.128  0.00  0.00    -0.018 C 
ATOM     15  C   UNL     1      33.096 -19.743 -20.609  0.00  0.00    +0.036 C 
ATOM     16  C   UNL     1      35.393 -19.058 -21.040  0.00  0.00    -0.001 C 
ATOM     17  C   UNL     1      33.603 -20.871 -19.999  0.00  0.00    +0.176 C 
ATOM     18  C   UNL     1      34.957 -21.099 -19.905  0.00  0.00    +0.176 C 
ATOM     19  C   UNL     1      35.879 -20.209 -20.417  0.00  0.00    +0.040 C 
ATOM     20  C   UNL     1      33.916 -22.749 -18.969  0.00  0.00    +0.429 C 
ENDBRANCH  11  14
ENDBRANCH   6  11
ENDBRANCH   1   6
BRANCH   1  21
ATOM     21  C   UNL     1      33.140 -15.081 -23.596  0.00  0.00    +0.038 C 
BRANCH  21  24
ATOM     22  O   UNL     1      31.582 -10.771 -21.758  0.00  0.00    -0.435 OA
ATOM     23  O   UNL     1      32.929  -9.496 -23.297  0.00  0.00    -0.435 OA
ATOM     24  C   UNL     1      33.107 -13.570 -23.543  0.00  0.00    -0.018 C 
ATOM     25  C   UNL     1      32.299 -12.946 -22.605  0.00  0.00    +0.036 C 
ATOM     26  C   UNL     1      33.893 -12.846 -24.442  0.00  0.00    -0.001 C 
ATOM     27  C   UNL     1      32.303 -11.566 -22.596  0.00  0.00    +0.176 C 
ATOM     28  C   UNL     1      33.073 -10.838 -23.474  0.00  0.00    +0.176 C 
ATOM     29  C   UNL     1      33.880 -11.449 -24.411  0.00  0.00    +0.040 C 
ATOM     30  C   UNL     1      31.984  -9.461 -22.209  0.00  0.00    +0.429 C 
ENDBRANCH  21  24
ENDBRANCH   1  21
TORSDOF 9
ENDMDL
MODEL 3
REMARK VINA RESULT:      -9.8      0.654      8.658
REMARK  Name = 5496628
REMARK  9 active torsions:
REMARK  status: ('A' for Active; 'I' for Inactive)
REMARK    1  A    between atoms: C_1  and  C_3
REMARK    2  A    between atoms: C_1  and  C_6
REMARK    3  A    between atoms: C_1  and  C_21
REMARK    4  A    between atoms: C_3  and  O_4
REMARK    5  A    between atoms: C_6  and  C_8
REMARK    6  A    between atoms: C_6  and  C_11
REMARK    7  A    between atoms: C_8  and  O_9
REMARK    8  A    between atoms: C_11  and  C_14
REMARK    9  A    between atoms: C_21  and  C_24
REMARK                            x       y       z     vdW  Elec       q    Type
REMARK                         _______ _______ _______ _____ _____    ______ ____
ROOT
ATOM      1  C   UNL     1      34.432 -15.461 -23.273  0.00  0.00    +0.114 C 
ENDROOT
BRANCH   1   3
ATOM      2  O   UNL     1      34.279 -16.388 -25.522  0.00  0.00    -0.250 OA
ATOM      3  C   UNL     1      34.785 -16.419 -24.407  0.00  0.00    +0.314 C 
BRANCH   3   4
ATOM      4  O   UNL     1      35.749 -17.310 -24.063  0.00  0.00    -0.480 OA
ATOM      5  H   UNL     1      35.940 -18.034 -24.625  0.00  0.00    +0.295 HD
ENDBRANCH   3   4
ENDBRANCH   1   3
BRANCH   1   6
ATOM      6  C   UNL     1      34.436 -16.222 -21.917  0.00  0.00    +0.114 C 
BRANCH   6   8
ATOM      7  O   UNL     1      35.123 -14.582 -20.270  0.00  0.00    -0.250 OA
ATOM      8  C   UNL     1      34.234 -15.287 -20.732  0.00  0.00    +0.314 C 
BRANCH   8   9
ATOM      9  O   UNL     1      32.973 -15.300 -20.234  0.00  0.00    -0.480 OA
ATOM     10  H   UNL     1      32.293 -14.823 -20.668  0.00  0.00    +0.295 HD
ENDBRANCH   8   9
ENDBRANCH   6   8
BRANCH   6  11
ATOM     11  C   UNL     1      33.372 -17.343 -21.826  0.00  0.00    +0.038 C 
BRANCH  11  14
ATOM     12  O   UNL     1      36.839 -20.431 -20.145  0.00  0.00    -0.435 OA
ATOM     13  O   UNL     1      35.206 -22.015 -19.350  0.00  0.00    -0.435 OA
ATOM     14  C   UNL     1      33.831 -18.614 -21.153  0.00  0.00    -0.018 C 
ATOM     15  C   UNL     1      35.192 -18.847 -21.004  0.00  0.00    +0.036 C 
ATOM     16  C   UNL     1      32.874 -19.525 -20.697  0.00  0.00    -0.001 C 
ATOM     17  C   UNL     1      35.563 -20.022 -20.382  0.00  0.00    +0.176 C 
ATOM     18  C   UNL     1      34.631 -20.927 -19.928  0.00  0.00    +0.176 C 
ATOM     19  C   UNL     1      33.276 -20.706 -20.071  0.00  0.00    +0.040 C 
ATOM     20  C   UNL     1      36.606 -21.694 -19.489  0.00  0.00    +0.429 C 
ENDBRANCH  11  14
ENDBRANCH   6  11
ENDBRANCH   1   6
BRANCH   1  21
ATOM     21  C   UNL     1      33.054 -14.837 -23.603  0.00  0.00    +0.038 C 
BRANCH  21  24
ATOM     22  O   UNL     1      31.604 -10.511 -21.715  0.00  0.00    -0.435 OA
ATOM     23  O   UNL     1      32.953  -9.252 -23.264  0.00  0.00    -0.435 OA
ATOM     24  C   UNL     1      33.050 -13.327 -23.540  0.00  0.00    -0.018 C 
ATOM     25  C   UNL     1      32.268 -12.693 -22.586  0.00  0.00    +0.036 C 
ATOM     26  C   UNL     1      33.837 -12.611 -24.445  0.00  0.00    -0.001 C 
ATOM     27  C   UNL     1      32.298 -11.314 -22.568  0.00  0.00    +0.176 C 
ATOM     28  C   UNL     1      33.068 -10.594 -23.452  0.00  0.00    +0.176 C 
ATOM     29  C   UNL     1      33.850 -11.215 -24.404  0.00  0.00    +0.040 C 
ATOM     30  C   UNL     1      32.024  -9.206 -22.162  0.00  0.00    +0.429 C 
ENDBRANCH  21  24
ENDBRANCH   1  21
TORSDOF 9
ENDMDL
MODEL 4
REMARK VINA RESULT:      -9.8      0.660      1.369
REMARK  Name = 5496628
REMARK  9 active torsions:
REMARK  status: ('A' for Active; 'I' for Inactive)
REMARK    1  A    between atoms: C_1  and  C_3
REMARK    2  A    between atoms: C_1  and  C_6
REMARK    3  A    between atoms: C_1  and  C_21
REMARK    4  A    between atoms: C_3  and  O_4
REMARK    5  A    between atoms: C_6  and  C_8
REMARK    6  A    between atoms: C_6  and  C_11
REMARK    7  A    between atoms: C_8  and  O_9
REMARK    8  A    between atoms: C_11  and  C_14
REMARK    9  A    between atoms: C_21  and  C_24
REMARK                            x       y       z     vdW  Elec       q    Type
REMARK                         _______ _______ _______ _____ _____    ______ ____
ROOT
ATOM      1  C   UNL     1      34.460 -16.253 -21.891  0.00  0.00    +0.114 C 
ENDROOT
BRANCH   1   3
ATOM      2  O   UNL     1      35.151 -14.493 -20.352  0.00  0.00    -0.250 OA
ATOM      3  C   UNL     1      34.279 -15.257 -20.748  0.00  0.00    +0.314 C 
BRANCH   3   4
ATOM      4  O   UNL     1      33.029 -15.281 -20.221  0.00  0.00    -0.480 OA
ATOM      5  H   UNL     1      32.289 -15.089 -20.763  0.00  0.00    +0.295 HD
ENDBRANCH   3   4
ENDBRANCH   1   3
BRANCH   1   6
ATOM      6  C   UNL     1      34.413 -15.507 -23.254  0.00  0.00    +0.114 C 
BRANCH   6   8
ATOM      7  O   UNL     1      34.260 -16.302 -25.539  0.00  0.00    -0.250 OA
ATOM      8  C   UNL     1      34.753 -16.423 -24.423  0.00  0.00    +0.314 C 
BRANCH   8   9
ATOM      9  O   UNL     1      35.658 -17.385 -24.119  0.00  0.00    -0.480 OA
ATOM     10  H   UNL     1      36.456 -17.447 -24.606  0.00  0.00    +0.295 HD
ENDBRANCH   8   9
ENDBRANCH   6   8
BRANCH   6  11
ATOM     11  C   UNL     1      33.050 -14.837 -23.555  0.00  0.00    +0.038 C 
BRANCH  11  14
ATOM     12  O   UNL     1      31.599 -10.472 -21.759  0.00  0.00    -0.435 OA
ATOM     13  O   UNL     1      32.964  -9.246 -23.321  0.00  0.00    -0.435 OA
ATOM     14  C   UNL     1      33.052 -13.328 -23.520  0.00  0.00    -0.018 C 
ATOM     15  C   UNL     1      32.262 -12.672 -22.584  0.00  0.00    +0.036 C 
ATOM     16  C   UNL     1      33.847 -12.629 -24.432  0.00  0.00    -0.001 C 
ATOM     17  C   UNL     1      32.298 -11.293 -22.591  0.00  0.00    +0.176 C 
ATOM     18  C   UNL     1      33.077 -10.592 -23.483  0.00  0.00    +0.176 C 
ATOM     19  C   UNL     1      33.864 -11.232 -24.417  0.00  0.00    +0.040 C 
ATOM     20  C   UNL     1      32.028  -9.177 -22.227  0.00  0.00    +0.429 C 
ENDBRANCH  11  14
ENDBRANCH   6  11
ENDBRANCH   1   6
BRANCH   1  21
ATOM     21  C   UNL     1      33.347 -17.320 -21.757  0.00  0.00    +0.038 C 
BRANCH  21  24
ATOM     22  O   UNL     1      36.855 -20.421 -20.188  0.00  0.00    -0.435 OA
ATOM     23  O   UNL     1      35.243 -22.035 -19.411  0.00  0.00    -0.435 OA
ATOM     24  C   UNL     1      33.824 -18.605 -21.118  0.00  0.00    -0.018 C 
ATOM     25  C   UNL     1      35.186 -18.829 -20.991  0.00  0.00    +0.036 C 
ATOM     26  C   UNL     1      32.877 -19.531 -20.673  0.00  0.00    -0.001 C 
ATOM     27  C   UNL     1      35.573 -20.016 -20.402  0.00  0.00    +0.176 C 
ATOM     28  C   UNL     1      34.653 -20.937 -19.957  0.00  0.00    +0.176 C 
ATOM     29  C   UNL     1      33.295 -20.724 -20.079  0.00  0.00    +0.040 C 
ATOM     30  C   UNL     1      36.637 -21.701 -19.560  0.00  0.00    +0.429 C 
ENDBRANCH  21  24
ENDBRANCH   1  21
TORSDOF 9
ENDMDL
MODEL 5
REMARK VINA RESULT:      -9.5      1.303      1.526
REMARK  Name = 5496628
REMARK  9 active torsions:
REMARK  status: ('A' for Active; 'I' for Inactive)
REMARK    1  A    between atoms: C_1  and  C_3
REMARK    2  A    between atoms: C_1  and  C_6
REMARK    3  A    between atoms: C_1  and  C_21
REMARK    4  A    between atoms: C_3  and  O_4
REMARK    5  A    between atoms: C_6  and  C_8
REMARK    6  A    between atoms: C_6  and  C_11
REMARK    7  A    between atoms: C_8  and  O_9
REMARK    8  A    between atoms: C_11  and  C_14
REMARK    9  A    between atoms: C_21  and  C_24
REMARK                            x       y       z     vdW  Elec       q    Type
REMARK                         _______ _______ _______ _____ _____    ______ ____
ROOT
ATOM      1  C   UNL     1      34.551 -17.105 -21.823  0.00  0.00    +0.114 C 
ENDROOT
BRANCH   1   3
ATOM      2  O   UNL     1      34.941 -15.209 -20.341  0.00  0.00    -0.250 OA
ATOM      3  C   UNL     1      34.155 -16.002 -20.845  0.00  0.00    +0.314 C 
BRANCH   3   4
ATOM      4  O   UNL     1      32.820 -15.967 -20.603  0.00  0.00    -0.480 OA
ATOM      5  H   UNL     1      32.339 -15.176 -20.744  0.00  0.00    +0.295 HD
ENDBRANCH   3   4
ENDBRANCH   1   3
BRANCH   1   6
ATOM      6  C   UNL     1      34.669 -16.521 -23.259  0.00  0.00    +0.114 C 
BRANCH   6   8
ATOM      7  O   UNL     1      34.652 -17.637 -25.410  0.00  0.00    -0.250 OA
ATOM      8  C   UNL     1      35.104 -17.571 -24.273  0.00  0.00    +0.314 C 
BRANCH   8   9
ATOM      9  O   UNL     1      36.047 -18.426 -23.805  0.00  0.00    -0.480 OA
ATOM     10  H   UNL     1      36.846 -18.093 -23.449  0.00  0.00    +0.295 HD
ENDBRANCH   8   9
ENDBRANCH   6   8
BRANCH   6  11
ATOM     11  C   UNL     1      33.363 -15.870 -23.778  0.00  0.00    +0.038 C 
BRANCH  11  14
ATOM     12  O   UNL     1      34.167 -11.013 -23.403  0.00  0.00    -0.435 OA
ATOM     13  O   UNL     1      33.960 -10.679 -25.781  0.00  0.00    -0.435 OA
ATOM     14  C   UNL     1      33.518 -14.483 -24.353  0.00  0.00    -0.018 C 
ATOM     15  C   UNL     1      33.779 -13.421 -23.497  0.00  0.00    +0.036 C 
ATOM     16  C   UNL     1      33.396 -14.303 -25.734  0.00  0.00    -0.001 C 
ATOM     17  C   UNL     1      33.913 -12.173 -24.069  0.00  0.00    +0.176 C 
ATOM     18  C   UNL     1      33.796 -11.981 -25.427  0.00  0.00    +0.176 C 
ATOM     19  C   UNL     1      33.537 -13.028 -26.287  0.00  0.00    +0.040 C 
ATOM     20  C   UNL     1      34.197 -10.070 -24.494  0.00  0.00    +0.429 C 
ENDBRANCH  11  14
ENDBRANCH   6  11
ENDBRANCH   1   6
BRANCH   1  21
ATOM     21  C   UNL     1      33.484 -18.223 -21.719  0.00  0.00    +0.038 C 
BRANCH  21  24
ATOM     22  O   UNL     1      32.690 -22.167 -18.856  0.00  0.00    -0.435 OA
ATOM     23  O   UNL     1      35.043 -22.648 -18.667  0.00  0.00    -0.435 OA
ATOM     24  C   UNL     1      33.941 -19.411 -20.902  0.00  0.00    -0.018 C 
ATOM     25  C   UNL     1      32.991 -20.204 -20.276  0.00  0.00    +0.036 C 
ATOM     26  C   UNL     1      35.309 -19.676 -20.802  0.00  0.00    -0.001 C 
ATOM     27  C   UNL     1      33.457 -21.276 -19.543  0.00  0.00    +0.176 C 
ATOM     28  C   UNL     1      34.800 -21.551 -19.435  0.00  0.00    +0.176 C 
ATOM     29  C   UNL     1      35.753 -20.769 -20.054  0.00  0.00    +0.040 C 
ATOM     30  C   UNL     1      33.703 -23.033 -18.305  0.00  0.00    +0.429 C 
ENDBRANCH  21  24
ENDBRANCH   1  21
TORSDOF 9
ENDMDL
MODEL 6
REMARK VINA RESULT:      -9.5      1.022      2.796
REMARK  Name = 5496628
REMARK  9 active torsions:
REMARK  status: ('A' for Active; 'I' for Inactive)
REMARK    1  A    between atoms: C_1  and  C_3
REMARK    2  A    between atoms: C_1  and  C_6
REMARK    3  A    between atoms: C_1  and  C_21
REMARK    4  A    between atoms: C_3  and  O_4
REMARK    5  A    between atoms: C_6  and  C_8
REMARK    6  A    between atoms: C_6  and  C_11
REMARK    7  A    between atoms: C_8  and  O_9
REMARK    8  A    between atoms: C_11  and  C_14
REMARK    9  A    between atoms: C_21  and  C_24
REMARK                            x       y       z     vdW  Elec       q    Type
REMARK                         _______ _______ _______ _____ _____    ______ ____
ROOT
ATOM      1  C   UNL     1      34.009 -16.571 -23.202  0.00  0.00    +0.114 C 
ENDROOT
BRANCH   1   3
ATOM      2  O   UNL     1      33.329 -15.892 -25.442  0.00  0.00    -0.250 OA
ATOM      3  C   UNL     1      34.170 -16.399 -24.710  0.00  0.00    +0.314 C 
BRANCH   3   4
ATOM      4  O   UNL     1      35.366 -16.848 -25.166  0.00  0.00    -0.480 OA
ATOM      5  H   UNL     1      36.144 -16.700 -24.665  0.00  0.00    +0.295 HD
ENDBRANCH   3   4
ENDBRANCH   1   3
BRANCH   1   6
ATOM      6  C   UNL     1      33.526 -15.237 -22.566  0.00  0.00    +0.114 C 
BRANCH   6   8
ATOM      7  O   UNL     1      34.842 -14.795 -20.579  0.00  0.00    -0.250 OA
ATOM      8  C   UNL     1      33.787 -15.186 -21.066  0.00  0.00    +0.314 C 
BRANCH   8   9
ATOM      9  O   UNL     1      32.741 -15.608 -20.314  0.00  0.00    -0.480 OA
ATOM     10  H   UNL     1      32.856 -16.308 -19.703  0.00  0.00    +0.295 HD
ENDBRANCH   8   9
ENDBRANCH   6   8
BRANCH   6  11
ATOM     11  C   UNL     1      34.160 -13.975 -23.203  0.00  0.00    +0.038 C 
BRANCH  11  14
ATOM     12  O   UNL     1      33.275  -9.197 -24.073  0.00  0.00    -0.435 OA
ATOM     13  O   UNL     1      31.303  -9.191 -22.690  0.00  0.00    -0.435 OA
ATOM     14  C   UNL     1      33.365 -12.703 -23.042  0.00  0.00    -0.018 C 
ATOM     15  C   UNL     1      33.787 -11.553 -23.698  0.00  0.00    +0.036 C 
ATOM     16  C   UNL     1      32.222 -12.713 -22.237  0.00  0.00    -0.001 C 
ATOM     17  C   UNL     1      33.028 -10.415 -23.521  0.00  0.00    +0.176 C 
ATOM     18  C   UNL     1      31.901 -10.412 -22.731  0.00  0.00    +0.176 C 
ATOM     19  C   UNL     1      31.472 -11.547 -22.075  0.00  0.00    +0.040 C 
ATOM     20  C   UNL     1      32.177  -8.426 -23.544  0.00  0.00    +0.429 C 
ENDBRANCH  11  14
ENDBRANCH   6  11
ENDBRANCH   1   6
BRANCH   1  21
ATOM     21  C   UNL     1      35.373 -17.040 -22.640  0.00  0.00    +0.038 C 
BRANCH  21  24
ATOM     22  O   UNL     1      32.857 -20.636 -20.377  0.00  0.00    -0.435 OA
ATOM     23  O   UNL     1      34.858 -21.620 -19.463  0.00  0.00    -0.435 OA
ATOM     24  C   UNL     1      35.271 -18.278 -21.777  0.00  0.00    -0.018 C 
ATOM     25  C   UNL     1      34.021 -18.825 -21.528  0.00  0.00    +0.036 C 
ATOM     26  C   UNL     1      36.440 -18.836 -21.254  0.00  0.00    -0.001 C 
ATOM     27  C   UNL     1      33.979 -19.954 -20.736  0.00  0.00    +0.176 C 
ATOM     28  C   UNL     1      35.121 -20.516 -20.215  0.00  0.00    +0.176 C 
ATOM     29  C   UNL     1      36.369 -19.980 -20.456  0.00  0.00    +0.040 C 
ATOM     30  C   UNL     1      33.422 -21.690 -19.570  0.00  0.00    +0.429 C 
ENDBRANCH  21  24
ENDBRANCH   1  21
TORSDOF 9
ENDMDL
MODEL 7
REMARK VINA RESULT:      -9.4      1.005      8.467
REMARK  Name = 5496628
REMARK  9 active torsions:
REMARK  status: ('A' for Active; 'I' for Inactive)
REMARK    1  A    between atoms: C_1  and  C_3
REMARK    2  A    between atoms: C_1  and  C_6
REMARK    3  A    between atoms: C_1  and  C_21
REMARK    4  A    between atoms: C_3  and  O_4
REMARK    5  A    between atoms: C_6  and  C_8
REMARK    6  A    between atoms: C_6  and  C_11
REMARK    7  A    between atoms: C_8  and  O_9
REMARK    8  A    between atoms: C_11  and  C_14
REMARK    9  A    between atoms: C_21  and  C_24
REMARK                            x       y       z     vdW  Elec       q    Type
REMARK                         _______ _______ _______ _____ _____    ______ ____
ROOT
ATOM      1  C   UNL     1      33.496 -15.144 -22.534  0.00  0.00    +0.114 C 
ENDROOT
BRANCH   1   3
ATOM      2  O   UNL     1      34.871 -14.663 -20.580  0.00  0.00    -0.250 OA
ATOM      3  C   UNL     1      33.817 -15.079 -21.043  0.00  0.00    +0.314 C 
BRANCH   3   4
ATOM      4  O   UNL     1      32.792 -15.512 -20.265  0.00  0.00    -0.480 OA
ATOM      5  H   UNL     1      32.877 -15.503 -19.332  0.00  0.00    +0.295 HD
ENDBRANCH   3   4
ENDBRANCH   1   3
BRANCH   1   6
ATOM      6  C   UNL     1      34.006 -16.488 -23.126  0.00  0.00    +0.114 C 
BRANCH   6   8
ATOM      7  O   UNL     1      33.377 -15.894 -25.390  0.00  0.00    -0.250 OA
ATOM      8  C   UNL     1      34.189 -16.418 -24.637  0.00  0.00    +0.314 C 
BRANCH   8   9
ATOM      9  O   UNL     1      35.341 -16.984 -25.075  0.00  0.00    -0.480 OA
ATOM     10  H   UNL     1      35.342 -17.873 -25.372  0.00  0.00    +0.295 HD
ENDBRANCH   8   9
ENDBRANCH   6   8
BRANCH   6  11
ATOM     11  C   UNL     1      35.338 -16.979 -22.507  0.00  0.00    +0.038 C 
BRANCH  11  14
ATOM     12  O   UNL     1      32.828 -20.613 -20.300  0.00  0.00    -0.435 OA
ATOM     13  O   UNL     1      34.838 -21.658 -19.479  0.00  0.00    -0.435 OA
ATOM     14  C   UNL     1      35.241 -18.242 -21.687  0.00  0.00    -0.018 C 
ATOM     15  C   UNL     1      33.988 -18.781 -21.420  0.00  0.00    +0.036 C 
ATOM     16  C   UNL     1      36.414 -18.839 -21.216  0.00  0.00    -0.001 C 
ATOM     17  C   UNL     1      33.950 -19.936 -20.668  0.00  0.00    +0.176 C 
ATOM     18  C   UNL     1      35.098 -20.534 -20.198  0.00  0.00    +0.176 C 
ATOM     19  C   UNL     1      36.347 -20.008 -20.457  0.00  0.00    +0.040 C 
ATOM     20  C   UNL     1      33.398 -21.704 -19.548  0.00  0.00    +0.429 C 
ENDBRANCH  11  14
ENDBRANCH   6  11
ENDBRANCH   1   6
BRANCH   1  21
ATOM     21  C   UNL     1      34.149 -13.910 -23.204  0.00  0.00    +0.038 C 
BRANCH  21  24
ATOM     22  O   UNL     1      33.248  -9.124 -24.015  0.00  0.00    -0.435 OA
ATOM     23  O   UNL     1      31.262  -9.148 -22.651  0.00  0.00    -0.435 OA
ATOM     24  C   UNL     1      33.345 -12.641 -23.032  0.00  0.00    -0.018 C 
ATOM     25  C   UNL     1      33.769 -11.484 -23.667  0.00  0.00    +0.036 C 
ATOM     26  C   UNL     1      32.196 -12.671 -22.238  0.00  0.00    -0.001 C 
ATOM     27  C   UNL     1      33.002 -10.352 -23.481  0.00  0.00    +0.176 C 
ATOM     28  C   UNL     1      31.867 -10.365 -22.703  0.00  0.00    +0.176 C 
ATOM     29  C   UNL     1      31.437 -11.511 -22.067  0.00  0.00    +0.040 C 
ATOM     30  C   UNL     1      32.142  -8.366 -23.484  0.00  0.00    +0.429 C 
ENDBRANCH  21  24
ENDBRANCH   1  21
TORSDOF 9
ENDMDL
MODEL 8
REMARK VINA RESULT:      -9.2      1.240      8.538
REMARK  Name = 5496628
REMARK  9 active torsions:
REMARK  status: ('A' for Active; 'I' for Inactive)
REMARK    1  A    between atoms: C_1  and  C_3
REMARK    2  A    between atoms: C_1  and  C_6
REMARK    3  A    between atoms: C_1  and  C_21
REMARK    4  A    between atoms: C_3  and  O_4
REMARK    5  A    between atoms: C_6  and  C_8
REMARK    6  A    between atoms: C_6  and  C_11
REMARK    7  A    between atoms: C_8  and  O_9
REMARK    8  A    between atoms: C_11  and  C_14
REMARK    9  A    between atoms: C_21  and  C_24
REMARK                            x       y       z     vdW  Elec       q    Type
REMARK                         _______ _______ _______ _____ _____    ______ ____
ROOT
ATOM      1  C   UNL     1      33.476 -15.131 -22.849  0.00  0.00    +0.114 C 
ENDROOT
BRANCH   1   3
ATOM      2  O   UNL     1      34.827 -14.826 -20.843  0.00  0.00    -0.250 OA
ATOM      3  C   UNL     1      33.792 -15.230 -21.359  0.00  0.00    +0.314 C 
BRANCH   3   4
ATOM      4  O   UNL     1      32.787 -15.796 -20.644  0.00  0.00    -0.480 OA
ATOM      5  H   UNL     1      31.896 -15.668 -20.907  0.00  0.00    +0.295 HD
ENDBRANCH   3   4
ENDBRANCH   1   3
BRANCH   1   6
ATOM      6  C   UNL     1      33.933 -16.429 -23.573  0.00  0.00    +0.114 C 
BRANCH   6   8
ATOM      7  O   UNL     1      34.988 -16.703 -25.738  0.00  0.00    -0.250 OA
ATOM      8  C   UNL     1      34.070 -16.231 -25.077  0.00  0.00    +0.314 C 
BRANCH   8   9
ATOM      9  O   UNL     1      33.078 -15.487 -25.624  0.00  0.00    -0.480 OA
ATOM     10  H   UNL     1      33.044 -15.360 -26.552  0.00  0.00    +0.295 HD
ENDBRANCH   8   9
ENDBRANCH   6   8
BRANCH   6  11
ATOM     11  C   UNL     1      35.271 -17.002 -23.044  0.00  0.00    +0.038 C 
BRANCH  11  14
ATOM     12  O   UNL     1      37.033 -20.202 -19.722  0.00  0.00    -0.435 OA
ATOM     13  O   UNL     1      34.931 -21.368 -19.560  0.00  0.00    -0.435 OA
ATOM     14  C   UNL     1      35.143 -18.184 -22.114  0.00  0.00    -0.018 C 
ATOM     15  C   UNL     1      36.245 -18.579 -21.366  0.00  0.00    +0.036 C 
ATOM     16  C   UNL     1      33.918 -18.852 -22.029  0.00  0.00    -0.001 C 
ATOM     17  C   UNL     1      36.079 -19.664 -20.530  0.00  0.00    +0.176 C 
ATOM     18  C   UNL     1      34.878 -20.330 -20.437  0.00  0.00    +0.176 C 
ATOM     19  C   UNL     1      33.777 -19.948 -21.175  0.00  0.00    +0.040 C 
ATOM     20  C   UNL     1      36.298 -21.281 -19.109  0.00  0.00    +0.429 C 
ENDBRANCH  11  14
ENDBRANCH   6  11
ENDBRANCH   1   6
BRANCH   1  21
ATOM     21  C   UNL     1      34.183 -13.865 -23.391  0.00  0.00    +0.038 C 
BRANCH  21  24
ATOM     22  O   UNL     1      33.322  -9.043 -24.013  0.00  0.00    -0.435 OA
ATOM     23  O   UNL     1      31.347  -9.100 -22.635  0.00  0.00    -0.435 OA
ATOM     24  C   UNL     1      33.393 -12.596 -23.165  0.00  0.00    -0.018 C 
ATOM     25  C   UNL     1      33.822 -11.419 -23.760  0.00  0.00    +0.036 C 
ATOM     26  C   UNL     1      32.250 -12.645 -22.363  0.00  0.00    -0.001 C 
ATOM     27  C   UNL     1      33.068 -10.288 -23.525  0.00  0.00    +0.176 C 
ATOM     28  C   UNL     1      31.940 -10.320 -22.738  0.00  0.00    +0.176 C 
ATOM     29  C   UNL     1      31.504 -11.486 -22.142  0.00  0.00    +0.040 C 
ATOM     30  C   UNL     1      32.227  -8.296 -23.445  0.00  0.00    +0.429 C 
ENDBRANCH  21  24
ENDBRANCH   1  21
TORSDOF 9
ENDMDL
MODEL 9
REMARK VINA RESULT:      -9.2      1.877      8.657
REMARK  Name = 5496628
REMARK  9 active torsions:
REMARK  status: ('A' for Active; 'I' for Inactive)
REMARK    1  A    between atoms: C_1  and  C_3
REMARK    2  A    between atoms: C_1  and  C_6
REMARK    3  A    between atoms: C_1  and  C_21
REMARK    4  A    between atoms: C_3  and  O_4
REMARK    5  A    between atoms: C_6  and  C_8
REMARK    6  A    between atoms: C_6  and  C_11
REMARK    7  A    between atoms: C_8  and  O_9
REMARK    8  A    between atoms: C_11  and  C_14
REMARK    9  A    between atoms: C_21  and  C_24
REMARK                            x       y       z     vdW  Elec       q    Type
REMARK                         _______ _______ _______ _____ _____    ______ ____
ROOT
ATOM      1  C   UNL     1      33.804 -14.176 -24.958  0.00  0.00    +0.114 C 
ENDROOT
BRANCH   1   3
ATOM      2  O   UNL     1      33.863 -13.943 -27.383  0.00  0.00    -0.250 OA
ATOM      3  C   UNL     1      33.250 -14.276 -26.376  0.00  0.00    +0.314 C 
BRANCH   3   4
ATOM      4  O   UNL     1      32.000 -14.803 -26.417  0.00  0.00    -0.480 OA
ATOM      5  H   UNL     1      31.878 -15.702 -26.653  0.00  0.00    +0.295 HD
ENDBRANCH   3   4
ENDBRANCH   1   3
BRANCH   1   6
ATOM      6  C   UNL     1      33.873 -15.590 -24.316  0.00  0.00    +0.114 C 
BRANCH   6   8
ATOM      7  O   UNL     1      33.467 -17.514 -25.734  0.00  0.00    -0.250 OA
ATOM      8  C   UNL     1      34.251 -16.664 -25.329  0.00  0.00    +0.314 C 
BRANCH   8   9
ATOM      9  O   UNL     1      35.538 -16.591 -25.749  0.00  0.00    -0.480 OA
ATOM     10  H   UNL     1      35.748 -16.131 -26.538  0.00  0.00    +0.295 HD
ENDBRANCH   8   9
ENDBRANCH   6   8
BRANCH   6  11
ATOM     11  C   UNL     1      34.859 -15.690 -23.126  0.00  0.00    +0.038 C 
BRANCH  11  14
ATOM     12  O   UNL     1      32.687 -19.309 -20.566  0.00  0.00    -0.435 OA
ATOM     13  O   UNL     1      34.730 -20.577 -20.403  0.00  0.00    -0.435 OA
ATOM     14  C   UNL     1      34.861 -17.013 -22.399  0.00  0.00    -0.018 C 
ATOM     15  C   UNL     1      33.679 -17.476 -21.835  0.00  0.00    +0.036 C 
ATOM     16  C   UNL     1      36.053 -17.738 -22.312  0.00  0.00    -0.001 C 
ATOM     17  C   UNL     1      33.731 -18.690 -21.181  0.00  0.00    +0.176 C 
ATOM     18  C   UNL     1      34.897 -19.415 -21.089  0.00  0.00    +0.176 C 
ATOM     19  C   UNL     1      36.077 -18.964 -21.645  0.00  0.00    +0.040 C 
ATOM     20  C   UNL     1      33.327 -20.506 -20.076  0.00  0.00    +0.429 C 
ENDBRANCH  11  14
ENDBRANCH   6  11
ENDBRANCH   1   6
BRANCH   1  21
ATOM     21  C   UNL     1      32.890 -13.207 -24.169  0.00  0.00    +0.038 C 
BRANCH  21  24
ATOM     22  O   UNL     1      32.957  -8.591 -22.417  0.00  0.00    -0.435 OA
ATOM     23  O   UNL     1      34.775  -7.946 -23.862  0.00  0.00    -0.435 OA
ATOM     24  C   UNL     1      33.424 -11.793 -24.112  0.00  0.00    -0.018 C 
ATOM     25  C   UNL     1      32.855 -10.893 -23.225  0.00  0.00    +0.036 C 
ATOM     26  C   UNL     1      34.478 -11.435 -24.956  0.00  0.00    -0.001 C 
ATOM     27  C   UNL     1      33.376  -9.615 -23.210  0.00  0.00    +0.176 C 
ATOM     28  C   UNL     1      34.414  -9.247 -24.034  0.00  0.00    +0.176 C 
ATOM     29  C   UNL     1      34.988 -10.136 -24.920  0.00  0.00    +0.040 C 
ATOM     30  C   UNL     1      33.848  -7.537 -22.836  0.00  0.00    +0.429 C 
ENDBRANCH  21  24
ENDBRANCH   1  21
TORSDOF 9
ENDMDL
