MODEL 1
REMARK VINA RESULT:      -7.8      0.000      0.000
REMARK  Name = 3092
REMARK  3 active torsions:
REMARK  status: ('A' for Active; 'I' for Inactive)
REMARK    1  A    between atoms: C_2  and  C_10
REMARK    2  A    between atoms: C_3  and  N_15
REMARK    3  A    between atoms: C_5  and  N_18
REMARK                            x       y       z     vdW  Elec       q    Type
REMARK                         _______ _______ _______ _____ _____    ______ ____
ROOT
ATOM      1  C   UNL     1      36.549 -25.306 -13.052  0.00  0.00    +0.005 C 
ATOM      2  C   UNL     1      36.323 -25.418 -14.424  0.00  0.00    +0.052 C 
ATOM      3  C   UNL     1      35.660 -24.583 -12.255  0.00  0.00    +0.141 C 
ATOM      4  C   UNL     1      35.208 -24.808 -14.999  0.00  0.00    +0.028 C 
ATOM      5  C   UNL     1      34.320 -24.086 -14.202  0.00  0.00    +0.145 C 
ATOM      6  C   UNL     1      34.545 -23.974 -12.830  0.00  0.00    +0.048 C 
ATOM      7  C   UNL     1      37.747 -25.963 -12.440  0.00  0.00    +0.033 C 
ENDROOT
BRANCH   2  10
ATOM      8  O   UNL     1      36.861 -27.189 -15.880  0.00  0.00    -0.270 OA
ATOM      9  N   UNL     1      38.529 -25.682 -15.424  0.00  0.00    -0.325 N 
ATOM     10  C   UNL     1      37.233 -26.166 -15.282  0.00  0.00    +0.243 C 
ATOM     11  H   UNL     1      39.172 -26.160 -15.996  0.00  0.00    +0.145 HD
ATOM     12  H   UNL     1      38.802 -24.862 -14.954  0.00  0.00    +0.145 HD
ENDBRANCH   2  10
BRANCH   3  15
ATOM     13  O   UNL     1      35.186 -25.155 -10.072  0.00  0.00    -0.126 OA
ATOM     14  O   UNL     1      36.733 -23.644 -10.443  0.00  0.00    -0.126 OA
ATOM     15  N   UNL     1      35.869 -24.454 -10.854  0.00  0.00    +0.057 N 
ENDBRANCH   3  15
BRANCH   5  18
ATOM     16  O   UNL     1      33.185 -23.239 -16.022  0.00  0.00    -0.126 OA
ATOM     17  O   UNL     1      32.213 -23.160 -14.056  0.00  0.00    -0.126 OA
ATOM     18  N   UNL     1      33.185 -23.464 -14.788  0.00  0.00    +0.058 N 
ENDBRANCH   5  18
TORSDOF 3
ENDMDL
MODEL 2
REMARK VINA RESULT:      -7.7      0.841      3.848
REMARK  Name = 3092
REMARK  3 active torsions:
REMARK  status: ('A' for Active; 'I' for Inactive)
REMARK    1  A    between atoms: C_2  and  C_10
REMARK    2  A    between atoms: C_3  and  N_15
REMARK    3  A    between atoms: C_5  and  N_18
REMARK                            x       y       z     vdW  Elec       q    Type
REMARK                         _______ _______ _______ _____ _____    ______ ____
ROOT
ATOM      1  C   UNL     1      36.568 -25.405 -13.191  0.00  0.00    +0.005 C 
ATOM      2  C   UNL     1      35.709 -24.571 -12.475  0.00  0.00    +0.052 C 
ATOM      3  C   UNL     1      36.385 -25.583 -14.563  0.00  0.00    +0.141 C 
ATOM      4  C   UNL     1      34.668 -23.916 -13.131  0.00  0.00    +0.028 C 
ATOM      5  C   UNL     1      34.485 -24.093 -14.503  0.00  0.00    +0.145 C 
ATOM      6  C   UNL     1      35.344 -24.927 -15.219  0.00  0.00    +0.048 C 
ATOM      7  C   UNL     1      37.685 -26.107 -12.482  0.00  0.00    +0.033 C 
ENDROOT
BRANCH   2  10
ATOM      8  O   UNL     1      35.249 -25.050 -10.216  0.00  0.00    -0.270 OA
ATOM      9  N   UNL     1      36.773 -23.386 -10.632  0.00  0.00    -0.325 N 
ATOM     10  C   UNL     1      35.874 -24.365 -11.043  0.00  0.00    +0.243 C 
ATOM     11  H   UNL     1      36.911 -23.218  -9.671  0.00  0.00    +0.145 HD
ATOM     12  H   UNL     1      37.270 -22.863 -11.300  0.00  0.00    +0.145 HD
ENDBRANCH   2  10
BRANCH   3  15
ATOM     13  O   UNL     1      38.487 -26.274 -15.214  0.00  0.00    -0.126 OA
ATOM     14  O   UNL     1      36.742 -27.306 -16.054  0.00  0.00    -0.126 OA
ATOM     15  N   UNL     1      37.247 -26.429 -15.314  0.00  0.00    +0.057 N 
ENDBRANCH   3  15
BRANCH   5  18
ATOM     16  O   UNL     1      32.419 -23.069 -14.509  0.00  0.00    -0.126 OA
ATOM     17  O   UNL     1      33.522 -23.210 -16.402  0.00  0.00    -0.126 OA
ATOM     18  N   UNL     1      33.424 -23.425 -15.170  0.00  0.00    +0.058 N 
ENDBRANCH   5  18
TORSDOF 3
ENDMDL
MODEL 3
REMARK VINA RESULT:      -7.6      2.812      3.747
REMARK  Name = 3092
REMARK  3 active torsions:
REMARK  status: ('A' for Active; 'I' for Inactive)
REMARK    1  A    between atoms: C_2  and  C_10
REMARK    2  A    between atoms: C_3  and  N_15
REMARK    3  A    between atoms: C_5  and  N_18
REMARK                            x       y       z     vdW  Elec       q    Type
REMARK                         _______ _______ _______ _____ _____    ______ ____
ROOT
ATOM      1  C   UNL     1      34.543 -23.895 -14.346  0.00  0.00    +0.005 C 
ATOM      2  C   UNL     1      35.500 -23.636 -15.326  0.00  0.00    +0.052 C 
ATOM      3  C   UNL     1      33.185 -23.823 -14.659  0.00  0.00    +0.141 C 
ATOM      4  C   UNL     1      35.100 -23.303 -16.620  0.00  0.00    +0.028 C 
ATOM      5  C   UNL     1      33.742 -23.231 -16.933  0.00  0.00    +0.145 C 
ATOM      6  C   UNL     1      32.785 -23.490 -15.953  0.00  0.00    +0.048 C 
ATOM      7  C   UNL     1      34.978 -24.253 -12.958  0.00  0.00    +0.033 C 
ENDROOT
BRANCH   2  10
ATOM      8  O   UNL     1      37.536 -22.725 -14.570  0.00  0.00    -0.270 OA
ATOM      9  N   UNL     1      37.574 -24.912 -15.262  0.00  0.00    -0.325 N 
ATOM     10  C   UNL     1      36.925 -23.704 -15.030  0.00  0.00    +0.243 C 
ATOM     11  H   UNL     1      38.537 -24.996 -15.074  0.00  0.00    +0.145 HD
ATOM     12  H   UNL     1      37.071 -25.681 -15.613  0.00  0.00    +0.145 HD
ENDBRANCH   2  10
BRANCH   3  15
ATOM     13  O   UNL     1      31.803 -23.144 -12.942  0.00  0.00    -0.126 OA
ATOM     14  O   UNL     1      31.728 -25.244 -13.574  0.00  0.00    -0.126 OA
ATOM     15  N   UNL     1      32.190 -24.083 -13.677  0.00  0.00    +0.057 N 
ENDBRANCH   3  15
BRANCH   5  18
ATOM     16  O   UNL     1      32.352 -22.128 -18.406  0.00  0.00    -0.126 OA
ATOM     17  O   UNL     1      33.972 -23.362 -19.224  0.00  0.00    -0.126 OA
ATOM     18  N   UNL     1      33.335 -22.891 -18.252  0.00  0.00    +0.058 N 
ENDBRANCH   5  18
TORSDOF 3
ENDMDL
MODEL 4
REMARK VINA RESULT:      -7.6      2.115      4.237
REMARK  Name = 3092
REMARK  3 active torsions:
REMARK  status: ('A' for Active; 'I' for Inactive)
REMARK    1  A    between atoms: C_2  and  C_10
REMARK    2  A    between atoms: C_3  and  N_15
REMARK    3  A    between atoms: C_5  and  N_18
REMARK                            x       y       z     vdW  Elec       q    Type
REMARK                         _______ _______ _______ _____ _____    ______ ____
ROOT
ATOM      1  C   UNL     1      35.946 -24.045 -13.423  0.00  0.00    +0.005 C 
ATOM      2  C   UNL     1      36.462 -24.071 -14.718  0.00  0.00    +0.052 C 
ATOM      3  C   UNL     1      36.716 -24.509 -12.355  0.00  0.00    +0.141 C 
ATOM      4  C   UNL     1      37.748 -24.561 -14.946  0.00  0.00    +0.028 C 
ATOM      5  C   UNL     1      38.517 -25.025 -13.879  0.00  0.00    +0.145 C 
ATOM      6  C   UNL     1      38.001 -24.999 -12.584  0.00  0.00    +0.048 C 
ATOM      7  C   UNL     1      34.565 -23.518 -13.183  0.00  0.00    +0.033 C 
ENDROOT
BRANCH   2  10
ATOM      8  O   UNL     1      34.741 -24.259 -16.314  0.00  0.00    -0.270 OA
ATOM      9  N   UNL     1      36.020 -22.356 -16.390  0.00  0.00    -0.325 N 
ATOM     10  C   UNL     1      35.683 -23.594 -15.853  0.00  0.00    +0.243 C 
ATOM     11  H   UNL     1      35.516 -22.000 -17.158  0.00  0.00    +0.145 HD
ATOM     12  H   UNL     1      36.760 -21.836 -16.004  0.00  0.00    +0.145 HD
ENDBRANCH   2  10
BRANCH   3  15
ATOM     13  O   UNL     1      35.316 -25.310 -10.707  0.00  0.00    -0.126 OA
ATOM     14  O   UNL     1      36.679 -23.663 -10.210  0.00  0.00    -0.126 OA
ATOM     15  N   UNL     1      36.211 -24.493 -11.026  0.00  0.00    +0.057 N 
ENDBRANCH   3  15
BRANCH   5  18
ATOM     16  O   UNL     1      39.965 -26.711 -14.493  0.00  0.00    -0.126 OA
ATOM     17  O   UNL     1      40.808 -24.763 -13.932  0.00  0.00    -0.126 OA
ATOM     18  N   UNL     1      39.827 -25.524 -14.112  0.00  0.00    +0.058 N 
ENDBRANCH   5  18
TORSDOF 3
ENDMDL
MODEL 5
REMARK VINA RESULT:      -7.6      3.204      6.021
REMARK  Name = 3092
REMARK  3 active torsions:
REMARK  status: ('A' for Active; 'I' for Inactive)
REMARK    1  A    between atoms: C_2  and  C_10
REMARK    2  A    between atoms: C_3  and  N_15
REMARK    3  A    between atoms: C_5  and  N_18
REMARK                            x       y       z     vdW  Elec       q    Type
REMARK                         _______ _______ _______ _____ _____    ______ ____
ROOT
ATOM      1  C   UNL     1      33.080 -23.369 -16.149  0.00  0.00    +0.005 C 
ATOM      2  C   UNL     1      33.501 -23.568 -14.834  0.00  0.00    +0.052 C 
ATOM      3  C   UNL     1      34.004 -23.011 -17.131  0.00  0.00    +0.141 C 
ATOM      4  C   UNL     1      34.847 -23.410 -14.503  0.00  0.00    +0.028 C 
ATOM      5  C   UNL     1      35.770 -23.053 -15.485  0.00  0.00    +0.145 C 
ATOM      6  C   UNL     1      35.349 -22.853 -16.799  0.00  0.00    +0.048 C 
ATOM      7  C   UNL     1      31.634 -23.540 -16.500  0.00  0.00    +0.033 C 
ENDROOT
BRANCH   2  10
ATOM      8  O   UNL     1      31.993 -23.084 -13.092  0.00  0.00    -0.270 OA
ATOM      9  N   UNL     1      32.306 -25.298 -13.604  0.00  0.00    -0.325 N 
ATOM     10  C   UNL     1      32.561 -23.943 -13.787  0.00  0.00    +0.243 C 
ATOM     11  H   UNL     1      31.676 -25.589 -12.905  0.00  0.00    +0.145 HD
ATOM     12  H   UNL     1      32.755 -25.964 -14.172  0.00  0.00    +0.145 HD
ENDBRANCH   2  10
BRANCH   3  15
ATOM     13  O   UNL     1      33.877 -23.670 -19.338  0.00  0.00    -0.126 OA
ATOM     14  O   UNL     1      32.972 -21.753 -18.766  0.00  0.00    -0.126 OA
ATOM     15  N   UNL     1      33.598 -22.801 -18.478  0.00  0.00    +0.057 N 
ENDBRANCH   3  15
BRANCH   5  18
ATOM     16  O   UNL     1      37.955 -22.566 -16.043  0.00  0.00    -0.126 OA
ATOM     17  O   UNL     1      37.498 -23.076 -13.958  0.00  0.00    -0.126 OA
ATOM     18  N   UNL     1      37.141 -22.891 -15.146  0.00  0.00    +0.058 N 
ENDBRANCH   5  18
TORSDOF 3
ENDMDL
MODEL 6
REMARK VINA RESULT:      -7.5     12.281     14.622
REMARK  Name = 3092
REMARK  3 active torsions:
REMARK  status: ('A' for Active; 'I' for Inactive)
REMARK    1  A    between atoms: C_2  and  C_10
REMARK    2  A    between atoms: C_3  and  N_15
REMARK    3  A    between atoms: C_5  and  N_18
REMARK                            x       y       z     vdW  Elec       q    Type
REMARK                         _______ _______ _______ _____ _____    ______ ____
ROOT
ATOM      1  C   UNL     1      33.530 -14.758 -24.292  0.00  0.00    +0.005 C 
ATOM      2  C   UNL     1      33.434 -14.041 -23.100  0.00  0.00    +0.052 C 
ATOM      3  C   UNL     1      34.100 -16.032 -24.297  0.00  0.00    +0.141 C 
ATOM      4  C   UNL     1      33.908 -14.598 -21.913  0.00  0.00    +0.028 C 
ATOM      5  C   UNL     1      34.479 -15.872 -21.917  0.00  0.00    +0.145 C 
ATOM      6  C   UNL     1      34.574 -16.589 -23.110  0.00  0.00    +0.048 C 
ATOM      7  C   UNL     1      33.019 -14.156 -25.565  0.00  0.00    +0.033 C 
ENDROOT
BRANCH   2  10
ATOM      8  O   UNL     1      33.415 -11.736 -23.581  0.00  0.00    -0.270 OA
ATOM      9  N   UNL     1      31.607 -12.571 -22.442  0.00  0.00    -0.325 N 
ATOM     10  C   UNL     1      32.844 -12.710 -23.063  0.00  0.00    +0.243 C 
ATOM     11  H   UNL     1      31.176 -11.686 -22.397  0.00  0.00    +0.145 HD
ATOM     12  H   UNL     1      31.162 -13.356 -22.050  0.00  0.00    +0.145 HD
ENDBRANCH   2  10
BRANCH   3  15
ATOM     13  O   UNL     1      33.214 -17.427 -25.905  0.00  0.00    -0.126 OA
ATOM     14  O   UNL     1      35.298 -16.775 -26.123  0.00  0.00    -0.126 OA
ATOM     15  N   UNL     1      34.209 -16.782 -25.501  0.00  0.00    +0.057 N 
ENDBRANCH   3  15
BRANCH   5  18
ATOM     16  O   UNL     1      35.354 -17.629 -20.708  0.00  0.00    -0.126 OA
ATOM     17  O   UNL     1      34.986 -15.729 -19.673  0.00  0.00    -0.126 OA
ATOM     18  N   UNL     1      34.962 -16.437 -20.707  0.00  0.00    +0.058 N 
ENDBRANCH   5  18
TORSDOF 3
ENDMDL
MODEL 7
REMARK VINA RESULT:      -7.5     10.361     12.397
REMARK  Name = 3092
REMARK  3 active torsions:
REMARK  status: ('A' for Active; 'I' for Inactive)
REMARK    1  A    between atoms: C_2  and  C_10
REMARK    2  A    between atoms: C_3  and  N_15
REMARK    3  A    between atoms: C_5  and  N_18
REMARK                            x       y       z     vdW  Elec       q    Type
REMARK                         _______ _______ _______ _____ _____    ______ ____
ROOT
ATOM      1  C   UNL     1      34.868 -18.271 -23.114  0.00  0.00    +0.005 C 
ATOM      2  C   UNL     1      34.983 -18.245 -21.725  0.00  0.00    +0.052 C 
ATOM      3  C   UNL     1      34.545 -17.106 -23.810  0.00  0.00    +0.141 C 
ATOM      4  C   UNL     1      34.776 -17.053 -21.031  0.00  0.00    +0.028 C 
ATOM      5  C   UNL     1      34.454 -15.887 -21.727  0.00  0.00    +0.145 C 
ATOM      6  C   UNL     1      34.339 -15.914 -23.117  0.00  0.00    +0.048 C 
ATOM      7  C   UNL     1      35.091 -19.554 -23.855  0.00  0.00    +0.033 C 
ENDROOT
BRANCH   2  10
ATOM      8  O   UNL     1      34.477 -20.336 -20.767  0.00  0.00    -0.270 OA
ATOM      9  N   UNL     1      36.622 -19.567 -20.501  0.00  0.00    -0.325 N 
ATOM     10  C   UNL     1      35.318 -19.445 -20.970  0.00  0.00    +0.243 C 
ATOM     11  H   UNL     1      36.886 -20.365 -19.987  0.00  0.00    +0.145 HD
ATOM     12  H   UNL     1      37.279 -18.859 -20.683  0.00  0.00    +0.145 HD
ENDBRANCH   2  10
BRANCH   3  15
ATOM     13  O   UNL     1      33.408 -17.631 -25.747  0.00  0.00    -0.126 OA
ATOM     14  O   UNL     1      35.330 -16.584 -25.916  0.00  0.00    -0.126 OA
ATOM     15  N   UNL     1      34.421 -17.108 -25.227  0.00  0.00    +0.057 N 
ENDBRANCH   3  15
BRANCH   5  18
ATOM     16  O   UNL     1      35.107 -14.292 -20.196  0.00  0.00    -0.126 OA
ATOM     17  O   UNL     1      33.198 -14.016 -21.242  0.00  0.00    -0.126 OA
ATOM     18  N   UNL     1      34.243 -14.673 -21.020  0.00  0.00    +0.058 N 
ENDBRANCH   5  18
TORSDOF 3
ENDMDL
MODEL 8
REMARK VINA RESULT:      -7.5     10.342     12.785
REMARK  Name = 3092
REMARK  3 active torsions:
REMARK  status: ('A' for Active; 'I' for Inactive)
REMARK    1  A    between atoms: C_2  and  C_10
REMARK    2  A    between atoms: C_3  and  N_15
REMARK    3  A    between atoms: C_5  and  N_18
REMARK                            x       y       z     vdW  Elec       q    Type
REMARK                         _______ _______ _______ _____ _____    ______ ____
ROOT
ATOM      1  C   UNL     1      34.348 -16.287 -22.941  0.00  0.00    +0.005 C 
ATOM      2  C   UNL     1      34.548 -16.257 -21.561  0.00  0.00    +0.052 C 
ATOM      3  C   UNL     1      34.708 -17.418 -23.675  0.00  0.00    +0.141 C 
ATOM      4  C   UNL     1      35.107 -17.359 -20.915  0.00  0.00    +0.028 C 
ATOM      5  C   UNL     1      35.467 -18.490 -21.648  0.00  0.00    +0.145 C 
ATOM      6  C   UNL     1      35.267 -18.520 -23.028  0.00  0.00    +0.048 C 
ATOM      7  C   UNL     1      33.746 -15.101 -23.631  0.00  0.00    +0.033 C 
ENDROOT
BRANCH   2  10
ATOM      8  O   UNL     1      35.025 -14.236 -20.452  0.00  0.00    -0.270 OA
ATOM      9  N   UNL     1      32.849 -14.959 -20.394  0.00  0.00    -0.325 N 
ATOM     10  C   UNL     1      34.182 -15.091 -20.769  0.00  0.00    +0.243 C 
ATOM     11  H   UNL     1      32.564 -14.184 -19.858  0.00  0.00    +0.145 HD
ATOM     12  H   UNL     1      32.192 -15.639 -20.666  0.00  0.00    +0.145 HD
ENDBRANCH   2  10
BRANCH   3  15
ATOM     13  O   UNL     1      35.192 -16.716 -25.817  0.00  0.00    -0.126 OA
ATOM     14  O   UNL     1      33.671 -18.275 -25.548  0.00  0.00    -0.126 OA
ATOM     15  N   UNL     1      34.514 -17.472 -25.083  0.00  0.00    +0.057 N 
ENDBRANCH   3  15
BRANCH   5  18
ATOM     16  O   UNL     1      37.242 -19.563 -20.640  0.00  0.00    -0.126 OA
ATOM     17  O   UNL     1      35.321 -20.618 -20.772  0.00  0.00    -0.126 OA
ATOM     18  N   UNL     1      36.038 -19.611 -20.989  0.00  0.00    +0.058 N 
ENDBRANCH   5  18
TORSDOF 3
ENDMDL
MODEL 9
REMARK VINA RESULT:      -7.4      3.088      4.873
REMARK  Name = 3092
REMARK  3 active torsions:
REMARK  status: ('A' for Active; 'I' for Inactive)
REMARK    1  A    between atoms: C_2  and  C_10
REMARK    2  A    between atoms: C_3  and  N_15
REMARK    3  A    between atoms: C_5  and  N_18
REMARK                            x       y       z     vdW  Elec       q    Type
REMARK                         _______ _______ _______ _____ _____    ______ ____
ROOT
ATOM      1  C   UNL     1      33.024 -23.458 -15.962  0.00  0.00    +0.005 C 
ATOM      2  C   UNL     1      33.952 -23.151 -16.956  0.00  0.00    +0.052 C 
ATOM      3  C   UNL     1      33.439 -23.594 -14.637  0.00  0.00    +0.141 C 
ATOM      4  C   UNL     1      35.296 -22.982 -16.626  0.00  0.00    +0.028 C 
ATOM      5  C   UNL     1      35.712 -23.119 -15.301  0.00  0.00    +0.145 C 
ATOM      6  C   UNL     1      34.783 -23.425 -14.306  0.00  0.00    +0.048 C 
ATOM      7  C   UNL     1      31.581 -23.638 -16.322  0.00  0.00    +0.033 C 
ENDROOT
BRANCH   2  10
ATOM      8  O   UNL     1      33.869 -23.841 -19.206  0.00  0.00    -0.270 OA
ATOM      9  N   UNL     1      32.776 -21.894 -18.680  0.00  0.00    -0.325 N 
ATOM     10  C   UNL     1      33.549 -23.002 -18.348  0.00  0.00    +0.243 C 
ATOM     11  H   UNL     1      32.485 -21.759 -19.611  0.00  0.00    +0.145 HD
ATOM     12  H   UNL     1      32.521 -21.247 -17.985  0.00  0.00    +0.145 HD
ENDBRANCH   2  10
BRANCH   3  15
ATOM     13  O   UNL     1      32.282 -25.110 -13.340  0.00  0.00    -0.126 OA
ATOM     14  O   UNL     1      31.949 -22.969 -12.991  0.00  0.00    -0.126 OA
ATOM     15  N   UNL     1      32.511 -23.907 -13.606  0.00  0.00    +0.057 N 
ENDBRANCH   3  15
BRANCH   5  18
ATOM     16  O   UNL     1      37.899 -22.663 -15.872  0.00  0.00    -0.126 OA
ATOM     17  O   UNL     1      37.435 -23.082 -13.769  0.00  0.00    -0.126 OA
ATOM     18  N   UNL     1      37.081 -22.947 -14.965  0.00  0.00    +0.058 N 
ENDBRANCH   5  18
TORSDOF 3
ENDMDL
