MODEL 1
REMARK VINA RESULT:     -10.0      0.000      0.000
REMARK  Name = 72276
REMARK  6 active torsions:
REMARK  status: ('A' for Active; 'I' for Inactive)
REMARK    1  A    between atoms: C_2  and  O_21
REMARK    2  A    between atoms: C_3  and  C_11
REMARK    3  A    between atoms: C_7  and  O_23
REMARK    4  A    between atoms: C_10  and  O_25
REMARK    5  A    between atoms: C_14  and  O_17
REMARK    6  A    between atoms: C_16  and  O_19
REMARK                            x       y       z     vdW  Elec       q    Type
REMARK                         _______ _______ _______ _____ _____    ______ ____
ROOT
ATOM      1  O   UNL     1      34.094 -17.422 -21.692  0.00  0.00    -0.472 OA
ATOM      2  C   UNL     1      35.106 -18.819 -23.451  0.00  0.00    +0.159 C 
ATOM      3  C   UNL     1      34.158 -18.746 -22.247  0.00  0.00    +0.215 C 
ATOM      4  C   UNL     1      34.601 -17.889 -24.553  0.00  0.00    +0.066 C 
ATOM      5  C   UNL     1      34.141 -16.574 -23.983  0.00  0.00    +0.048 C 
ATOM      6  C   UNL     1      33.909 -16.420 -22.609  0.00  0.00    +0.141 C 
ATOM      7  C   UNL     1      33.920 -15.487 -24.837  0.00  0.00    +0.136 C 
ATOM      8  C   UNL     1      33.501 -15.185 -22.098  0.00  0.00    +0.073 C 
ATOM      9  C   UNL     1      33.499 -14.258 -24.326  0.00  0.00    +0.073 C 
ATOM     10  C   UNL     1      33.294 -14.107 -22.957  0.00  0.00    +0.140 C 
ENDROOT
BRANCH   3  11
ATOM     11  C   UNL     1      34.547 -19.732 -21.161  0.00  0.00    +0.023 C 
ATOM     12  C   UNL     1      33.566 -20.500 -20.535  0.00  0.00    +0.039 C 
ATOM     13  C   UNL     1      35.884 -19.868 -20.792  0.00  0.00    +0.003 C 
ATOM     14  C   UNL     1      33.923 -21.406 -19.537  0.00  0.00    +0.167 C 
ATOM     15  C   UNL     1      36.241 -20.773 -19.792  0.00  0.00    +0.040 C 
ATOM     16  C   UNL     1      35.261 -21.542 -19.166  0.00  0.00    +0.167 C 
BRANCH  14  17
ATOM     17  O   UNL     1      32.957 -22.153 -18.933  0.00  0.00    -0.503 OA
ATOM     18  H   UNL     1      32.905 -23.073 -19.099  0.00  0.00    +0.292 HD
ENDBRANCH  14  17
BRANCH  16  19
ATOM     19  O   UNL     1      35.622 -22.424 -18.192  0.00  0.00    -0.503 OA
ATOM     20  H   UNL     1      35.835 -22.114 -17.334  0.00  0.00    +0.292 HD
ENDBRANCH  16  19
ENDBRANCH   3  11
BRANCH   2  21
ATOM     21  O   UNL     1      36.421 -18.418 -23.064  0.00  0.00    -0.380 OA
ATOM     22  H   UNL     1      37.027 -18.530 -23.813  0.00  0.00    +0.211 HD
ENDBRANCH   2  21
BRANCH   7  23
ATOM     23  O   UNL     1      34.110 -15.603 -26.183  0.00  0.00    -0.506 OA
ATOM     24  H   UNL     1      34.766 -15.088 -26.610  0.00  0.00    +0.292 HD
ENDBRANCH   7  23
BRANCH  10  25
ATOM     25  O   UNL     1      32.890 -12.906 -22.457  0.00  0.00    -0.505 OA
ATOM     26  H   UNL     1      32.020 -12.600 -22.623  0.00  0.00    +0.292 HD
ENDBRANCH  10  25
TORSDOF 6
ENDMDL
MODEL 2
REMARK VINA RESULT:     -10.0      1.317      2.615
REMARK  Name = 72276
REMARK  6 active torsions:
REMARK  status: ('A' for Active; 'I' for Inactive)
REMARK    1  A    between atoms: C_2  and  O_21
REMARK    2  A    between atoms: C_3  and  C_11
REMARK    3  A    between atoms: C_7  and  O_23
REMARK    4  A    between atoms: C_10  and  O_25
REMARK    5  A    between atoms: C_14  and  O_17
REMARK    6  A    between atoms: C_16  and  O_19
REMARK                            x       y       z     vdW  Elec       q    Type
REMARK                         _______ _______ _______ _____ _____    ______ ____
ROOT
ATOM      1  O   UNL     1      34.417 -17.331 -23.164  0.00  0.00    -0.472 OA
ATOM      2  C   UNL     1      34.488 -16.142 -21.008  0.00  0.00    +0.159 C 
ATOM      3  C   UNL     1      35.115 -17.210 -21.913  0.00  0.00    +0.215 C 
ATOM      4  C   UNL     1      34.559 -14.783 -21.701  0.00  0.00    +0.066 C 
ATOM      5  C   UNL     1      34.200 -14.898 -23.158  0.00  0.00    +0.048 C 
ATOM      6  C   UNL     1      34.159 -16.144 -23.799  0.00  0.00    +0.141 C 
ATOM      7  C   UNL     1      33.920 -13.743 -23.897  0.00  0.00    +0.136 C 
ATOM      8  C   UNL     1      33.803 -16.231 -25.147  0.00  0.00    +0.073 C 
ATOM      9  C   UNL     1      33.579 -13.831 -25.248  0.00  0.00    +0.073 C 
ATOM     10  C   UNL     1      33.517 -15.075 -25.871  0.00  0.00    +0.140 C 
ENDROOT
BRANCH   3  11
ATOM     11  C   UNL     1      35.173 -18.565 -21.232  0.00  0.00    +0.023 C 
ATOM     12  C   UNL     1      33.998 -19.279 -21.004  0.00  0.00    +0.039 C 
ATOM     13  C   UNL     1      36.401 -19.092 -20.836  0.00  0.00    +0.003 C 
ATOM     14  C   UNL     1      34.050 -20.524 -20.378  0.00  0.00    +0.167 C 
ATOM     15  C   UNL     1      36.453 -20.337 -20.208  0.00  0.00    +0.040 C 
ATOM     16  C   UNL     1      35.279 -21.053 -19.980  0.00  0.00    +0.167 C 
BRANCH  14  17
ATOM     17  O   UNL     1      32.897 -21.215 -20.161  0.00  0.00    -0.503 OA
ATOM     18  H   UNL     1      32.256 -21.282 -20.842  0.00  0.00    +0.292 HD
ENDBRANCH  14  17
BRANCH  16  19
ATOM     19  O   UNL     1      35.343 -22.268 -19.367  0.00  0.00    -0.503 OA
ATOM     20  H   UNL     1      36.173 -22.623 -19.115  0.00  0.00    +0.292 HD
ENDBRANCH  16  19
ENDBRANCH   3  11
BRANCH   2  21
ATOM     21  O   UNL     1      33.122 -16.464 -20.743  0.00  0.00    -0.380 OA
ATOM     22  H   UNL     1      32.760 -15.835 -20.099  0.00  0.00    +0.211 HD
ENDBRANCH   2  21
BRANCH   7  23
ATOM     23  O   UNL     1      33.974 -12.509 -23.317  0.00  0.00    -0.506 OA
ATOM     24  H   UNL     1      34.673 -11.921 -23.530  0.00  0.00    +0.292 HD
ENDBRANCH   7  23
BRANCH  10  25
ATOM     25  O   UNL     1      33.178 -15.161 -27.187  0.00  0.00    -0.505 OA
ATOM     26  H   UNL     1      32.614 -15.849 -27.481  0.00  0.00    +0.292 HD
ENDBRANCH  10  25
TORSDOF 6
ENDMDL
MODEL 3
REMARK VINA RESULT:      -9.9      1.121      6.856
REMARK  Name = 72276
REMARK  6 active torsions:
REMARK  status: ('A' for Active; 'I' for Inactive)
REMARK    1  A    between atoms: C_2  and  O_21
REMARK    2  A    between atoms: C_3  and  C_11
REMARK    3  A    between atoms: C_7  and  O_23
REMARK    4  A    between atoms: C_10  and  O_25
REMARK    5  A    between atoms: C_14  and  O_17
REMARK    6  A    between atoms: C_16  and  O_19
REMARK                            x       y       z     vdW  Elec       q    Type
REMARK                         _______ _______ _______ _____ _____    ______ ____
ROOT
ATOM      1  O   UNL     1      33.961 -18.294 -21.559  0.00  0.00    -0.472 OA
ATOM      2  C   UNL     1      36.293 -18.030 -22.305  0.00  0.00    +0.159 C 
ATOM      3  C   UNL     1      35.022 -17.351 -21.777  0.00  0.00    +0.215 C 
ATOM      4  C   UNL     1      36.792 -19.044 -21.277  0.00  0.00    +0.066 C 
ATOM      5  C   UNL     1      35.649 -19.836 -20.701  0.00  0.00    +0.048 C 
ATOM      6  C   UNL     1      34.321 -19.420 -20.863  0.00  0.00    +0.141 C 
ATOM      7  C   UNL     1      35.912 -21.002 -19.970  0.00  0.00    +0.136 C 
ATOM      8  C   UNL     1      33.274 -20.181 -20.337  0.00  0.00    +0.073 C 
ATOM      9  C   UNL     1      34.866 -21.754 -19.434  0.00  0.00    +0.073 C 
ATOM     10  C   UNL     1      33.548 -21.345 -19.621  0.00  0.00    +0.140 C 
ENDROOT
BRANCH   3  11
ATOM     11  C   UNL     1      34.541 -16.253 -22.707  0.00  0.00    +0.023 C 
ATOM     12  C   UNL     1      34.305 -16.535 -24.052  0.00  0.00    +0.039 C 
ATOM     13  C   UNL     1      34.336 -14.965 -22.215  0.00  0.00    +0.003 C 
ATOM     14  C   UNL     1      33.863 -15.526 -24.907  0.00  0.00    +0.167 C 
ATOM     15  C   UNL     1      33.895 -13.955 -23.072  0.00  0.00    +0.040 C 
ATOM     16  C   UNL     1      33.658 -14.236 -24.416  0.00  0.00    +0.167 C 
BRANCH  14  17
ATOM     17  O   UNL     1      33.633 -15.812 -26.219  0.00  0.00    -0.503 OA
ATOM     18  H   UNL     1      32.771 -15.721 -26.574  0.00  0.00    +0.292 HD
ENDBRANCH  14  17
BRANCH  16  19
ATOM     19  O   UNL     1      33.226 -13.242 -25.242  0.00  0.00    -0.503 OA
ATOM     20  H   UNL     1      33.727 -13.011 -25.999  0.00  0.00    +0.292 HD
ENDBRANCH  16  19
ENDBRANCH   3  11
BRANCH   2  21
ATOM     21  O   UNL     1      36.016 -18.703 -23.533  0.00  0.00    -0.380 OA
ATOM     22  H   UNL     1      36.193 -19.651 -23.430  0.00  0.00    +0.211 HD
ENDBRANCH   2  21
BRANCH   7  23
ATOM     23  O   UNL     1      37.192 -21.428 -19.768  0.00  0.00    -0.506 OA
ATOM     24  H   UNL     1      37.768 -21.546 -20.498  0.00  0.00    +0.292 HD
ENDBRANCH   7  23
BRANCH  10  25
ATOM     25  O   UNL     1      32.526 -22.081 -19.102  0.00  0.00    -0.505 OA
ATOM     26  H   UNL     1      31.665 -22.007 -19.464  0.00  0.00    +0.292 HD
ENDBRANCH  10  25
TORSDOF 6
ENDMDL
MODEL 4
REMARK VINA RESULT:      -9.4      8.269     10.695
REMARK  Name = 72276
REMARK  6 active torsions:
REMARK  status: ('A' for Active; 'I' for Inactive)
REMARK    1  A    between atoms: C_2  and  O_21
REMARK    2  A    between atoms: C_3  and  C_11
REMARK    3  A    between atoms: C_7  and  O_23
REMARK    4  A    between atoms: C_10  and  O_25
REMARK    5  A    between atoms: C_14  and  O_17
REMARK    6  A    between atoms: C_16  and  O_19
REMARK                            x       y       z     vdW  Elec       q    Type
REMARK                         _______ _______ _______ _____ _____    ______ ____
ROOT
ATOM      1  O   UNL     1      34.176 -24.509 -14.471  0.00  0.00    -0.472 OA
ATOM      2  C   UNL     1      34.185 -23.086 -16.482  0.00  0.00    +0.159 C 
ATOM      3  C   UNL     1      33.567 -23.373 -15.106  0.00  0.00    +0.215 C 
ATOM      4  C   UNL     1      35.670 -22.770 -16.315  0.00  0.00    +0.066 C 
ATOM      5  C   UNL     1      36.317 -23.713 -15.335  0.00  0.00    +0.048 C 
ATOM      6  C   UNL     1      35.547 -24.509 -14.477  0.00  0.00    +0.141 C 
ATOM      7  C   UNL     1      37.714 -23.786 -15.261  0.00  0.00    +0.136 C 
ATOM      8  C   UNL     1      36.167 -25.392 -13.589  0.00  0.00    +0.073 C 
ATOM      9  C   UNL     1      38.331 -24.658 -14.364  0.00  0.00    +0.073 C 
ATOM     10  C   UNL     1      37.558 -25.464 -13.531  0.00  0.00    +0.140 C 
ENDROOT
BRANCH   3  11
ATOM     11  C   UNL     1      32.067 -23.586 -15.195  0.00  0.00    +0.023 C 
ATOM     12  C   UNL     1      31.314 -22.853 -16.111  0.00  0.00    +0.039 C 
ATOM     13  C   UNL     1      31.446 -24.512 -14.359  0.00  0.00    +0.003 C 
ATOM     14  C   UNL     1      29.936 -23.047 -16.192  0.00  0.00    +0.167 C 
ATOM     15  C   UNL     1      30.066 -24.706 -14.440  0.00  0.00    +0.040 C 
ATOM     16  C   UNL     1      29.312 -23.974 -15.356  0.00  0.00    +0.167 C 
BRANCH  14  17
ATOM     17  O   UNL     1      29.209 -22.328 -17.092  0.00  0.00    -0.503 OA
ATOM     18  H   UNL     1      29.191 -21.393 -17.039  0.00  0.00    +0.292 HD
ENDBRANCH  14  17
BRANCH  16  19
ATOM     19  O   UNL     1      27.966 -24.173 -15.427  0.00  0.00    -0.503 OA
ATOM     20  H   UNL     1      27.440 -23.632 -15.983  0.00  0.00    +0.292 HD
ENDBRANCH  16  19
ENDBRANCH   3  11
BRANCH   2  21
ATOM     21  O   UNL     1      34.038 -24.222 -17.333  0.00  0.00    -0.380 OA
ATOM     22  H   UNL     1      34.472 -24.049 -18.183  0.00  0.00    +0.211 HD
ENDBRANCH   2  21
BRANCH   7  23
ATOM     23  O   UNL     1      38.499 -23.009 -16.062  0.00  0.00    -0.506 OA
ATOM     24  H   UNL     1      38.502 -22.078 -15.954  0.00  0.00    +0.292 HD
ENDBRANCH   7  23
BRANCH  10  25
ATOM     25  O   UNL     1      38.160 -26.319 -12.660  0.00  0.00    -0.505 OA
ATOM     26  H   UNL     1      37.676 -27.035 -12.297  0.00  0.00    +0.292 HD
ENDBRANCH  10  25
TORSDOF 6
ENDMDL
MODEL 5
REMARK VINA RESULT:      -9.2      8.325     10.701
REMARK  Name = 72276
REMARK  6 active torsions:
REMARK  status: ('A' for Active; 'I' for Inactive)
REMARK    1  A    between atoms: C_2  and  O_21
REMARK    2  A    between atoms: C_3  and  C_11
REMARK    3  A    between atoms: C_7  and  O_23
REMARK    4  A    between atoms: C_10  and  O_25
REMARK    5  A    between atoms: C_14  and  O_17
REMARK    6  A    between atoms: C_16  and  O_19
REMARK                            x       y       z     vdW  Elec       q    Type
REMARK                         _______ _______ _______ _____ _____    ______ ____
ROOT
ATOM      1  O   UNL     1      33.835 -24.335 -14.490  0.00  0.00    -0.472 OA
ATOM      2  C   UNL     1      34.046 -23.151 -16.640  0.00  0.00    +0.159 C 
ATOM      3  C   UNL     1      33.313 -23.267 -15.297  0.00  0.00    +0.215 C 
ATOM      4  C   UNL     1      35.522 -22.850 -16.389  0.00  0.00    +0.066 C 
ATOM      5  C   UNL     1      36.061 -23.687 -15.260  0.00  0.00    +0.048 C 
ATOM      6  C   UNL     1      35.202 -24.364 -14.384  0.00  0.00    +0.141 C 
ATOM      7  C   UNL     1      37.445 -23.780 -15.064  0.00  0.00    +0.136 C 
ATOM      8  C   UNL     1      35.723 -25.153 -13.355  0.00  0.00    +0.073 C 
ATOM      9  C   UNL     1      37.963 -24.557 -14.027  0.00  0.00    +0.073 C 
ATOM     10  C   UNL     1      37.102 -25.246 -13.175  0.00  0.00    +0.140 C 
ENDROOT
BRANCH   3  11
ATOM     11  C   UNL     1      31.819 -23.457 -15.483  0.00  0.00    +0.023 C 
ATOM     12  C   UNL     1      31.142 -24.420 -14.737  0.00  0.00    +0.039 C 
ATOM     13  C   UNL     1      31.127 -22.668 -16.401  0.00  0.00    +0.003 C 
ATOM     14  C   UNL     1      29.769 -24.595 -14.909  0.00  0.00    +0.167 C 
ATOM     15  C   UNL     1      29.754 -22.844 -16.573  0.00  0.00    +0.040 C 
ATOM     16  C   UNL     1      29.075 -23.806 -15.827  0.00  0.00    +0.167 C 
BRANCH  14  17
ATOM     17  O   UNL     1      29.117 -25.537 -14.173  0.00  0.00    -0.503 OA
ATOM     18  H   UNL     1      28.349 -25.950 -14.516  0.00  0.00    +0.292 HD
ENDBRANCH  14  17
BRANCH  16  19
ATOM     19  O   UNL     1      27.734 -23.968 -16.003  0.00  0.00    -0.503 OA
ATOM     20  H   UNL     1      27.142 -23.288 -15.747  0.00  0.00    +0.292 HD
ENDBRANCH  16  19
ENDBRANCH   3  11
BRANCH   2  21
ATOM     21  O   UNL     1      33.933 -24.374 -17.368  0.00  0.00    -0.380 OA
ATOM     22  H   UNL     1      34.165 -25.118 -16.790  0.00  0.00    +0.211 HD
ENDBRANCH   2  21
BRANCH   7  23
ATOM     23  O   UNL     1      38.314 -23.116 -15.879  0.00  0.00    -0.506 OA
ATOM     24  H   UNL     1      38.277 -22.182 -15.942  0.00  0.00    +0.292 HD
ENDBRANCH   7  23
BRANCH  10  25
ATOM     25  O   UNL     1      37.608 -26.008 -12.167  0.00  0.00    -0.505 OA
ATOM     26  H   UNL     1      37.376 -25.823 -11.278  0.00  0.00    +0.292 HD
ENDBRANCH  10  25
TORSDOF 6
ENDMDL
MODEL 6
REMARK VINA RESULT:      -9.0      5.157     10.868
REMARK  Name = 72276
REMARK  6 active torsions:
REMARK  status: ('A' for Active; 'I' for Inactive)
REMARK    1  A    between atoms: C_2  and  O_21
REMARK    2  A    between atoms: C_3  and  C_11
REMARK    3  A    between atoms: C_7  and  O_23
REMARK    4  A    between atoms: C_10  and  O_25
REMARK    5  A    between atoms: C_14  and  O_17
REMARK    6  A    between atoms: C_16  and  O_19
REMARK                            x       y       z     vdW  Elec       q    Type
REMARK                         _______ _______ _______ _____ _____    ______ ____
ROOT
ATOM      1  O   UNL     1      36.649 -23.891 -16.038  0.00  0.00    -0.472 OA
ATOM      2  C   UNL     1      34.544 -23.273 -14.918  0.00  0.00    +0.159 C 
ATOM      3  C   UNL     1      35.225 -23.784 -16.195  0.00  0.00    +0.215 C 
ATOM      4  C   UNL     1      34.801 -24.256 -13.778  0.00  0.00    +0.066 C 
ATOM      5  C   UNL     1      36.231 -24.726 -13.781  0.00  0.00    +0.048 C 
ATOM      6  C   UNL     1      37.058 -24.528 -14.895  0.00  0.00    +0.141 C 
ATOM      7  C   UNL     1      36.746 -25.392 -12.661  0.00  0.00    +0.136 C 
ATOM      8  C   UNL     1      38.389 -24.955 -14.870  0.00  0.00    +0.073 C 
ATOM      9  C   UNL     1      38.071 -25.829 -12.644  0.00  0.00    +0.073 C 
ATOM     10  C   UNL     1      38.893 -25.607 -13.747  0.00  0.00    +0.140 C 
ENDROOT
BRANCH   3  11
ATOM     11  C   UNL     1      34.912 -22.904 -17.392  0.00  0.00    +0.023 C 
ATOM     12  C   UNL     1      35.914 -22.118 -17.958  0.00  0.00    +0.039 C 
ATOM     13  C   UNL     1      33.623 -22.885 -17.922  0.00  0.00    +0.003 C 
ATOM     14  C   UNL     1      35.627 -21.309 -19.057  0.00  0.00    +0.167 C 
ATOM     15  C   UNL     1      33.335 -22.075 -19.022  0.00  0.00    +0.040 C 
ATOM     16  C   UNL     1      34.337 -21.289 -19.589  0.00  0.00    +0.167 C 
BRANCH  14  17
ATOM     17  O   UNL     1      36.613 -20.545 -19.603  0.00  0.00    -0.503 OA
ATOM     18  H   UNL     1      36.588 -19.613 -19.513  0.00  0.00    +0.292 HD
ENDBRANCH  14  17
BRANCH  16  19
ATOM     19  O   UNL     1      34.044 -20.503 -20.663  0.00  0.00    -0.503 OA
ATOM     20  H   UNL     1      34.033 -19.570 -20.573  0.00  0.00    +0.292 HD
ENDBRANCH  16  19
ENDBRANCH   3  11
BRANCH   2  21
ATOM     21  O   UNL     1      35.065 -21.993 -14.562  0.00  0.00    -0.380 OA
ATOM     22  H   UNL     1      34.500 -21.590 -13.885  0.00  0.00    +0.211 HD
ENDBRANCH   2  21
BRANCH   7  23
ATOM     23  O   UNL     1      35.967 -25.626 -11.567  0.00  0.00    -0.506 OA
ATOM     24  H   UNL     1      35.395 -24.956 -11.246  0.00  0.00    +0.292 HD
ENDBRANCH   7  23
BRANCH  10  25
ATOM     25  O   UNL     1      40.187 -26.028 -13.727  0.00  0.00    -0.505 OA
ATOM     26  H   UNL     1      40.555 -26.444 -14.482  0.00  0.00    +0.292 HD
ENDBRANCH  10  25
TORSDOF 6
ENDMDL
MODEL 7
REMARK VINA RESULT:      -8.9      4.902     10.665
REMARK  Name = 72276
REMARK  6 active torsions:
REMARK  status: ('A' for Active; 'I' for Inactive)
REMARK    1  A    between atoms: C_2  and  O_21
REMARK    2  A    between atoms: C_3  and  C_11
REMARK    3  A    between atoms: C_7  and  O_23
REMARK    4  A    between atoms: C_10  and  O_25
REMARK    5  A    between atoms: C_14  and  O_17
REMARK    6  A    between atoms: C_16  and  O_19
REMARK                            x       y       z     vdW  Elec       q    Type
REMARK                         _______ _______ _______ _____ _____    ______ ____
ROOT
ATOM      1  O   UNL     1      36.796 -23.777 -16.107  0.00  0.00    -0.472 OA
ATOM      2  C   UNL     1      34.672 -22.966 -15.160  0.00  0.00    +0.159 C 
ATOM      3  C   UNL     1      35.404 -23.547 -16.377  0.00  0.00    +0.215 C 
ATOM      4  C   UNL     1      34.751 -23.956 -14.000  0.00  0.00    +0.066 C 
ATOM      5  C   UNL     1      36.129 -24.550 -13.888  0.00  0.00    +0.048 C 
ATOM      6  C   UNL     1      37.056 -24.437 -14.933  0.00  0.00    +0.141 C 
ATOM      7  C   UNL     1      36.493 -25.247 -12.729  0.00  0.00    +0.136 C 
ATOM      8  C   UNL     1      38.337 -24.978 -14.801  0.00  0.00    +0.073 C 
ATOM      9  C   UNL     1      37.769 -25.799 -12.604  0.00  0.00    +0.073 C 
ATOM     10  C   UNL     1      38.691 -25.661 -13.639  0.00  0.00    +0.140 C 
ENDROOT
BRANCH   3  11
ATOM     11  C   UNL     1      35.265 -22.655 -17.598  0.00  0.00    +0.023 C 
ATOM     12  C   UNL     1      34.044 -22.576 -18.265  0.00  0.00    +0.039 C 
ATOM     13  C   UNL     1      36.359 -21.919 -18.049  0.00  0.00    +0.003 C 
ATOM     14  C   UNL     1      33.917 -21.758 -19.387  0.00  0.00    +0.167 C 
ATOM     15  C   UNL     1      36.232 -21.101 -19.172  0.00  0.00    +0.040 C 
ATOM     16  C   UNL     1      35.011 -21.020 -19.840  0.00  0.00    +0.167 C 
BRANCH  14  17
ATOM     17  O   UNL     1      32.719 -21.685 -20.031  0.00  0.00    -0.503 OA
ATOM     18  H   UNL     1      32.491 -22.331 -20.670  0.00  0.00    +0.292 HD
ENDBRANCH  14  17
BRANCH  16  19
ATOM     19  O   UNL     1      34.899 -20.217 -20.935  0.00  0.00    -0.503 OA
ATOM     20  H   UNL     1      34.594 -19.335 -20.841  0.00  0.00    +0.292 HD
ENDBRANCH  16  19
ENDBRANCH   3  11
BRANCH   2  21
ATOM     21  O   UNL     1      35.275 -21.732 -14.768  0.00  0.00    -0.380 OA
ATOM     22  H   UNL     1      34.709 -21.288 -14.117  0.00  0.00    +0.211 HD
ENDBRANCH   2  21
BRANCH   7  23
ATOM     23  O   UNL     1      35.612 -25.401 -11.699  0.00  0.00    -0.506 OA
ATOM     24  H   UNL     1      35.356 -26.260 -11.425  0.00  0.00    +0.292 HD
ENDBRANCH   7  23
BRANCH  10  25
ATOM     25  O   UNL     1      39.938 -26.195 -13.515  0.00  0.00    -0.505 OA
ATOM     26  H   UNL     1      40.094 -27.082 -13.771  0.00  0.00    +0.292 HD
ENDBRANCH  10  25
TORSDOF 6
ENDMDL
MODEL 8
REMARK VINA RESULT:      -8.9      4.475      7.584
REMARK  Name = 72276
REMARK  6 active torsions:
REMARK  status: ('A' for Active; 'I' for Inactive)
REMARK    1  A    between atoms: C_2  and  O_21
REMARK    2  A    between atoms: C_3  and  C_11
REMARK    3  A    between atoms: C_7  and  O_23
REMARK    4  A    between atoms: C_10  and  O_25
REMARK    5  A    between atoms: C_14  and  O_17
REMARK    6  A    between atoms: C_16  and  O_19
REMARK                            x       y       z     vdW  Elec       q    Type
REMARK                         _______ _______ _______ _____ _____    ______ ____
ROOT
ATOM      1  O   UNL     1      35.910 -22.516 -17.162  0.00  0.00    -0.472 OA
ATOM      2  C   UNL     1      33.662 -23.496 -16.927  0.00  0.00    +0.159 C 
ATOM      3  C   UNL     1      34.868 -22.850 -16.231  0.00  0.00    +0.215 C 
ATOM      4  C   UNL     1      33.072 -22.513 -17.936  0.00  0.00    +0.066 C 
ATOM      5  C   UNL     1      34.157 -21.817 -18.712  0.00  0.00    +0.048 C 
ATOM      6  C   UNL     1      35.491 -21.849 -18.284  0.00  0.00    +0.141 C 
ATOM      7  C   UNL     1      33.832 -21.104 -19.874  0.00  0.00    +0.136 C 
ATOM      8  C   UNL     1      36.487 -21.213 -19.030  0.00  0.00    +0.073 C 
ATOM      9  C   UNL     1      34.826 -20.458 -20.610  0.00  0.00    +0.073 C 
ATOM     10  C   UNL     1      36.153 -20.515 -20.190  0.00  0.00    +0.140 C 
ENDROOT
BRANCH   3  11
ATOM     11  C   UNL     1      35.431 -23.739 -15.137  0.00  0.00    +0.023 C 
ATOM     12  C   UNL     1      34.718 -23.919 -13.953  0.00  0.00    +0.039 C 
ATOM     13  C   UNL     1      36.658 -24.372 -15.319  0.00  0.00    +0.003 C 
ATOM     14  C   UNL     1      35.235 -24.734 -12.946  0.00  0.00    +0.167 C 
ATOM     15  C   UNL     1      37.176 -25.188 -14.312  0.00  0.00    +0.040 C 
ATOM     16  C   UNL     1      36.465 -25.369 -13.127  0.00  0.00    +0.167 C 
BRANCH  14  17
ATOM     17  O   UNL     1      34.531 -24.905 -11.793  0.00  0.00    -0.503 OA
ATOM     18  H   UNL     1      34.009 -24.204 -11.456  0.00  0.00    +0.292 HD
ENDBRANCH  14  17
BRANCH  16  19
ATOM     19  O   UNL     1      36.980 -26.169 -12.151  0.00  0.00    -0.503 OA
ATOM     20  H   UNL     1      36.467 -26.376 -11.395  0.00  0.00    +0.292 HD
ENDBRANCH  16  19
ENDBRANCH   3  11
BRANCH   2  21
ATOM     21  O   UNL     1      34.068 -24.683 -17.609  0.00  0.00    -0.380 OA
ATOM     22  H   UNL     1      34.984 -24.895 -17.373  0.00  0.00    +0.211 HD
ENDBRANCH   2  21
BRANCH   7  23
ATOM     23  O   UNL     1      32.542 -21.027 -20.310  0.00  0.00    -0.506 OA
ATOM     24  H   UNL     1      32.034 -20.259 -20.137  0.00  0.00    +0.292 HD
ENDBRANCH   7  23
BRANCH  10  25
ATOM     25  O   UNL     1      37.124 -19.889 -20.911  0.00  0.00    -0.505 OA
ATOM     26  H   UNL     1      37.712 -20.392 -21.438  0.00  0.00    +0.292 HD
ENDBRANCH  10  25
TORSDOF 6
ENDMDL
MODEL 9
REMARK VINA RESULT:      -8.9      8.357     10.725
REMARK  Name = 72276
REMARK  6 active torsions:
REMARK  status: ('A' for Active; 'I' for Inactive)
REMARK    1  A    between atoms: C_2  and  O_21
REMARK    2  A    between atoms: C_3  and  C_11
REMARK    3  A    between atoms: C_7  and  O_23
REMARK    4  A    between atoms: C_10  and  O_25
REMARK    5  A    between atoms: C_14  and  O_17
REMARK    6  A    between atoms: C_16  and  O_19
REMARK                            x       y       z     vdW  Elec       q    Type
REMARK                         _______ _______ _______ _____ _____    ______ ____
ROOT
ATOM      1  O   UNL     1      32.758 -23.264 -15.782  0.00  0.00    -0.472 OA
ATOM      2  C   UNL     1      32.008 -24.295 -13.674  0.00  0.00    +0.159 C 
ATOM      3  C   UNL     1      31.786 -24.138 -15.184  0.00  0.00    +0.215 C 
ATOM      4  C   UNL     1      33.384 -24.909 -13.424  0.00  0.00    +0.066 C 
ATOM      5  C   UNL     1      34.423 -24.289 -14.319  0.00  0.00    +0.048 C 
ATOM      6  C   UNL     1      34.058 -23.522 -15.433  0.00  0.00    +0.141 C 
ATOM      7  C   UNL     1      35.782 -24.495 -14.050  0.00  0.00    +0.136 C 
ATOM      8  C   UNL     1      35.040 -22.938 -16.240  0.00  0.00    +0.073 C 
ATOM      9  C   UNL     1      36.761 -23.923 -14.864  0.00  0.00    +0.073 C 
ATOM     10  C   UNL     1      36.389 -23.142 -15.956  0.00  0.00    +0.140 C 
ENDROOT
BRANCH   3  11
ATOM     11  C   UNL     1      30.390 -23.634 -15.501  0.00  0.00    +0.023 C 
ATOM     12  C   UNL     1      29.589 -24.328 -16.407  0.00  0.00    +0.039 C 
ATOM     13  C   UNL     1      29.911 -22.480 -14.885  0.00  0.00    +0.003 C 
ATOM     14  C   UNL     1      28.306 -23.866 -16.698  0.00  0.00    +0.167 C 
ATOM     15  C   UNL     1      28.627 -22.016 -15.177  0.00  0.00    +0.040 C 
ATOM     16  C   UNL     1      27.826 -22.709 -16.082  0.00  0.00    +0.167 C 
BRANCH  14  17
ATOM     17  O   UNL     1      27.531 -24.552 -17.584  0.00  0.00    -0.503 OA
ATOM     18  H   UNL     1      27.923 -24.961 -18.329  0.00  0.00    +0.292 HD
ENDBRANCH  14  17
BRANCH  16  19
ATOM     19  O   UNL     1      26.574 -22.248 -16.359  0.00  0.00    -0.503 OA
ATOM     20  H   UNL     1      26.462 -21.422 -16.787  0.00  0.00    +0.292 HD
ENDBRANCH  16  19
ENDBRANCH   3  11
BRANCH   2  21
ATOM     21  O   UNL     1      31.937 -23.022 -13.033  0.00  0.00    -0.380 OA
ATOM     22  H   UNL     1      31.008 -22.762 -12.929  0.00  0.00    +0.211 HD
ENDBRANCH   2  21
BRANCH   7  23
ATOM     23  O   UNL     1      36.179 -25.256 -12.990  0.00  0.00    -0.506 OA
ATOM     24  H   UNL     1      35.748 -26.068 -12.808  0.00  0.00    +0.292 HD
ENDBRANCH   7  23
BRANCH  10  25
ATOM     25  O   UNL     1      37.343 -22.579 -16.748  0.00  0.00    -0.505 OA
ATOM     26  H   UNL     1      37.354 -22.758 -17.667  0.00  0.00    +0.292 HD
ENDBRANCH  10  25
TORSDOF 6
ENDMDL
