MODEL 1
REMARK VINA RESULT:      -6.1      0.000      0.000
REMARK  Name = 25058136
REMARK  13 active torsions:
REMARK  status: ('A' for Active; 'I' for Inactive)
REMARK    1  A    between atoms: C_1  and  C_2
REMARK    2  A    between atoms: C_1  and  C_8
REMARK    3  A    between atoms: C_1  and  C_14
REMARK    4  A    between atoms: C_2  and  C_3
REMARK    5  A    between atoms: C_3  and  C_4
REMARK    6  A    between atoms: C_4  and  C_5
REMARK    7  A    between atoms: C_5  and  O_6
REMARK    8  A    between atoms: C_8  and  C_9
REMARK    9  A    between atoms: C_9  and  C_10
REMARK   10  A    between atoms: C_10  and  C_11
REMARK   11  A    between atoms: C_11  and  O_12
REMARK   12  A    between atoms: C_14  and  C_15
REMARK   13  A    between atoms: C_15  and  O_16
REMARK                            x       y       z     vdW  Elec       q    Type
REMARK                         _______ _______ _______ _____ _____    ______ ____
ROOT
ATOM      1  C   UNL     1      34.514 -18.576 -22.078  0.00  0.00    +0.002 C 
ENDROOT
BRANCH   1   2
ATOM      2  C   UNL     1      35.191 -18.904 -23.434  0.00  0.00    +0.000 C 
BRANCH   2   3
ATOM      3  C   UNL     1      34.393 -18.446 -24.661  0.00  0.00    +0.003 C 
BRANCH   3   4
ATOM      4  C   UNL     1      34.846 -17.083 -25.200  0.00  0.00    +0.032 C 
BRANCH   4   5
ATOM      5  C   UNL     1      33.754 -16.020 -25.225  0.00  0.00    +0.137 C 
BRANCH   5   6
ATOM      6  O   UNL     1      33.678 -15.430 -26.515  0.00  0.00    -0.382 OA
ATOM      7  H   UNL     1      33.232 -14.572 -26.452  0.00  0.00    +0.210 HD
ENDBRANCH   5   6
ENDBRANCH   4   5
ENDBRANCH   3   4
ENDBRANCH   2   3
ENDBRANCH   1   2
BRANCH   1   8
ATOM      8  C   UNL     1      34.420 -19.838 -21.187  0.00  0.00    +0.000 C 
BRANCH   8   9
ATOM      9  C   UNL     1      33.085 -20.076 -20.469  0.00  0.00    +0.003 C 
BRANCH   9  10
ATOM     10  C   UNL     1      33.120 -21.249 -19.491  0.00  0.00    +0.032 C 
BRANCH  10  11
ATOM     11  C   UNL     1      34.531 -21.798 -19.327  0.00  0.00    +0.137 C 
BRANCH  11  12
ATOM     12  O   UNL     1      34.503 -23.205 -19.524  0.00  0.00    -0.382 OA
ATOM     13  H   UNL     1      33.906 -23.416 -20.259  0.00  0.00    +0.210 HD
ENDBRANCH  11  12
ENDBRANCH  10  11
ENDBRANCH   9  10
ENDBRANCH   8   9
ENDBRANCH   1   8
BRANCH   1  14
ATOM     14  C   UNL     1      35.258 -17.434 -21.350  0.00  0.00    +0.032 C 
BRANCH  14  15
ATOM     15  C   UNL     1      34.528 -16.094 -21.358  0.00  0.00    +0.137 C 
BRANCH  15  16
ATOM     16  O   UNL     1      34.856 -15.390 -20.167  0.00  0.00    -0.382 OA
ATOM     17  H   UNL     1      34.834 -14.435 -20.340  0.00  0.00    +0.210 HD
ENDBRANCH  15  16
ENDBRANCH  14  15
ENDBRANCH   1  14
TORSDOF 13
ENDMDL
MODEL 2
REMARK VINA RESULT:      -6.1      0.937      6.061
REMARK  Name = 25058136
REMARK  13 active torsions:
REMARK  status: ('A' for Active; 'I' for Inactive)
REMARK    1  A    between atoms: C_1  and  C_2
REMARK    2  A    between atoms: C_1  and  C_8
REMARK    3  A    between atoms: C_1  and  C_14
REMARK    4  A    between atoms: C_2  and  C_3
REMARK    5  A    between atoms: C_3  and  C_4
REMARK    6  A    between atoms: C_4  and  C_5
REMARK    7  A    between atoms: C_5  and  O_6
REMARK    8  A    between atoms: C_8  and  C_9
REMARK    9  A    between atoms: C_9  and  C_10
REMARK   10  A    between atoms: C_10  and  C_11
REMARK   11  A    between atoms: C_11  and  O_12
REMARK   12  A    between atoms: C_14  and  C_15
REMARK   13  A    between atoms: C_15  and  O_16
REMARK                            x       y       z     vdW  Elec       q    Type
REMARK                         _______ _______ _______ _____ _____    ______ ____
ROOT
ATOM      1  C   UNL     1      34.726 -19.040 -21.494  0.00  0.00    +0.002 C 
ENDROOT
BRANCH   1   2
ATOM      2  C   UNL     1      33.334 -19.174 -20.826  0.00  0.00    +0.000 C 
BRANCH   2   3
ATOM      3  C   UNL     1      33.024 -20.582 -20.301  0.00  0.00    +0.003 C 
BRANCH   3   4
ATOM      4  C   UNL     1      34.244 -21.276 -19.682  0.00  0.00    +0.032 C 
BRANCH   4   5
ATOM      5  C   UNL     1      33.904 -22.411 -18.722  0.00  0.00    +0.137 C 
BRANCH   5   6
ATOM      6  O   UNL     1      32.521 -22.381 -18.403  0.00  0.00    -0.382 OA
ATOM      7  H   UNL     1      32.233 -21.461 -18.299  0.00  0.00    +0.210 HD
ENDBRANCH   5   6
ENDBRANCH   4   5
ENDBRANCH   3   4
ENDBRANCH   2   3
ENDBRANCH   1   2
BRANCH   1   8
ATOM      8  C   UNL     1      34.637 -19.306 -23.017  0.00  0.00    +0.000 C 
BRANCH   8   9
ATOM      9  C   UNL     1      35.373 -18.319 -23.932  0.00  0.00    +0.003 C 
BRANCH   9  10
ATOM     10  C   UNL     1      34.524 -17.824 -25.102  0.00  0.00    +0.032 C 
BRANCH  10  11
ATOM     11  C   UNL     1      34.178 -16.348 -24.957  0.00  0.00    +0.137 C 
BRANCH  11  12
ATOM     12  O   UNL     1      33.830 -15.829 -26.233  0.00  0.00    -0.382 OA
ATOM     13  H   UNL     1      34.619 -15.804 -26.797  0.00  0.00    +0.210 HD
ENDBRANCH  11  12
ENDBRANCH  10  11
ENDBRANCH   9  10
ENDBRANCH   8   9
ENDBRANCH   1   8
BRANCH   1  14
ATOM     14  C   UNL     1      35.347 -17.655 -21.206  0.00  0.00    +0.032 C 
BRANCH  14  15
ATOM     15  C   UNL     1      34.333 -16.527 -21.038  0.00  0.00    +0.137 C 
BRANCH  15  16
ATOM     16  O   UNL     1      34.913 -15.510 -20.231  0.00  0.00    -0.382 OA
ATOM     17  H   UNL     1      35.367 -15.916 -19.475  0.00  0.00    +0.210 HD
ENDBRANCH  15  16
ENDBRANCH  14  15
ENDBRANCH   1  14
TORSDOF 13
ENDMDL
MODEL 3
REMARK VINA RESULT:      -6.0      1.787      4.628
REMARK  Name = 25058136
REMARK  13 active torsions:
REMARK  status: ('A' for Active; 'I' for Inactive)
REMARK    1  A    between atoms: C_1  and  C_2
REMARK    2  A    between atoms: C_1  and  C_8
REMARK    3  A    between atoms: C_1  and  C_14
REMARK    4  A    between atoms: C_2  and  C_3
REMARK    5  A    between atoms: C_3  and  C_4
REMARK    6  A    between atoms: C_4  and  C_5
REMARK    7  A    between atoms: C_5  and  O_6
REMARK    8  A    between atoms: C_8  and  C_9
REMARK    9  A    between atoms: C_9  and  C_10
REMARK   10  A    between atoms: C_10  and  C_11
REMARK   11  A    between atoms: C_11  and  O_12
REMARK   12  A    between atoms: C_14  and  C_15
REMARK   13  A    between atoms: C_15  and  O_16
REMARK                            x       y       z     vdW  Elec       q    Type
REMARK                         _______ _______ _______ _____ _____    ______ ____
ROOT
ATOM      1  C   UNL     1      34.998 -18.427 -21.386  0.00  0.00    +0.002 C 
ENDROOT
BRANCH   1   2
ATOM      2  C   UNL     1      35.624 -18.366 -22.802  0.00  0.00    +0.000 C 
BRANCH   2   3
ATOM      3  C   UNL     1      34.884 -19.206 -23.852  0.00  0.00    +0.003 C 
BRANCH   3   4
ATOM      4  C   UNL     1      34.325 -18.368 -25.008  0.00  0.00    +0.032 C 
BRANCH   4   5
ATOM      5  C   UNL     1      34.853 -16.939 -25.064  0.00  0.00    +0.137 C 
BRANCH   5   6
ATOM      6  O   UNL     1      34.094 -16.175 -25.990  0.00  0.00    -0.382 OA
ATOM      7  H   UNL     1      33.163 -16.439 -25.940  0.00  0.00    +0.210 HD
ENDBRANCH   5   6
ENDBRANCH   4   5
ENDBRANCH   3   4
ENDBRANCH   2   3
ENDBRANCH   1   2
BRANCH   1   8
ATOM      8  C   UNL     1      33.980 -17.278 -21.180  0.00  0.00    +0.000 C 
BRANCH   8   9
ATOM      9  C   UNL     1      34.559 -15.898 -20.843  0.00  0.00    +0.003 C 
BRANCH   9  10
ATOM     10  C   UNL     1      34.436 -14.891 -21.986  0.00  0.00    +0.032 C 
BRANCH  10  11
ATOM     11  C   UNL     1      32.995 -14.753 -22.457  0.00  0.00    +0.137 C 
BRANCH  11  12
ATOM     12  O   UNL     1      32.992 -14.333 -23.814  0.00  0.00    -0.382 OA
ATOM     13  H   UNL     1      32.083 -14.335 -24.151  0.00  0.00    +0.210 HD
ENDBRANCH  11  12
ENDBRANCH  10  11
ENDBRANCH   9  10
ENDBRANCH   8   9
ENDBRANCH   1   8
BRANCH   1  14
ATOM     14  C   UNL     1      34.344 -19.803 -21.128  0.00  0.00    +0.032 C 
BRANCH  14  15
ATOM     15  C   UNL     1      32.882 -19.741 -20.699  0.00  0.00    +0.137 C 
BRANCH  15  16
ATOM     16  O   UNL     1      32.684 -20.649 -19.622  0.00  0.00    -0.382 OA
ATOM     17  H   UNL     1      32.089 -21.361 -19.904  0.00  0.00    +0.210 HD
ENDBRANCH  15  16
ENDBRANCH  14  15
ENDBRANCH   1  14
TORSDOF 13
ENDMDL
MODEL 4
REMARK VINA RESULT:      -5.9      1.836      3.471
REMARK  Name = 25058136
REMARK  13 active torsions:
REMARK  status: ('A' for Active; 'I' for Inactive)
REMARK    1  A    between atoms: C_1  and  C_2
REMARK    2  A    between atoms: C_1  and  C_8
REMARK    3  A    between atoms: C_1  and  C_14
REMARK    4  A    between atoms: C_2  and  C_3
REMARK    5  A    between atoms: C_3  and  C_4
REMARK    6  A    between atoms: C_4  and  C_5
REMARK    7  A    between atoms: C_5  and  O_6
REMARK    8  A    between atoms: C_8  and  C_9
REMARK    9  A    between atoms: C_9  and  C_10
REMARK   10  A    between atoms: C_10  and  C_11
REMARK   11  A    between atoms: C_11  and  O_12
REMARK   12  A    between atoms: C_14  and  C_15
REMARK   13  A    between atoms: C_15  and  O_16
REMARK                            x       y       z     vdW  Elec       q    Type
REMARK                         _______ _______ _______ _____ _____    ______ ____
ROOT
ATOM      1  C   UNL     1      35.410 -17.398 -22.432  0.00  0.00    +0.002 C 
ENDROOT
BRANCH   1   2
ATOM      2  C   UNL     1      34.843 -15.977 -22.183  0.00  0.00    +0.000 C 
BRANCH   2   3
ATOM      3  C   UNL     1      33.951 -15.867 -20.939  0.00  0.00    +0.003 C 
BRANCH   3   4
ATOM      4  C   UNL     1      32.571 -15.267 -21.240  0.00  0.00    +0.032 C 
BRANCH   4   5
ATOM      5  C   UNL     1      32.555 -13.747 -21.352  0.00  0.00    +0.137 C 
BRANCH   5   6
ATOM      6  O   UNL     1      31.900 -13.354 -22.550  0.00  0.00    -0.382 OA
ATOM      7  H   UNL     1      31.984 -12.395 -22.664  0.00  0.00    +0.210 HD
ENDBRANCH   5   6
ENDBRANCH   4   5
ENDBRANCH   3   4
ENDBRANCH   2   3
ENDBRANCH   1   2
BRANCH   1   8
ATOM      8  C   UNL     1      35.020 -18.359 -21.283  0.00  0.00    +0.000 C 
BRANCH   8   9
ATOM      9  C   UNL     1      34.151 -19.566 -21.659  0.00  0.00    +0.003 C 
BRANCH   9  10
ATOM     10  C   UNL     1      33.214 -20.014 -20.539  0.00  0.00    +0.032 C 
BRANCH  10  11
ATOM     11  C   UNL     1      33.810 -21.163 -19.738  0.00  0.00    +0.137 C 
BRANCH  11  12
ATOM     12  O   UNL     1      32.756 -21.991 -19.265  0.00  0.00    -0.382 OA
ATOM     13  H   UNL     1      31.906 -21.549 -19.416  0.00  0.00    +0.210 HD
ENDBRANCH  11  12
ENDBRANCH  10  11
ENDBRANCH   9  10
ENDBRANCH   8   9
ENDBRANCH   1   8
BRANCH   1  14
ATOM     14  C   UNL     1      34.944 -17.946 -23.800  0.00  0.00    +0.032 C 
BRANCH  14  15
ATOM     15  C   UNL     1      34.255 -16.921 -24.695  0.00  0.00    +0.137 C 
BRANCH  15  16
ATOM     16  O   UNL     1      35.024 -16.761 -25.881  0.00  0.00    -0.382 OA
ATOM     17  H   UNL     1      35.798 -16.206 -25.692  0.00  0.00    +0.210 HD
ENDBRANCH  15  16
ENDBRANCH  14  15
ENDBRANCH   1  14
TORSDOF 13
ENDMDL
MODEL 5
REMARK VINA RESULT:      -5.9      1.625      6.235
REMARK  Name = 25058136
REMARK  13 active torsions:
REMARK  status: ('A' for Active; 'I' for Inactive)
REMARK    1  A    between atoms: C_1  and  C_2
REMARK    2  A    between atoms: C_1  and  C_8
REMARK    3  A    between atoms: C_1  and  C_14
REMARK    4  A    between atoms: C_2  and  C_3
REMARK    5  A    between atoms: C_3  and  C_4
REMARK    6  A    between atoms: C_4  and  C_5
REMARK    7  A    between atoms: C_5  and  O_6
REMARK    8  A    between atoms: C_8  and  C_9
REMARK    9  A    between atoms: C_9  and  C_10
REMARK   10  A    between atoms: C_10  and  C_11
REMARK   11  A    between atoms: C_11  and  O_12
REMARK   12  A    between atoms: C_14  and  C_15
REMARK   13  A    between atoms: C_15  and  O_16
REMARK                            x       y       z     vdW  Elec       q    Type
REMARK                         _______ _______ _______ _____ _____    ______ ____
ROOT
ATOM      1  C   UNL     1      34.561 -18.214 -22.003  0.00  0.00    +0.002 C 
ENDROOT
BRANCH   1   2
ATOM      2  C   UNL     1      34.619 -19.548 -21.215  0.00  0.00    +0.000 C 
BRANCH   2   3
ATOM      3  C   UNL     1      33.260 -20.021 -20.682  0.00  0.00    +0.003 C 
BRANCH   3   4
ATOM      4  C   UNL     1      33.375 -21.189 -19.694  0.00  0.00    +0.032 C 
BRANCH   4   5
ATOM      5  C   UNL     1      34.803 -21.657 -19.435  0.00  0.00    +0.137 C 
BRANCH   5   6
ATOM      6  O   UNL     1      34.800 -22.746 -18.523  0.00  0.00    -0.382 OA
ATOM      7  H   UNL     1      34.487 -23.545 -18.975  0.00  0.00    +0.210 HD
ENDBRANCH   5   6
ENDBRANCH   4   5
ENDBRANCH   3   4
ENDBRANCH   2   3
ENDBRANCH   1   2
BRANCH   1   8
ATOM      8  C   UNL     1      35.075 -17.038 -21.138  0.00  0.00    +0.000 C 
BRANCH   8   9
ATOM      9  C   UNL     1      34.131 -15.840 -20.973  0.00  0.00    +0.003 C 
BRANCH   9  10
ATOM     10  C   UNL     1      34.373 -14.729 -21.994  0.00  0.00    +0.032 C 
BRANCH  10  11
ATOM     11  C   UNL     1      33.215 -14.609 -22.975  0.00  0.00    +0.137 C 
BRANCH  11  12
ATOM     12  O   UNL     1      33.513 -15.375 -24.134  0.00  0.00    -0.382 OA
ATOM     13  H   UNL     1      33.466 -16.320 -23.918  0.00  0.00    +0.210 HD
ENDBRANCH  11  12
ENDBRANCH  10  11
ENDBRANCH   9  10
ENDBRANCH   8   9
ENDBRANCH   1   8
BRANCH   1  14
ATOM     14  C   UNL     1      35.351 -18.319 -23.327  0.00  0.00    +0.032 C 
BRANCH  14  15
ATOM     15  C   UNL     1      34.523 -18.766 -24.527  0.00  0.00    +0.137 C 
BRANCH  15  16
ATOM     16  O   UNL     1      34.590 -17.757 -25.528  0.00  0.00    -0.382 OA
ATOM     17  H   UNL     1      34.451 -18.158 -26.401  0.00  0.00    +0.210 HD
ENDBRANCH  15  16
ENDBRANCH  14  15
ENDBRANCH   1  14
TORSDOF 13
ENDMDL
MODEL 6
REMARK VINA RESULT:      -5.9      1.582      5.368
REMARK  Name = 25058136
REMARK  13 active torsions:
REMARK  status: ('A' for Active; 'I' for Inactive)
REMARK    1  A    between atoms: C_1  and  C_2
REMARK    2  A    between atoms: C_1  and  C_8
REMARK    3  A    between atoms: C_1  and  C_14
REMARK    4  A    between atoms: C_2  and  C_3
REMARK    5  A    between atoms: C_3  and  C_4
REMARK    6  A    between atoms: C_4  and  C_5
REMARK    7  A    between atoms: C_5  and  O_6
REMARK    8  A    between atoms: C_8  and  C_9
REMARK    9  A    between atoms: C_9  and  C_10
REMARK   10  A    between atoms: C_10  and  C_11
REMARK   11  A    between atoms: C_11  and  O_12
REMARK   12  A    between atoms: C_14  and  C_15
REMARK   13  A    between atoms: C_15  and  O_16
REMARK                            x       y       z     vdW  Elec       q    Type
REMARK                         _______ _______ _______ _____ _____    ______ ____
ROOT
ATOM      1  C   UNL     1      34.485 -18.529 -22.124  0.00  0.00    +0.002 C 
ENDROOT
BRANCH   1   2
ATOM      2  C   UNL     1      35.433 -17.567 -21.363  0.00  0.00    +0.000 C 
BRANCH   2   3
ATOM      3  C   UNL     1      34.744 -16.311 -20.815  0.00  0.00    +0.003 C 
BRANCH   3   4
ATOM      4  C   UNL     1      33.498 -15.910 -21.615  0.00  0.00    +0.032 C 
BRANCH   4   5
ATOM      5  C   UNL     1      32.767 -14.686 -21.074  0.00  0.00    +0.137 C 
BRANCH   5   6
ATOM      6  O   UNL     1      31.968 -14.106 -22.094  0.00  0.00    -0.382 OA
ATOM      7  H   UNL     1      31.043 -14.079 -21.803  0.00  0.00    +0.210 HD
ENDBRANCH   5   6
ENDBRANCH   4   5
ENDBRANCH   3   4
ENDBRANCH   2   3
ENDBRANCH   1   2
BRANCH   1   8
ATOM      8  C   UNL     1      35.077 -18.915 -23.501  0.00  0.00    +0.000 C 
BRANCH   8   9
ATOM      9  C   UNL     1      34.385 -18.325 -24.737  0.00  0.00    +0.003 C 
BRANCH   9  10
ATOM     10  C   UNL     1      34.906 -16.941 -25.123  0.00  0.00    +0.032 C 
BRANCH  10  11
ATOM     11  C   UNL     1      33.778 -15.921 -25.200  0.00  0.00    +0.137 C 
BRANCH  11  12
ATOM     12  O   UNL     1      33.443 -15.708 -26.565  0.00  0.00    -0.382 OA
ATOM     13  H   UNL     1      32.606 -15.221 -26.620  0.00  0.00    +0.210 HD
ENDBRANCH  11  12
ENDBRANCH  10  11
ENDBRANCH   9  10
ENDBRANCH   8   9
ENDBRANCH   1   8
BRANCH   1  14
ATOM     14  C   UNL     1      34.178 -19.785 -21.278  0.00  0.00    +0.032 C 
BRANCH  14  15
ATOM     15  C   UNL     1      32.782 -19.810 -20.662  0.00  0.00    +0.137 C 
BRANCH  15  16
ATOM     16  O   UNL     1      32.754 -20.793 -19.635  0.00  0.00    -0.382 OA
ATOM     17  H   UNL     1      32.743 -20.356 -18.768  0.00  0.00    +0.210 HD
ENDBRANCH  15  16
ENDBRANCH  14  15
ENDBRANCH   1  14
TORSDOF 13
ENDMDL
MODEL 7
REMARK VINA RESULT:      -5.8      1.729      2.905
REMARK  Name = 25058136
REMARK  13 active torsions:
REMARK  status: ('A' for Active; 'I' for Inactive)
REMARK    1  A    between atoms: C_1  and  C_2
REMARK    2  A    between atoms: C_1  and  C_8
REMARK    3  A    between atoms: C_1  and  C_14
REMARK    4  A    between atoms: C_2  and  C_3
REMARK    5  A    between atoms: C_3  and  C_4
REMARK    6  A    between atoms: C_4  and  C_5
REMARK    7  A    between atoms: C_5  and  O_6
REMARK    8  A    between atoms: C_8  and  C_9
REMARK    9  A    between atoms: C_9  and  C_10
REMARK   10  A    between atoms: C_10  and  C_11
REMARK   11  A    between atoms: C_11  and  O_12
REMARK   12  A    between atoms: C_14  and  C_15
REMARK   13  A    between atoms: C_15  and  O_16
REMARK                            x       y       z     vdW  Elec       q    Type
REMARK                         _______ _______ _______ _____ _____    ______ ____
ROOT
ATOM      1  C   UNL     1      35.315 -18.659 -21.985  0.00  0.00    +0.002 C 
ENDROOT
BRANCH   1   2
ATOM      2  C   UNL     1      35.202 -17.387 -21.106  0.00  0.00    +0.000 C 
BRANCH   2   3
ATOM      3  C   UNL     1      33.999 -16.496 -21.444  0.00  0.00    +0.003 C 
BRANCH   3   4
ATOM      4  C   UNL     1      34.376 -15.021 -21.630  0.00  0.00    +0.032 C 
BRANCH   4   5
ATOM      5  C   UNL     1      34.363 -14.545 -23.079  0.00  0.00    +0.137 C 
BRANCH   5   6
ATOM      6  O   UNL     1      33.562 -15.411 -23.869  0.00  0.00    -0.382 OA
ATOM      7  H   UNL     1      32.810 -14.917 -24.229  0.00  0.00    +0.210 HD
ENDBRANCH   5   6
ENDBRANCH   4   5
ENDBRANCH   3   4
ENDBRANCH   2   3
ENDBRANCH   1   2
BRANCH   1   8
ATOM      8  C   UNL     1      34.041 -19.530 -21.865  0.00  0.00    +0.000 C 
BRANCH   8   9
ATOM      9  C   UNL     1      33.738 -20.119 -20.481  0.00  0.00    +0.003 C 
BRANCH   9  10
ATOM     10  C   UNL     1      34.864 -20.994 -19.932  0.00  0.00    +0.032 C 
BRANCH  10  11
ATOM     11  C   UNL     1      34.318 -22.186 -19.158  0.00  0.00    +0.137 C 
BRANCH  11  12
ATOM     12  O   UNL     1      32.932 -22.322 -19.439  0.00  0.00    -0.382 OA
ATOM     13  H   UNL     1      32.421 -22.167 -18.630  0.00  0.00    +0.210 HD
ENDBRANCH  11  12
ENDBRANCH  10  11
ENDBRANCH   9  10
ENDBRANCH   8   9
ENDBRANCH   1   8
BRANCH   1  14
ATOM     14  C   UNL     1      35.601 -18.289 -23.458  0.00  0.00    +0.032 C 
BRANCH  14  15
ATOM     15  C   UNL     1      34.526 -18.736 -24.444  0.00  0.00    +0.137 C 
BRANCH  15  16
ATOM     16  O   UNL     1      34.460 -17.791 -25.505  0.00  0.00    -0.382 OA
ATOM     17  H   UNL     1      33.734 -17.169 -25.339  0.00  0.00    +0.210 HD
ENDBRANCH  15  16
ENDBRANCH  14  15
ENDBRANCH   1  14
TORSDOF 13
ENDMDL
MODEL 8
REMARK VINA RESULT:      -5.8      1.928      5.964
REMARK  Name = 25058136
REMARK  13 active torsions:
REMARK  status: ('A' for Active; 'I' for Inactive)
REMARK    1  A    between atoms: C_1  and  C_2
REMARK    2  A    between atoms: C_1  and  C_8
REMARK    3  A    between atoms: C_1  and  C_14
REMARK    4  A    between atoms: C_2  and  C_3
REMARK    5  A    between atoms: C_3  and  C_4
REMARK    6  A    between atoms: C_4  and  C_5
REMARK    7  A    between atoms: C_5  and  O_6
REMARK    8  A    between atoms: C_8  and  C_9
REMARK    9  A    between atoms: C_9  and  C_10
REMARK   10  A    between atoms: C_10  and  C_11
REMARK   11  A    between atoms: C_11  and  O_12
REMARK   12  A    between atoms: C_14  and  C_15
REMARK   13  A    between atoms: C_15  and  O_16
REMARK                            x       y       z     vdW  Elec       q    Type
REMARK                         _______ _______ _______ _____ _____    ______ ____
ROOT
ATOM      1  C   UNL     1      34.480 -17.053 -22.320  0.00  0.00    +0.002 C 
ENDROOT
BRANCH   1   2
ATOM      2  C   UNL     1      35.120 -18.455 -22.485  0.00  0.00    +0.000 C 
BRANCH   2   3
ATOM      3  C   UNL     1      35.172 -19.277 -21.191  0.00  0.00    +0.003 C 
BRANCH   3   4
ATOM      4  C   UNL     1      33.862 -20.018 -20.896  0.00  0.00    +0.032 C 
BRANCH   4   5
ATOM      5  C   UNL     1      33.969 -21.080 -19.807  0.00  0.00    +0.137 C 
BRANCH   5   6
ATOM      6  O   UNL     1      32.732 -21.765 -19.671  0.00  0.00    -0.382 OA
ATOM      7  H   UNL     1      32.895 -22.665 -19.349  0.00  0.00    +0.210 HD
ENDBRANCH   5   6
ENDBRANCH   4   5
ENDBRANCH   3   4
ENDBRANCH   2   3
ENDBRANCH   1   2
BRANCH   1   8
ATOM      8  C   UNL     1      34.768 -16.475 -20.913  0.00  0.00    +0.000 C 
BRANCH   8   9
ATOM      9  C   UNL     1      34.396 -15.005 -20.683  0.00  0.00    +0.003 C 
BRANCH   9  10
ATOM     10  C   UNL     1      32.891 -14.768 -20.574  0.00  0.00    +0.032 C 
BRANCH  10  11
ATOM     11  C   UNL     1      32.457 -13.549 -21.378  0.00  0.00    +0.137 C 
BRANCH  11  12
ATOM     12  O   UNL     1      31.974 -13.981 -22.643  0.00  0.00    -0.382 OA
ATOM     13  H   UNL     1      31.032 -13.761 -22.721  0.00  0.00    +0.210 HD
ENDBRANCH  11  12
ENDBRANCH  10  11
ENDBRANCH   9  10
ENDBRANCH   8   9
ENDBRANCH   1   8
BRANCH   1  14
ATOM     14  C   UNL     1      34.964 -16.090 -23.428  0.00  0.00    +0.032 C 
BRANCH  14  15
ATOM     15  C   UNL     1      34.088 -16.068 -24.677  0.00  0.00    +0.137 C 
BRANCH  15  16
ATOM     16  O   UNL     1      34.773 -16.742 -25.726  0.00  0.00    -0.382 OA
ATOM     17  H   UNL     1      35.706 -16.475 -25.726  0.00  0.00    +0.210 HD
ENDBRANCH  15  16
ENDBRANCH  14  15
ENDBRANCH   1  14
TORSDOF 13
ENDMDL
MODEL 9
REMARK VINA RESULT:      -5.7      2.132      3.520
REMARK  Name = 25058136
REMARK  13 active torsions:
REMARK  status: ('A' for Active; 'I' for Inactive)
REMARK    1  A    between atoms: C_1  and  C_2
REMARK    2  A    between atoms: C_1  and  C_8
REMARK    3  A    between atoms: C_1  and  C_14
REMARK    4  A    between atoms: C_2  and  C_3
REMARK    5  A    between atoms: C_3  and  C_4
REMARK    6  A    between atoms: C_4  and  C_5
REMARK    7  A    between atoms: C_5  and  O_6
REMARK    8  A    between atoms: C_8  and  C_9
REMARK    9  A    between atoms: C_9  and  C_10
REMARK   10  A    between atoms: C_10  and  C_11
REMARK   11  A    between atoms: C_11  and  O_12
REMARK   12  A    between atoms: C_14  and  C_15
REMARK   13  A    between atoms: C_15  and  O_16
REMARK                            x       y       z     vdW  Elec       q    Type
REMARK                         _______ _______ _______ _____ _____    ______ ____
ROOT
ATOM      1  C   UNL     1      34.322 -20.322 -20.161  0.00  0.00    +0.002 C 
ENDROOT
BRANCH   1   2
ATOM      2  C   UNL     1      33.800 -19.635 -21.448  0.00  0.00    +0.000 C 
BRANCH   2   3
ATOM      3  C   UNL     1      34.894 -18.964 -22.289  0.00  0.00    +0.003 C 
BRANCH   3   4
ATOM      4  C   UNL     1      35.351 -17.616 -21.716  0.00  0.00    +0.032 C 
BRANCH   4   5
ATOM      5  C   UNL     1      34.833 -16.400 -22.476  0.00  0.00    +0.137 C 
BRANCH   5   6
ATOM      6  O   UNL     1      35.680 -16.119 -23.580  0.00  0.00    -0.382 OA
ATOM      7  H   UNL     1      35.754 -16.907 -24.140  0.00  0.00    +0.210 HD
ENDBRANCH   5   6
ENDBRANCH   4   5
ENDBRANCH   3   4
ENDBRANCH   2   3
ENDBRANCH   1   2
BRANCH   1   8
ATOM      8  C   UNL     1      33.237 -21.236 -19.542  0.00  0.00    +0.000 C 
BRANCH   8   9
ATOM      9  C   UNL     1      33.718 -22.555 -18.923  0.00  0.00    +0.003 C 
BRANCH   9  10
ATOM     10  C   UNL     1      33.014 -22.906 -17.613  0.00  0.00    +0.032 C 
BRANCH  10  11
ATOM     11  C   UNL     1      34.002 -23.391 -16.561  0.00  0.00    +0.137 C 
BRANCH  11  12
ATOM     12  O   UNL     1      35.311 -22.989 -16.939  0.00  0.00    -0.382 OA
ATOM     13  H   UNL     1      35.280 -22.562 -17.809  0.00  0.00    +0.210 HD
ENDBRANCH  11  12
ENDBRANCH  10  11
ENDBRANCH   9  10
ENDBRANCH   8   9
ENDBRANCH   1   8
BRANCH   1  14
ATOM     14  C   UNL     1      35.621 -21.111 -20.443  0.00  0.00    +0.032 C 
BRANCH  14  15
ATOM     15  C   UNL     1      36.852 -20.592 -19.706  0.00  0.00    +0.137 C 
BRANCH  15  16
ATOM     16  O   UNL     1      36.732 -20.924 -18.328  0.00  0.00    -0.382 OA
ATOM     17  H   UNL     1      35.910 -21.419 -18.185  0.00  0.00    +0.210 HD
ENDBRANCH  15  16
ENDBRANCH  14  15
ENDBRANCH   1  14
TORSDOF 13
ENDMDL
