MODEL 1
REMARK VINA RESULT:      -6.1      0.000      0.000
REMARK  Name = 441480
REMARK  4 active torsions:
REMARK  status: ('A' for Active; 'I' for Inactive)
REMARK    1  A    between atoms: C_2  and  O_8
REMARK    2  A    between atoms: C_3  and  O_10
REMARK    3  A    between atoms: C_4  and  O_12
REMARK    4  A    between atoms: C_6  and  O_14
REMARK                            x       y       z     vdW  Elec       q    Type
REMARK                         _______ _______ _______ _____ _____    ______ ____
ROOT
ATOM      1  O   UNL     1      37.528 -22.640 -13.337  0.00  0.00    -0.329 OA
ATOM      2  C   UNL     1      35.873 -24.730 -12.227  0.00  0.00    +0.171 C 
ATOM      3  C   UNL     1      35.876 -24.398 -13.721  0.00  0.00    +0.167 C 
ATOM      4  C   UNL     1      36.342 -23.529 -11.410  0.00  0.00    +0.196 C 
ATOM      5  C   UNL     1      37.211 -23.775 -14.150  0.00  0.00    +0.147 C 
ATOM      6  C   UNL     1      37.653 -22.955 -11.948  0.00  0.00    +0.262 C 
ATOM      7  C   UNL     1      37.180 -23.293 -15.597  0.00  0.00    +0.035 C 
ENDROOT
BRANCH   2   8
ATOM      8  O   UNL     1      34.538 -25.065 -11.844  0.00  0.00    -0.379 OA
ATOM      9  H   UNL     1      34.525 -25.326 -10.909  0.00  0.00    +0.211 HD
ENDBRANCH   2   8
BRANCH   3  10
ATOM     10  O   UNL     1      35.639 -25.605 -14.441  0.00  0.00    -0.379 OA
ATOM     11  H   UNL     1      34.683 -25.765 -14.501  0.00  0.00    +0.211 HD
ENDBRANCH   3  10
BRANCH   4  12
ATOM     12  O   UNL     1      36.494 -23.914 -10.049  0.00  0.00    -0.378 OA
ATOM     13  H   UNL     1      36.968 -23.219  -9.566  0.00  0.00    +0.211 HD
ENDBRANCH   4  12
BRANCH   6  14
ATOM     14  O   UNL     1      38.771 -23.802 -11.685  0.00  0.00    -0.358 OA
ATOM     15  H   UNL     1      39.566 -23.424 -12.091  0.00  0.00    +0.213 HD
ENDBRANCH   6  14
TORSDOF 4
ENDMDL
MODEL 2
REMARK VINA RESULT:      -6.0      1.797      3.569
REMARK  Name = 441480
REMARK  4 active torsions:
REMARK  status: ('A' for Active; 'I' for Inactive)
REMARK    1  A    between atoms: C_2  and  O_8
REMARK    2  A    between atoms: C_3  and  O_10
REMARK    3  A    between atoms: C_4  and  O_12
REMARK    4  A    between atoms: C_6  and  O_14
REMARK                            x       y       z     vdW  Elec       q    Type
REMARK                         _______ _______ _______ _____ _____    ______ ____
ROOT
ATOM      1  O   UNL     1      38.070 -23.517 -13.836  0.00  0.00    -0.329 OA
ATOM      2  C   UNL     1      36.777 -26.092 -13.656  0.00  0.00    +0.171 C 
ATOM      3  C   UNL     1      36.916 -25.164 -12.448  0.00  0.00    +0.167 C 
ATOM      4  C   UNL     1      37.845 -25.778 -14.701  0.00  0.00    +0.196 C 
ATOM      5  C   UNL     1      37.015 -23.695 -12.885  0.00  0.00    +0.147 C 
ATOM      6  C   UNL     1      37.893 -24.285 -15.029  0.00  0.00    +0.262 C 
ATOM      7  C   UNL     1      37.312 -22.767 -11.710  0.00  0.00    +0.035 C 
ENDROOT
BRANCH   2   8
ATOM      8  O   UNL     1      36.944 -27.440 -13.208  0.00  0.00    -0.379 OA
ATOM      9  H   UNL     1      37.878 -27.598 -13.000  0.00  0.00    +0.211 HD
ENDBRANCH   2   8
BRANCH   3  10
ATOM     10  O   UNL     1      35.778 -25.355 -11.611  0.00  0.00    -0.379 OA
ATOM     11  H   UNL     1      34.975 -25.370 -12.155  0.00  0.00    +0.211 HD
ENDBRANCH   3  10
BRANCH   4  12
ATOM     12  O   UNL     1      37.590 -26.534 -15.879  0.00  0.00    -0.378 OA
ATOM     13  H   UNL     1      37.408 -25.932 -16.617  0.00  0.00    +0.211 HD
ENDBRANCH   4  12
BRANCH   6  14
ATOM     14  O   UNL     1      36.763 -23.854 -15.786  0.00  0.00    -0.358 OA
ATOM     15  H   UNL     1      36.360 -23.084 -15.355  0.00  0.00    +0.213 HD
ENDBRANCH   6  14
TORSDOF 4
ENDMDL
MODEL 3
REMARK VINA RESULT:      -6.0      2.020      2.730
REMARK  Name = 441480
REMARK  4 active torsions:
REMARK  status: ('A' for Active; 'I' for Inactive)
REMARK    1  A    between atoms: C_2  and  O_8
REMARK    2  A    between atoms: C_3  and  O_10
REMARK    3  A    between atoms: C_4  and  O_12
REMARK    4  A    between atoms: C_6  and  O_14
REMARK                            x       y       z     vdW  Elec       q    Type
REMARK                         _______ _______ _______ _____ _____    ______ ____
ROOT
ATOM      1  O   UNL     1      38.909 -24.299 -12.914  0.00  0.00    -0.329 OA
ATOM      2  C   UNL     1      36.519 -24.750 -14.470  0.00  0.00    +0.171 C 
ATOM      3  C   UNL     1      37.898 -25.217 -14.940  0.00  0.00    +0.167 C 
ATOM      4  C   UNL     1      36.652 -23.596 -13.479  0.00  0.00    +0.196 C 
ATOM      5  C   UNL     1      38.838 -25.459 -13.751  0.00  0.00    +0.147 C 
ATOM      6  C   UNL     1      37.646 -23.920 -12.363  0.00  0.00    +0.262 C 
ATOM      7  C   UNL     1      40.262 -25.772 -14.201  0.00  0.00    +0.035 C 
ENDROOT
BRANCH   2   8
ATOM      8  O   UNL     1      35.783 -24.304 -15.611  0.00  0.00    -0.379 OA
ATOM      9  H   UNL     1      34.928 -23.944 -15.324  0.00  0.00    +0.211 HD
ENDBRANCH   2   8
BRANCH   3  10
ATOM     10  O   UNL     1      37.726 -26.419 -15.688  0.00  0.00    -0.379 OA
ATOM     11  H   UNL     1      36.880 -26.386 -16.163  0.00  0.00    +0.211 HD
ENDBRANCH   3  10
BRANCH   4  12
ATOM     12  O   UNL     1      35.374 -23.296 -12.930  0.00  0.00    -0.378 OA
ATOM     13  H   UNL     1      35.306 -22.342 -12.772  0.00  0.00    +0.211 HD
ENDBRANCH   4  12
BRANCH   6  14
ATOM     14  O   UNL     1      37.143 -24.892 -11.447  0.00  0.00    -0.358 OA
ATOM     15  H   UNL     1      36.583 -24.455 -10.787  0.00  0.00    +0.213 HD
ENDBRANCH   6  14
TORSDOF 4
ENDMDL
MODEL 4
REMARK VINA RESULT:      -5.9      2.178      2.783
REMARK  Name = 441480
REMARK  4 active torsions:
REMARK  status: ('A' for Active; 'I' for Inactive)
REMARK    1  A    between atoms: C_2  and  O_8
REMARK    2  A    between atoms: C_3  and  O_10
REMARK    3  A    between atoms: C_4  and  O_12
REMARK    4  A    between atoms: C_6  and  O_14
REMARK                            x       y       z     vdW  Elec       q    Type
REMARK                         _______ _______ _______ _____ _____    ______ ____
ROOT
ATOM      1  O   UNL     1      38.212 -24.084 -15.067  0.00  0.00    -0.329 OA
ATOM      2  C   UNL     1      35.750 -24.797 -13.738  0.00  0.00    +0.171 C 
ATOM      3  C   UNL     1      35.986 -23.404 -14.324  0.00  0.00    +0.167 C 
ATOM      4  C   UNL     1      37.079 -25.484 -13.434  0.00  0.00    +0.196 C 
ATOM      5  C   UNL     1      36.996 -23.451 -15.479  0.00  0.00    +0.147 C 
ATOM      6  C   UNL     1      38.028 -25.434 -14.632  0.00  0.00    +0.262 C 
ATOM      7  C   UNL     1      37.365 -22.056 -15.975  0.00  0.00    +0.035 C 
ENDROOT
BRANCH   2   8
ATOM      8  O   UNL     1      35.010 -24.654 -12.524  0.00  0.00    -0.379 OA
ATOM      9  H   UNL     1      34.118 -25.016 -12.644  0.00  0.00    +0.211 HD
ENDBRANCH   2   8
BRANCH   3  10
ATOM     10  O   UNL     1      34.733 -22.900 -14.782  0.00  0.00    -0.379 OA
ATOM     11  H   UNL     1      34.077 -23.614 -14.780  0.00  0.00    +0.211 HD
ENDBRANCH   3  10
BRANCH   4  12
ATOM     12  O   UNL     1      36.836 -26.834 -13.054  0.00  0.00    -0.378 OA
ATOM     13  H   UNL     1      35.993 -27.130 -13.430  0.00  0.00    +0.211 HD
ENDBRANCH   4  12
BRANCH   6  14
ATOM     14  O   UNL     1      37.616 -26.292 -15.695  0.00  0.00    -0.358 OA
ATOM     15  H   UNL     1      38.162 -27.094 -15.693  0.00  0.00    +0.213 HD
ENDBRANCH   6  14
TORSDOF 4
ENDMDL
MODEL 5
REMARK VINA RESULT:      -5.8      2.272      3.509
REMARK  Name = 441480
REMARK  4 active torsions:
REMARK  status: ('A' for Active; 'I' for Inactive)
REMARK    1  A    between atoms: C_2  and  O_8
REMARK    2  A    between atoms: C_3  and  O_10
REMARK    3  A    between atoms: C_4  and  O_12
REMARK    4  A    between atoms: C_6  and  O_14
REMARK                            x       y       z     vdW  Elec       q    Type
REMARK                         _______ _______ _______ _____ _____    ______ ____
ROOT
ATOM      1  O   UNL     1      36.919 -25.114 -12.475  0.00  0.00    -0.329 OA
ATOM      2  C   UNL     1      37.161 -25.988 -15.216  0.00  0.00    +0.171 C 
ATOM      3  C   UNL     1      35.856 -25.423 -14.653  0.00  0.00    +0.167 C 
ATOM      4  C   UNL     1      38.034 -26.545 -14.094  0.00  0.00    +0.196 C 
ATOM      5  C   UNL     1      36.124 -24.472 -13.478  0.00  0.00    +0.147 C 
ATOM      6  C   UNL     1      38.198 -25.540 -12.953  0.00  0.00    +0.262 C 
ATOM      7  C   UNL     1      34.833 -24.020 -12.801  0.00  0.00    +0.035 C 
ENDROOT
BRANCH   2   8
ATOM      8  O   UNL     1      36.838 -27.043 -16.125  0.00  0.00    -0.379 OA
ATOM      9  H   UNL     1      36.443 -27.782 -15.635  0.00  0.00    +0.211 HD
ENDBRANCH   2   8
BRANCH   3  10
ATOM     10  O   UNL     1      35.184 -24.733 -15.704  0.00  0.00    -0.379 OA
ATOM     11  H   UNL     1      35.378 -25.165 -16.551  0.00  0.00    +0.211 HD
ENDBRANCH   3  10
BRANCH   4  12
ATOM     12  O   UNL     1      39.305 -26.907 -14.620  0.00  0.00    -0.378 OA
ATOM     13  H   UNL     1      39.400 -26.545 -15.515  0.00  0.00    +0.211 HD
ENDBRANCH   4  12
BRANCH   6  14
ATOM     14  O   UNL     1      39.035 -24.440 -13.308  0.00  0.00    -0.358 OA
ATOM     15  H   UNL     1      38.494 -23.641 -13.409  0.00  0.00    +0.213 HD
ENDBRANCH   6  14
TORSDOF 4
ENDMDL
MODEL 6
REMARK VINA RESULT:      -5.8      1.321      2.964
REMARK  Name = 441480
REMARK  4 active torsions:
REMARK  status: ('A' for Active; 'I' for Inactive)
REMARK    1  A    between atoms: C_2  and  O_8
REMARK    2  A    between atoms: C_3  and  O_10
REMARK    3  A    between atoms: C_4  and  O_12
REMARK    4  A    between atoms: C_6  and  O_14
REMARK                            x       y       z     vdW  Elec       q    Type
REMARK                         _______ _______ _______ _____ _____    ______ ____
ROOT
ATOM      1  O   UNL     1      36.732 -24.899 -14.275  0.00  0.00    -0.329 OA
ATOM      2  C   UNL     1      36.574 -23.608 -11.697  0.00  0.00    +0.171 C 
ATOM      3  C   UNL     1      37.863 -24.256 -12.207  0.00  0.00    +0.167 C 
ATOM      4  C   UNL     1      35.357 -24.216 -12.389  0.00  0.00    +0.196 C 
ATOM      5  C   UNL     1      37.905 -24.276 -13.741  0.00  0.00    +0.147 C 
ATOM      6  C   UNL     1      35.521 -24.232 -13.910  0.00  0.00    +0.262 C 
ATOM      7  C   UNL     1      39.105 -25.056 -14.271  0.00  0.00    +0.035 C 
ENDROOT
BRANCH   2   8
ATOM      8  O   UNL     1      36.479 -23.845 -10.290  0.00  0.00    -0.379 OA
ATOM      9  H   UNL     1      35.870 -24.584 -10.127  0.00  0.00    +0.211 HD
ENDBRANCH   2   8
BRANCH   3  10
ATOM     10  O   UNL     1      38.965 -23.512 -11.691  0.00  0.00    -0.379 OA
ATOM     11  H   UNL     1      38.716 -23.112 -10.843  0.00  0.00    +0.211 HD
ENDBRANCH   3  10
BRANCH   4  12
ATOM     12  O   UNL     1      34.193 -23.484 -12.026  0.00  0.00    -0.378 OA
ATOM     13  H   UNL     1      33.471 -23.698 -12.638  0.00  0.00    +0.211 HD
ENDBRANCH   4  12
BRANCH   6  14
ATOM     14  O   UNL     1      35.428 -22.929 -14.485  0.00  0.00    -0.358 OA
ATOM     15  H   UNL     1      35.191 -23.005 -15.422  0.00  0.00    +0.213 HD
ENDBRANCH   6  14
TORSDOF 4
ENDMDL
MODEL 7
REMARK VINA RESULT:      -5.8      1.867      3.274
REMARK  Name = 441480
REMARK  4 active torsions:
REMARK  status: ('A' for Active; 'I' for Inactive)
REMARK    1  A    between atoms: C_2  and  O_8
REMARK    2  A    between atoms: C_3  and  O_10
REMARK    3  A    between atoms: C_4  and  O_12
REMARK    4  A    between atoms: C_6  and  O_14
REMARK                            x       y       z     vdW  Elec       q    Type
REMARK                         _______ _______ _______ _____ _____    ______ ____
ROOT
ATOM      1  O   UNL     1      36.562 -24.762 -15.331  0.00  0.00    -0.329 OA
ATOM      2  C   UNL     1      37.155 -25.379 -12.573  0.00  0.00    +0.171 C 
ATOM      3  C   UNL     1      35.894 -24.618 -12.985  0.00  0.00    +0.167 C 
ATOM      4  C   UNL     1      38.241 -25.236 -13.637  0.00  0.00    +0.196 C 
ATOM      5  C   UNL     1      35.477 -24.968 -14.420  0.00  0.00    +0.147 C 
ATOM      6  C   UNL     1      37.710 -25.561 -15.034  0.00  0.00    +0.262 C 
ATOM      7  C   UNL     1      34.316 -24.105 -14.907  0.00  0.00    +0.035 C 
ENDROOT
BRANCH   2   8
ATOM      8  O   UNL     1      37.631 -24.829 -11.343  0.00  0.00    -0.379 OA
ATOM      9  H   UNL     1      37.116 -25.192 -10.605  0.00  0.00    +0.211 HD
ENDBRANCH   2   8
BRANCH   3  10
ATOM     10  O   UNL     1      34.854 -24.957 -12.071  0.00  0.00    -0.379 OA
ATOM     11  H   UNL     1      34.010 -24.607 -12.395  0.00  0.00    +0.211 HD
ENDBRANCH   3  10
BRANCH   4  12
ATOM     12  O   UNL     1      39.334 -26.088 -13.314  0.00  0.00    -0.378 OA
ATOM     13  H   UNL     1      39.443 -26.753 -14.011  0.00  0.00    +0.211 HD
ENDBRANCH   4  12
BRANCH   6  14
ATOM     14  O   UNL     1      37.459 -26.954 -15.214  0.00  0.00    -0.358 OA
ATOM     15  H   UNL     1      36.733 -27.073 -15.846  0.00  0.00    +0.213 HD
ENDBRANCH   6  14
TORSDOF 4
ENDMDL
MODEL 8
REMARK VINA RESULT:      -5.7      1.861      2.607
REMARK  Name = 441480
REMARK  4 active torsions:
REMARK  status: ('A' for Active; 'I' for Inactive)
REMARK    1  A    between atoms: C_2  and  O_8
REMARK    2  A    between atoms: C_3  and  O_10
REMARK    3  A    between atoms: C_4  and  O_12
REMARK    4  A    between atoms: C_6  and  O_14
REMARK                            x       y       z     vdW  Elec       q    Type
REMARK                         _______ _______ _______ _____ _____    ______ ____
ROOT
ATOM      1  O   UNL     1      35.913 -23.172 -14.146  0.00  0.00    -0.329 OA
ATOM      2  C   UNL     1      37.907 -25.200 -13.648  0.00  0.00    +0.171 C 
ATOM      3  C   UNL     1      37.854 -24.413 -14.959  0.00  0.00    +0.167 C 
ATOM      4  C   UNL     1      36.540 -25.206 -12.969  0.00  0.00    +0.196 C 
ATOM      5  C   UNL     1      37.201 -23.039 -14.755  0.00  0.00    +0.147 C 
ATOM      6  C   UNL     1      35.957 -23.796 -12.860  0.00  0.00    +0.262 C 
ATOM      7  C   UNL     1      36.995 -22.301 -16.075  0.00  0.00    +0.035 C 
ENDROOT
BRANCH   2   8
ATOM      8  O   UNL     1      38.286 -26.546 -13.947  0.00  0.00    -0.379 OA
ATOM      9  H   UNL     1      38.210 -27.089 -13.147  0.00  0.00    +0.211 HD
ENDBRANCH   2   8
BRANCH   3  10
ATOM     10  O   UNL     1      39.189 -24.261 -15.436  0.00  0.00    -0.379 OA
ATOM     11  H   UNL     1      39.171 -23.900 -16.337  0.00  0.00    +0.211 HD
ENDBRANCH   3  10
BRANCH   4  12
ATOM     12  O   UNL     1      36.656 -25.793 -11.679  0.00  0.00    -0.378 OA
ATOM     13  H   UNL     1      37.412 -25.404 -11.212  0.00  0.00    +0.211 HD
ENDBRANCH   4  12
BRANCH   6  14
ATOM     14  O   UNL     1      36.638 -22.995 -11.895  0.00  0.00    -0.358 OA
ATOM     15  H   UNL     1      36.151 -22.168 -11.759  0.00  0.00    +0.213 HD
ENDBRANCH   6  14
TORSDOF 4
ENDMDL
MODEL 9
REMARK VINA RESULT:      -5.7      2.429      3.861
REMARK  Name = 441480
REMARK  4 active torsions:
REMARK  status: ('A' for Active; 'I' for Inactive)
REMARK    1  A    between atoms: C_2  and  O_8
REMARK    2  A    between atoms: C_3  and  O_10
REMARK    3  A    between atoms: C_4  and  O_12
REMARK    4  A    between atoms: C_6  and  O_14
REMARK                            x       y       z     vdW  Elec       q    Type
REMARK                         _______ _______ _______ _____ _____    ______ ____
ROOT
ATOM      1  O   UNL     1      38.224 -26.482 -13.689  0.00  0.00    -0.329 OA
ATOM      2  C   UNL     1      36.877 -24.219 -14.873  0.00  0.00    +0.171 C 
ATOM      3  C   UNL     1      38.401 -24.298 -14.771  0.00  0.00    +0.167 C 
ATOM      4  C   UNL     1      36.221 -25.109 -13.821  0.00  0.00    +0.196 C 
ATOM      5  C   UNL     1      38.880 -25.756 -14.735  0.00  0.00    +0.147 C 
ATOM      6  C   UNL     1      36.802 -26.524 -13.836  0.00  0.00    +0.262 C 
ATOM      7  C   UNL     1      40.380 -25.860 -14.475  0.00  0.00    +0.035 C 
ENDROOT
BRANCH   2   8
ATOM      8  O   UNL     1      36.482 -22.863 -14.649  0.00  0.00    -0.379 OA
ATOM      9  H   UNL     1      36.435 -22.396 -15.499  0.00  0.00    +0.211 HD
ENDBRANCH   2   8
BRANCH   3  10
ATOM     10  O   UNL     1      38.955 -23.624 -15.899  0.00  0.00    -0.379 OA
ATOM     11  H   UNL     1      38.427 -22.833 -16.094  0.00  0.00    +0.211 HD
ENDBRANCH   3  10
BRANCH   4  12
ATOM     12  O   UNL     1      34.817 -25.150 -14.046  0.00  0.00    -0.378 OA
ATOM     13  H   UNL     1      34.404 -24.361 -13.662  0.00  0.00    +0.211 HD
ENDBRANCH   4  12
BRANCH   6  14
ATOM     14  O   UNL     1      36.400 -27.269 -14.984  0.00  0.00    -0.358 OA
ATOM     15  H   UNL     1      36.017 -28.115 -14.703  0.00  0.00    +0.213 HD
ENDBRANCH   6  14
TORSDOF 4
ENDMDL
