MODEL 1
REMARK VINA RESULT:      -8.9      0.000      0.000
REMARK  Name = 443955
REMARK  4 active torsions:
REMARK  status: ('A' for Active; 'I' for Inactive)
REMARK    1  A    between atoms: C_3  and  C_26
REMARK    2  A    between atoms: C_13  and  C_22
REMARK    3  A    between atoms: C_22  and  O_23
REMARK    4  A    between atoms: O_23  and  C_24
REMARK                            x       y       z     vdW  Elec       q    Type
REMARK                         _______ _______ _______ _____ _____    ______ ____
ROOT
ATOM      1  N   UNL     1      31.246  -9.634 -20.845  0.00  0.00    +0.392 N 
ATOM      2  N   UNL     1      33.045 -11.880 -23.220  0.00  0.00    -0.307 N 
ATOM      3  C   UNL     1      32.364  -9.063 -23.096  0.00  0.00    +0.008 C 
ATOM      4  C   UNL     1      31.583 -10.089 -22.217  0.00  0.00    -0.014 C 
ATOM      5  C   UNL     1      33.500  -8.395 -22.287  0.00  0.00    +0.000 C 
ATOM      6  C   UNL     1      32.275 -11.416 -22.182  0.00  0.00    +0.018 A 
ATOM      7  C   UNL     1      32.384  -9.049 -20.128  0.00  0.00    -0.077 C 
ATOM      8  C   UNL     1      33.027  -7.913 -20.919  0.00  0.00    -0.023 C 
ATOM      9  C   UNL     1      30.613 -10.729 -20.063  0.00  0.00    -0.072 C 
ATOM     10  C   UNL     1      32.193 -12.333 -21.172  0.00  0.00    -0.013 A 
ATOM     11  C   UNL     1      32.994  -9.755 -24.312  0.00  0.00    -0.004 C 
ATOM     12  C   UNL     1      31.460 -12.024 -19.913  0.00  0.00    +0.005 C 
ATOM     13  C   UNL     1      33.303 -11.070 -24.336  0.00  0.00    +0.136 C 
ATOM     14  C   UNL     1      32.928 -13.465 -21.596  0.00  0.00    +0.013 A 
ATOM     15  C   UNL     1      33.461 -13.171 -22.869  0.00  0.00    +0.063 A 
ATOM     16  C   UNL     1      33.206 -14.712 -20.997  0.00  0.00    +0.001 C 
ATOM     17  C   UNL     1      34.294 -14.099 -23.520  0.00  0.00    +0.017 C 
ATOM     18  C   UNL     1      34.011 -15.637 -21.665  0.00  0.00    +0.000 C 
ATOM     19  C   UNL     1      34.551 -15.329 -22.907  0.00  0.00    +0.001 C 
ATOM     20  H   UNL     1      30.568  -8.878 -20.951  0.00  0.00    -0.079 HD
ENDROOT
BRANCH  13  22
ATOM     21  O   UNL     1      35.030 -11.221 -25.952  0.00  0.00    -0.243 OA
ATOM     22  C   UNL     1      33.900 -11.517 -25.599  0.00  0.00    +0.357 C 
BRANCH  22  23
ATOM     23  O   UNL     1      32.997 -12.284 -26.259  0.00  0.00    -0.444 OA
BRANCH  23  24
ATOM     24  C   UNL     1      33.554 -13.309 -27.087  0.00  0.00    +0.209 C 
ATOM     25  C   UNL     1      32.998 -14.650 -26.655  0.00  0.00    +0.051 C 
ENDBRANCH  23  24
ENDBRANCH  22  23
ENDBRANCH  13  22
BRANCH   3  26
ATOM     26  C   UNL     1      31.379  -7.988 -23.602  0.00  0.00    +0.002 C 
ATOM     27  C   UNL     1      32.124  -6.819 -24.203  0.00  0.00    +0.000 C 
ENDBRANCH   3  26
TORSDOF 4
ENDMDL
MODEL 2
REMARK VINA RESULT:      -7.6     11.544     14.858
REMARK  Name = 443955
REMARK  4 active torsions:
REMARK  status: ('A' for Active; 'I' for Inactive)
REMARK    1  A    between atoms: C_3  and  C_26
REMARK    2  A    between atoms: C_13  and  C_22
REMARK    3  A    between atoms: C_22  and  O_23
REMARK    4  A    between atoms: O_23  and  C_24
REMARK                            x       y       z     vdW  Elec       q    Type
REMARK                         _______ _______ _______ _____ _____    ______ ____
ROOT
ATOM      1  N   UNL     1      36.267 -23.870 -13.048  0.00  0.00    +0.392 N 
ATOM      2  N   UNL     1      33.530 -23.510 -15.559  0.00  0.00    -0.307 N 
ATOM      3  C   UNL     1      36.429 -23.427 -15.582  0.00  0.00    +0.008 C 
ATOM      4  C   UNL     1      35.658 -23.227 -14.240  0.00  0.00    -0.014 C 
ATOM      5  C   UNL     1      36.887 -24.895 -15.743  0.00  0.00    +0.000 C 
ATOM      6  C   UNL     1      34.219 -23.612 -14.375  0.00  0.00    +0.018 A 
ATOM      7  C   UNL     1      36.637 -25.273 -13.267  0.00  0.00    -0.077 C 
ATOM      8  C   UNL     1      37.551 -25.433 -14.479  0.00  0.00    -0.023 C 
ATOM      9  C   UNL     1      35.391 -23.717 -11.857  0.00  0.00    -0.072 C 
ATOM     10  C   UNL     1      33.411 -24.051 -13.363  0.00  0.00    -0.013 A 
ATOM     11  C   UNL     1      35.537 -23.076 -16.780  0.00  0.00    -0.004 C 
ATOM     12  C   UNL     1      33.955 -24.297 -11.999  0.00  0.00    +0.005 C 
ATOM     13  C   UNL     1      34.188 -23.129 -16.738  0.00  0.00    +0.136 C 
ATOM     14  C   UNL     1      32.121 -24.212 -13.920  0.00  0.00    +0.013 A 
ATOM     15  C   UNL     1      32.206 -23.880 -15.289  0.00  0.00    +0.063 A 
ATOM     16  C   UNL     1      30.885 -24.633 -13.383  0.00  0.00    +0.001 C 
ATOM     17  C   UNL     1      31.078 -24.005 -16.120  0.00  0.00    +0.017 C 
ATOM     18  C   UNL     1      29.765 -24.727 -14.211  0.00  0.00    +0.000 C 
ATOM     19  C   UNL     1      29.865 -24.421 -15.562  0.00  0.00    +0.001 C 
ATOM     20  H   UNL     1      37.143 -23.377 -12.871  0.00  0.00    -0.079 HD
ENDROOT
BRANCH  13  22
ATOM     21  O   UNL     1      32.350 -22.493 -18.093  0.00  0.00    -0.243 OA
ATOM     22  C   UNL     1      33.538 -22.757 -17.999  0.00  0.00    +0.357 C 
BRANCH  22  23
ATOM     23  O   UNL     1      34.469 -22.763 -18.985  0.00  0.00    -0.444 OA
BRANCH  23  24
ATOM     24  C   UNL     1      34.525 -21.575 -19.781  0.00  0.00    +0.209 C 
ATOM     25  C   UNL     1      35.971 -21.154 -19.938  0.00  0.00    +0.051 C 
ENDBRANCH  23  24
ENDBRANCH  22  23
ENDBRANCH  13  22
BRANCH   3  26
ATOM     26  C   UNL     1      37.656 -22.491 -15.597  0.00  0.00    +0.002 C 
ATOM     27  C   UNL     1      37.459 -21.364 -16.584  0.00  0.00    +0.000 C 
ENDBRANCH   3  26
TORSDOF 4
ENDMDL
MODEL 3
REMARK VINA RESULT:      -7.6     10.573     13.993
REMARK  Name = 443955
REMARK  4 active torsions:
REMARK  status: ('A' for Active; 'I' for Inactive)
REMARK    1  A    between atoms: C_3  and  C_26
REMARK    2  A    between atoms: C_13  and  C_22
REMARK    3  A    between atoms: C_22  and  O_23
REMARK    4  A    between atoms: O_23  and  C_24
REMARK                            x       y       z     vdW  Elec       q    Type
REMARK                         _______ _______ _______ _____ _____    ______ ____
ROOT
ATOM      1  N   UNL     1      32.092 -24.461 -13.548  0.00  0.00    +0.392 N 
ATOM      2  N   UNL     1      34.007 -23.204 -16.494  0.00  0.00    -0.307 N 
ATOM      3  C   UNL     1      31.222 -23.693 -15.849  0.00  0.00    +0.008 C 
ATOM      4  C   UNL     1      32.344 -24.378 -15.009  0.00  0.00    -0.014 C 
ATOM      5  C   UNL     1      30.721 -22.404 -15.157  0.00  0.00    +0.000 C 
ATOM      6  C   UNL     1      33.681 -23.767 -15.284  0.00  0.00    +0.018 A 
ATOM      7  C   UNL     1      31.660 -23.189 -12.957  0.00  0.00    -0.077 C 
ATOM      8  C   UNL     1      30.438 -22.620 -13.673  0.00  0.00    -0.023 C 
ATOM      9  C   UNL     1      33.272 -25.019 -12.837  0.00  0.00    -0.072 C 
ATOM     10  C   UNL     1      34.739 -23.736 -14.418  0.00  0.00    -0.013 A 
ATOM     11  C   UNL     1      31.740 -23.310 -17.241  0.00  0.00    -0.004 C 
ATOM     12  C   UNL     1      34.602 -24.235 -13.022  0.00  0.00    +0.005 C 
ATOM     13  C   UNL     1      33.045 -23.085 -17.508  0.00  0.00    +0.136 C 
ATOM     14  C   UNL     1      35.816 -23.146 -15.120  0.00  0.00    +0.013 A 
ATOM     15  C   UNL     1      35.349 -22.811 -16.409  0.00  0.00    +0.063 A 
ATOM     16  C   UNL     1      37.149 -22.845 -14.764  0.00  0.00    +0.001 C 
ATOM     17  C   UNL     1      36.193 -22.149 -17.319  0.00  0.00    +0.017 C 
ATOM     18  C   UNL     1      37.986 -22.214 -15.685  0.00  0.00    +0.000 C 
ATOM     19  C   UNL     1      37.510 -21.867 -16.942  0.00  0.00    +0.001 C 
ATOM     20  H   UNL     1      31.307 -25.103 -13.427  0.00  0.00    -0.079 HD
ENDROOT
BRANCH  13  22
ATOM     21  O   UNL     1      33.865 -23.473 -19.698  0.00  0.00    -0.243 OA
ATOM     22  C   UNL     1      33.314 -22.727 -18.905  0.00  0.00    +0.357 C 
BRANCH  22  23
ATOM     23  O   UNL     1      32.852 -21.472 -19.128  0.00  0.00    -0.444 OA
BRANCH  23  24
ATOM     24  C   UNL     1      33.676 -20.657 -19.968  0.00  0.00    +0.209 C 
ATOM     25  C   UNL     1      32.789 -19.809 -20.855  0.00  0.00    +0.051 C 
ENDBRANCH  23  24
ENDBRANCH  22  23
ENDBRANCH  13  22
BRANCH   3  26
ATOM     26  C   UNL     1      30.051 -24.684 -16.020  0.00  0.00    +0.002 C 
ATOM     27  C   UNL     1      28.814 -23.972 -16.518  0.00  0.00    +0.000 C 
ENDBRANCH   3  26
TORSDOF 4
ENDMDL
MODEL 4
REMARK VINA RESULT:      -6.8      2.311      4.645
REMARK  Name = 443955
REMARK  4 active torsions:
REMARK  status: ('A' for Active; 'I' for Inactive)
REMARK    1  A    between atoms: C_3  and  C_26
REMARK    2  A    between atoms: C_13  and  C_22
REMARK    3  A    between atoms: C_22  and  O_23
REMARK    4  A    between atoms: O_23  and  C_24
REMARK                            x       y       z     vdW  Elec       q    Type
REMARK                         _______ _______ _______ _____ _____    ______ ____
ROOT
ATOM      1  N   UNL     1      33.662  -6.711 -23.590  0.00  0.00    +0.392 N 
ATOM      2  N   UNL     1      32.710 -10.246 -22.864  0.00  0.00    -0.307 N 
ATOM      3  C   UNL     1      31.940  -7.620 -21.901  0.00  0.00    +0.008 C 
ATOM      4  C   UNL     1      33.294  -7.804 -22.654  0.00  0.00    -0.014 C 
ATOM      5  C   UNL     1      30.834  -7.130 -22.865  0.00  0.00    +0.000 C 
ATOM      6  C   UNL     1      33.364  -9.134 -23.335  0.00  0.00    +0.018 A 
ATOM      7  C   UNL     1      32.574  -6.331 -24.498  0.00  0.00    -0.077 C 
ATOM      8  C   UNL     1      31.302  -5.968 -23.736  0.00  0.00    -0.023 C 
ATOM      9  C   UNL     1      34.903  -7.048 -24.335  0.00  0.00    -0.072 C 
ATOM     10  C   UNL     1      34.105  -9.424 -24.447  0.00  0.00    -0.013 A 
ATOM     11  C   UNL     1      31.475  -8.946 -21.284  0.00  0.00    -0.004 C 
ATOM     12  C   UNL     1      34.853  -8.359 -25.169  0.00  0.00    +0.005 C 
ATOM     13  C   UNL     1      31.849 -10.154 -21.759  0.00  0.00    +0.136 C 
ATOM     14  C   UNL     1      33.941 -10.808 -24.689  0.00  0.00    +0.013 A 
ATOM     15  C   UNL     1      33.065 -11.310 -23.702  0.00  0.00    +0.063 A 
ATOM     16  C   UNL     1      34.447 -11.680 -25.677  0.00  0.00    +0.001 C 
ATOM     17  C   UNL     1      32.669 -12.659 -23.727  0.00  0.00    +0.017 C 
ATOM     18  C   UNL     1      34.069 -13.023 -25.675  0.00  0.00    +0.000 C 
ATOM     19  C   UNL     1      33.188 -13.503 -24.715  0.00  0.00    +0.001 C 
ATOM     20  H   UNL     1      33.842  -5.888 -23.014  0.00  0.00    -0.079 HD
ENDROOT
BRANCH  13  22
ATOM     21  O   UNL     1      30.085 -11.514 -20.948  0.00  0.00    -0.243 OA
ATOM     22  C   UNL     1      31.282 -11.286 -21.019  0.00  0.00    +0.357 C 
BRANCH  22  23
ATOM     23  O   UNL     1      32.297 -11.992 -20.462  0.00  0.00    -0.444 OA
BRANCH  23  24
ATOM     24  C   UNL     1      32.043 -13.388 -20.280  0.00  0.00    +0.209 C 
ATOM     25  C   UNL     1      33.241 -14.175 -20.770  0.00  0.00    +0.051 C 
ENDBRANCH  23  24
ENDBRANCH  22  23
ENDBRANCH  13  22
BRANCH   3  26
ATOM     26  C   UNL     1      32.135  -6.595 -20.764  0.00  0.00    +0.002 C 
ATOM     27  C   UNL     1      32.699  -7.263 -19.531  0.00  0.00    +0.000 C 
ENDBRANCH   3  26
TORSDOF 4
ENDMDL
MODEL 5
REMARK VINA RESULT:      -6.7      1.856      4.528
REMARK  Name = 443955
REMARK  4 active torsions:
REMARK  status: ('A' for Active; 'I' for Inactive)
REMARK    1  A    between atoms: C_3  and  C_26
REMARK    2  A    between atoms: C_13  and  C_22
REMARK    3  A    between atoms: C_22  and  O_23
REMARK    4  A    between atoms: O_23  and  C_24
REMARK                            x       y       z     vdW  Elec       q    Type
REMARK                         _______ _______ _______ _____ _____    ______ ____
ROOT
ATOM      1  N   UNL     1      33.564  -7.520 -22.671  0.00  0.00    +0.392 N 
ATOM      2  N   UNL     1      33.370 -11.073 -23.797  0.00  0.00    -0.307 N 
ATOM      3  C   UNL     1      32.053  -9.422 -21.808  0.00  0.00    +0.008 C 
ATOM      4  C   UNL     1      33.424  -8.974 -22.403  0.00  0.00    -0.014 C 
ATOM      5  C   UNL     1      30.880  -8.736 -22.546  0.00  0.00    +0.000 C 
ATOM      6  C   UNL     1      33.780  -9.775 -23.616  0.00  0.00    +0.018 A 
ATOM      7  C   UNL     1      32.432  -6.952 -23.410  0.00  0.00    -0.077 C 
ATOM      8  C   UNL     1      31.103  -7.235 -22.713  0.00  0.00    -0.023 C 
ATOM      9  C   UNL     1      34.857  -7.227 -23.344  0.00  0.00    -0.072 C 
ATOM     10  C   UNL     1      34.578  -9.356 -24.644  0.00  0.00    -0.013 A 
ATOM     11  C   UNL     1      31.871 -10.940 -21.941  0.00  0.00    -0.004 C 
ATOM     12  C   UNL     1      35.093  -7.959 -24.695  0.00  0.00    +0.005 C 
ATOM     13  C   UNL     1      32.497 -11.680 -22.881  0.00  0.00    +0.136 C 
ATOM     14  C   UNL     1      34.713 -10.456 -25.523  0.00  0.00    +0.013 A 
ATOM     15  C   UNL     1      33.951 -11.519 -24.991  0.00  0.00    +0.063 A 
ATOM     16  C   UNL     1      35.402 -10.637 -26.741  0.00  0.00    +0.001 C 
ATOM     17  C   UNL     1      33.849 -12.735 -25.688  0.00  0.00    +0.017 C 
ATOM     18  C   UNL     1      35.316 -11.859 -27.411  0.00  0.00    +0.000 C 
ATOM     19  C   UNL     1      34.545 -12.890 -26.892  0.00  0.00    +0.001 C 
ATOM     20  H   UNL     1      33.561  -7.059 -21.761  0.00  0.00    -0.079 HD
ENDROOT
BRANCH  13  22
ATOM     21  O   UNL     1      31.957 -13.790 -23.816  0.00  0.00    -0.243 OA
ATOM     22  C   UNL     1      32.172 -13.110 -22.827  0.00  0.00    +0.357 C 
BRANCH  22  23
ATOM     23  O   UNL     1      32.162 -13.502 -21.529  0.00  0.00    -0.444 OA
BRANCH  23  24
ATOM     24  C   UNL     1      32.593 -14.847 -21.294  0.00  0.00    +0.209 C 
ATOM     25  C   UNL     1      34.038 -14.829 -20.840  0.00  0.00    +0.051 C 
ENDBRANCH  23  24
ENDBRANCH  22  23
ENDBRANCH  13  22
BRANCH   3  26
ATOM     26  C   UNL     1      32.015  -9.055 -20.310  0.00  0.00    +0.002 C 
ATOM     27  C   UNL     1      31.603 -10.246 -19.476  0.00  0.00    +0.000 C 
ENDBRANCH   3  26
TORSDOF 4
ENDMDL
MODEL 6
REMARK VINA RESULT:      -6.6     11.842     15.547
REMARK  Name = 443955
REMARK  4 active torsions:
REMARK  status: ('A' for Active; 'I' for Inactive)
REMARK    1  A    between atoms: C_3  and  C_26
REMARK    2  A    between atoms: C_13  and  C_22
REMARK    3  A    between atoms: C_22  and  O_23
REMARK    4  A    between atoms: O_23  and  C_24
REMARK                            x       y       z     vdW  Elec       q    Type
REMARK                         _______ _______ _______ _____ _____    ______ ____
ROOT
ATOM      1  N   UNL     1      37.067 -24.996 -12.481  0.00  0.00    +0.392 N 
ATOM      2  N   UNL     1      35.131 -23.303 -15.185  0.00  0.00    -0.307 N 
ATOM      3  C   UNL     1      37.832 -24.303 -14.843  0.00  0.00    +0.008 C 
ATOM      4  C   UNL     1      36.947 -24.017 -13.590  0.00  0.00    -0.014 C 
ATOM      5  C   UNL     1      37.775 -25.799 -15.228  0.00  0.00    +0.000 C 
ATOM      6  C   UNL     1      35.514 -23.816 -13.970  0.00  0.00    +0.018 A 
ATOM      7  C   UNL     1      36.962 -26.392 -12.921  0.00  0.00    -0.077 C 
ATOM      8  C   UNL     1      37.969 -26.714 -14.022  0.00  0.00    -0.023 C 
ATOM      9  C   UNL     1      36.095 -24.692 -11.397  0.00  0.00    -0.072 C 
ATOM     10  C   UNL     1      34.433 -24.056 -13.167  0.00  0.00    -0.013 A 
ATOM     11  C   UNL     1      37.352 -23.486 -16.049  0.00  0.00    -0.004 C 
ATOM     12  C   UNL     1      34.600 -24.671 -11.821  0.00  0.00    +0.005 C 
ATOM     13  C   UNL     1      36.085 -23.038 -16.180  0.00  0.00    +0.136 C 
ATOM     14  C   UNL     1      33.292 -23.647 -13.896  0.00  0.00    +0.013 A 
ATOM     15  C   UNL     1      33.736 -23.187 -15.154  0.00  0.00    +0.063 A 
ATOM     16  C   UNL     1      31.911 -23.648 -13.603  0.00  0.00    +0.001 C 
ATOM     17  C   UNL     1      32.806 -22.768 -16.123  0.00  0.00    +0.017 C 
ATOM     18  C   UNL     1      31.000 -23.203 -14.563  0.00  0.00    +0.000 C 
ATOM     19  C   UNL     1      31.444 -22.775 -15.807  0.00  0.00    +0.001 C 
ATOM     20  H   UNL     1      38.011 -24.894 -12.107  0.00  0.00    -0.079 HD
ENDROOT
BRANCH  13  22
ATOM     21  O   UNL     1      36.433 -21.250 -17.697  0.00  0.00    -0.243 OA
ATOM     22  C   UNL     1      35.846 -22.282 -17.414  0.00  0.00    +0.357 C 
BRANCH  22  23
ATOM     23  O   UNL     1      34.896 -22.923 -18.138  0.00  0.00    -0.444 OA
BRANCH  23  24
ATOM     24  C   UNL     1      34.683 -22.411 -19.458  0.00  0.00    +0.209 C 
ATOM     25  C   UNL     1      33.455 -21.524 -19.451  0.00  0.00    +0.051 C 
ENDBRANCH  23  24
ENDBRANCH  22  23
ENDBRANCH  13  22
BRANCH   3  26
ATOM     26  C   UNL     1      39.288 -23.899 -14.528  0.00  0.00    +0.002 C 
ATOM     27  C   UNL     1      40.257 -24.930 -15.057  0.00  0.00    +0.000 C 
ENDBRANCH   3  26
TORSDOF 4
ENDMDL
MODEL 7
REMARK VINA RESULT:      -6.4      2.394      6.573
REMARK  Name = 443955
REMARK  4 active torsions:
REMARK  status: ('A' for Active; 'I' for Inactive)
REMARK    1  A    between atoms: C_3  and  C_26
REMARK    2  A    between atoms: C_13  and  C_22
REMARK    3  A    between atoms: C_22  and  O_23
REMARK    4  A    between atoms: O_23  and  C_24
REMARK                            x       y       z     vdW  Elec       q    Type
REMARK                         _______ _______ _______ _____ _____    ______ ____
ROOT
ATOM      1  N   UNL     1      33.807 -16.132 -23.227  0.00  0.00    +0.392 N 
ATOM      2  N   UNL     1      32.777 -12.614 -22.523  0.00  0.00    -0.307 N 
ATOM      3  C   UNL     1      32.719 -15.146 -21.108  0.00  0.00    +0.008 C 
ATOM      4  C   UNL     1      32.869 -15.129 -22.661  0.00  0.00    -0.014 C 
ATOM      5  C   UNL     1      34.098 -15.272 -20.421  0.00  0.00    +0.000 C 
ATOM      6  C   UNL     1      33.192 -13.757 -23.163  0.00  0.00    +0.018 A 
ATOM      7  C   UNL     1      35.107 -16.162 -22.548  0.00  0.00    -0.077 C 
ATOM      8  C   UNL     1      34.954 -16.371 -21.044  0.00  0.00    -0.023 C 
ATOM      9  C   UNL     1      33.962 -15.945 -24.694  0.00  0.00    -0.072 C 
ATOM     10  C   UNL     1      33.872 -13.466 -24.313  0.00  0.00    -0.013 A 
ATOM     11  C   UNL     1      32.059 -13.854 -20.610  0.00  0.00    -0.004 C 
ATOM     12  C   UNL     1      34.471 -14.547 -25.144  0.00  0.00    +0.005 C 
ATOM     13  C   UNL     1      32.108 -12.689 -21.292  0.00  0.00    +0.136 C 
ATOM     14  C   UNL     1      33.870 -12.057 -24.436  0.00  0.00    +0.013 A 
ATOM     15  C   UNL     1      33.192 -11.535 -23.313  0.00  0.00    +0.063 A 
ATOM     16  C   UNL     1      34.405 -11.173 -25.397  0.00  0.00    +0.001 C 
ATOM     17  C   UNL     1      33.085 -10.144 -23.133  0.00  0.00    +0.017 C 
ATOM     18  C   UNL     1      34.268  -9.795 -25.223  0.00  0.00    +0.000 C 
ATOM     19  C   UNL     1      33.621  -9.290 -24.103  0.00  0.00    +0.001 C 
ATOM     20  H   UNL     1      33.385 -17.046 -23.059  0.00  0.00    -0.079 HD
ENDROOT
BRANCH  13  22
ATOM     21  O   UNL     1      30.256 -11.272 -20.863  0.00  0.00    -0.243 OA
ATOM     22  C   UNL     1      31.413 -11.580 -20.627  0.00  0.00    +0.357 C 
BRANCH  22  23
ATOM     23  O   UNL     1      32.265 -11.000 -19.746  0.00  0.00    -0.444 OA
BRANCH  23  24
ATOM     24  C   UNL     1      31.812  -9.767 -19.180  0.00  0.00    +0.209 C 
ATOM     25  C   UNL     1      32.326  -8.618 -20.023  0.00  0.00    +0.051 C 
ENDBRANCH  23  24
ENDBRANCH  22  23
ENDBRANCH  13  22
BRANCH   3  26
ATOM     26  C   UNL     1      31.823 -16.337 -20.707  0.00  0.00    +0.002 C 
ATOM     27  C   UNL     1      32.603 -17.630 -20.740  0.00  0.00    +0.000 C 
ENDBRANCH   3  26
TORSDOF 4
ENDMDL
MODEL 8
REMARK VINA RESULT:      -6.1     12.520     15.912
REMARK  Name = 443955
REMARK  4 active torsions:
REMARK  status: ('A' for Active; 'I' for Inactive)
REMARK    1  A    between atoms: C_3  and  C_26
REMARK    2  A    between atoms: C_13  and  C_22
REMARK    3  A    between atoms: C_22  and  O_23
REMARK    4  A    between atoms: O_23  and  C_24
REMARK                            x       y       z     vdW  Elec       q    Type
REMARK                         _______ _______ _______ _____ _____    ______ ____
ROOT
ATOM      1  N   UNL     1      37.909 -23.963 -13.769  0.00  0.00    +0.392 N 
ATOM      2  N   UNL     1      34.429 -23.841 -15.112  0.00  0.00    -0.307 N 
ATOM      3  C   UNL     1      35.682 -24.463 -12.571  0.00  0.00    +0.008 C 
ATOM      4  C   UNL     1      36.528 -24.497 -13.882  0.00  0.00    -0.014 C 
ATOM      5  C   UNL     1      35.845 -23.109 -11.844  0.00  0.00    +0.000 C 
ATOM      6  C   UNL     1      35.800 -23.853 -15.019  0.00  0.00    +0.018 A 
ATOM      7  C   UNL     1      37.977 -22.658 -13.104  0.00  0.00    -0.077 C 
ATOM      8  C   UNL     1      37.308 -22.687 -11.732  0.00  0.00    -0.023 C 
ATOM      9  C   UNL     1      38.577 -23.934 -15.097  0.00  0.00    -0.072 C 
ATOM     10  C   UNL     1      36.380 -23.258 -16.104  0.00  0.00    -0.013 A 
ATOM     11  C   UNL     1      34.192 -24.657 -12.879  0.00  0.00    -0.004 C 
ATOM     12  C   UNL     1      37.858 -23.099 -16.193  0.00  0.00    +0.005 C 
ATOM     13  C   UNL     1      33.638 -24.353 -14.073  0.00  0.00    +0.136 C 
ATOM     14  C   UNL     1      35.324 -22.866 -16.960  0.00  0.00    +0.013 A 
ATOM     15  C   UNL     1      34.113 -23.226 -16.331  0.00  0.00    +0.063 A 
ATOM     16  C   UNL     1      35.289 -22.214 -18.212  0.00  0.00    +0.001 C 
ATOM     17  C   UNL     1      32.881 -22.905 -16.928  0.00  0.00    +0.017 C 
ATOM     18  C   UNL     1      34.061 -21.925 -18.808  0.00  0.00    +0.000 C 
ATOM     19  C   UNL     1      32.875 -22.262 -18.171  0.00  0.00    +0.001 C 
ATOM     20  H   UNL     1      38.419 -24.609 -13.164  0.00  0.00    -0.079 HD
ENDROOT
BRANCH  13  22
ATOM     21  O   UNL     1      31.722 -25.713 -14.383  0.00  0.00    -0.243 OA
ATOM     22  C   UNL     1      32.196 -24.615 -14.145  0.00  0.00    +0.357 C 
BRANCH  22  23
ATOM     23  O   UNL     1      31.533 -23.457 -13.906  0.00  0.00    -0.444 OA
BRANCH  23  24
ATOM     24  C   UNL     1      30.107 -23.540 -13.988  0.00  0.00    +0.209 C 
ATOM     25  C   UNL     1      29.641 -22.817 -15.234  0.00  0.00    +0.051 C 
ENDBRANCH  23  24
ENDBRANCH  22  23
ENDBRANCH  13  22
BRANCH   3  26
ATOM     26  C   UNL     1      36.143 -25.612 -11.649  0.00  0.00    +0.002 C 
ATOM     27  C   UNL     1      37.239 -26.419 -12.305  0.00  0.00    +0.000 C 
ENDBRANCH   3  26
TORSDOF 4
ENDMDL
MODEL 9
REMARK VINA RESULT:      -6.1      1.788      5.191
REMARK  Name = 443955
REMARK  4 active torsions:
REMARK  status: ('A' for Active; 'I' for Inactive)
REMARK    1  A    between atoms: C_3  and  C_26
REMARK    2  A    between atoms: C_13  and  C_22
REMARK    3  A    between atoms: C_22  and  O_23
REMARK    4  A    between atoms: O_23  and  C_24
REMARK                            x       y       z     vdW  Elec       q    Type
REMARK                         _______ _______ _______ _____ _____    ______ ____
ROOT
ATOM      1  N   UNL     1      33.901 -14.096 -24.847  0.00  0.00    +0.392 N 
ATOM      2  N   UNL     1      33.026 -10.916 -23.101  0.00  0.00    -0.307 N 
ATOM      3  C   UNL     1      33.877 -11.687 -25.764  0.00  0.00    +0.008 C 
ATOM      4  C   UNL     1      34.116 -12.654 -24.564  0.00  0.00    -0.014 C 
ATOM      5  C   UNL     1      32.583 -12.059 -26.524  0.00  0.00    +0.000 C 
ATOM      6  C   UNL     1      33.341 -12.228 -23.357  0.00  0.00    +0.018 A 
ATOM      7  C   UNL     1      32.634 -14.372 -25.533  0.00  0.00    -0.077 C 
ATOM      8  C   UNL     1      32.495 -13.555 -26.815  0.00  0.00    -0.023 C 
ATOM      9  C   UNL     1      34.039 -14.906 -23.609  0.00  0.00    -0.072 C 
ATOM     10  C   UNL     1      32.904 -13.051 -22.356  0.00  0.00    -0.013 A 
ATOM     11  C   UNL     1      33.739 -10.238 -25.279  0.00  0.00    -0.004 C 
ATOM     12  C   UNL     1      33.079 -14.527 -22.446  0.00  0.00    +0.005 C 
ATOM     13  C   UNL     1      33.336  -9.912 -24.031  0.00  0.00    +0.136 C 
ATOM     14  C   UNL     1      32.300 -12.218 -21.386  0.00  0.00    +0.013 A 
ATOM     15  C   UNL     1      32.374 -10.891 -21.862  0.00  0.00    +0.063 A 
ATOM     16  C   UNL     1      31.673 -12.478 -20.148  0.00  0.00    +0.001 C 
ATOM     17  C   UNL     1      31.794  -9.841 -21.126  0.00  0.00    +0.017 C 
ATOM     18  C   UNL     1      31.127 -11.425 -19.413  0.00  0.00    +0.000 C 
ATOM     19  C   UNL     1      31.183 -10.126 -19.901  0.00  0.00    +0.001 C 
ATOM     20  H   UNL     1      34.635 -14.374 -25.500  0.00  0.00    -0.079 HD
ENDROOT
BRANCH  13  22
ATOM     21  O   UNL     1      34.224  -7.805 -23.407  0.00  0.00    -0.243 OA
ATOM     22  C   UNL     1      33.272  -8.468 -23.785  0.00  0.00    +0.357 C 
BRANCH  22  23
ATOM     23  O   UNL     1      32.013  -8.039 -24.048  0.00  0.00    -0.444 OA
BRANCH  23  24
ATOM     24  C   UNL     1      31.787  -6.641 -23.840  0.00  0.00    +0.209 C 
ATOM     25  C   UNL     1      31.013  -6.452 -22.552  0.00  0.00    +0.051 C 
ENDBRANCH  23  24
ENDBRANCH  22  23
ENDBRANCH  13  22
BRANCH   3  26
ATOM     26  C   UNL     1      35.087 -11.768 -26.719  0.00  0.00    +0.002 C 
ATOM     27  C   UNL     1      35.878 -10.481 -26.693  0.00  0.00    +0.000 C 
ENDBRANCH   3  26
TORSDOF 4
ENDMDL
