MODEL 1
REMARK VINA RESULT:      -9.1      0.000      0.000
REMARK  Name = 446220
REMARK  5 active torsions:
REMARK  status: ('A' for Active; 'I' for Inactive)
REMARK    1  A    between atoms: C_4  and  C_12
REMARK    2  A    between atoms: C_8  and  O_15
REMARK    3  A    between atoms: C_12  and  O_13
REMARK    4  A    between atoms: O_15  and  C_17
REMARK    5  A    between atoms: C_17  and  C_18
REMARK                            x       y       z     vdW  Elec       q    Type
REMARK                         _______ _______ _______ _____ _____    ______ ____
ROOT
ATOM      1  N   UNL     1      35.087 -23.497 -13.779  0.00  0.00    +0.389 N 
ATOM      2  C   UNL     1      34.601 -24.679 -14.521  0.00  0.00    -0.044 C 
ATOM      3  C   UNL     1      36.200 -23.017 -14.617  0.00  0.00    -0.055 C 
ATOM      4  C   UNL     1      33.801 -24.163 -15.745  0.00  0.00    +0.120 C 
ATOM      5  C   UNL     1      35.884 -25.399 -14.953  0.00  0.00    -0.022 C 
ATOM      6  C   UNL     1      36.943 -24.294 -15.025  0.00  0.00    -0.023 C 
ATOM      7  C   UNL     1      35.559 -22.309 -15.828  0.00  0.00    +0.023 C 
ATOM      8  C   UNL     1      34.651 -23.243 -16.643  0.00  0.00    +0.176 C 
ATOM      9  C   UNL     1      35.496 -23.811 -12.413  0.00  0.00    -0.100 C 
ATOM     10  H   UNL     1      34.363 -22.791 -13.640  0.00  0.00    -0.080 HD
ENDROOT
BRANCH   4  12
ATOM     11  O   UNL     1      32.516 -22.657 -14.364  0.00  0.00    -0.250 OA
ATOM     12  C   UNL     1      32.547 -23.480 -15.268  0.00  0.00    +0.318 C 
BRANCH  12  13
ATOM     13  O   UNL     1      31.482 -23.923 -15.996  0.00  0.00    -0.444 OA
ATOM     14  C   UNL     1      30.486 -22.939 -16.289  0.00  0.00    +0.256 C 
ENDBRANCH  12  13
ENDBRANCH   4  12
BRANCH   8  15
ATOM     15  O   UNL     1      33.831 -22.498 -17.533  0.00  0.00    -0.449 OA
BRANCH  15  17
ATOM     16  O   UNL     1      33.930 -23.891 -19.362  0.00  0.00    -0.245 OA
ATOM     17  C   UNL     1      33.974 -22.780 -18.857  0.00  0.00    +0.341 C 
BRANCH  17  18
ATOM     18  C   UNL     1      34.198 -21.539 -19.639  0.00  0.00    +0.076 C 
ATOM     19  C   UNL     1      33.105 -20.806 -20.055  0.00  0.00    +0.006 C 
ATOM     20  C   UNL     1      35.492 -21.155 -19.926  0.00  0.00    +0.006 C 
ATOM     21  C   UNL     1      33.315 -19.640 -20.790  0.00  0.00    +0.000 C 
ATOM     22  C   UNL     1      35.702 -19.988 -20.661  0.00  0.00    +0.000 C 
ATOM     23  C   UNL     1      34.613 -19.230 -21.093  0.00  0.00    +0.000 C 
ENDBRANCH  17  18
ENDBRANCH  15  17
ENDBRANCH   8  15
TORSDOF 5
ENDMDL
MODEL 2
REMARK VINA RESULT:      -8.3      3.001      5.481
REMARK  Name = 446220
REMARK  5 active torsions:
REMARK  status: ('A' for Active; 'I' for Inactive)
REMARK    1  A    between atoms: C_4  and  C_12
REMARK    2  A    between atoms: C_8  and  O_15
REMARK    3  A    between atoms: C_12  and  O_13
REMARK    4  A    between atoms: O_15  and  C_17
REMARK    5  A    between atoms: C_17  and  C_18
REMARK                            x       y       z     vdW  Elec       q    Type
REMARK                         _______ _______ _______ _____ _____    ______ ____
ROOT
ATOM      1  N   UNL     1      38.324 -25.014 -15.080  0.00  0.00    +0.389 N 
ATOM      2  C   UNL     1      37.952 -23.905 -14.177  0.00  0.00    -0.044 C 
ATOM      3  C   UNL     1      37.713 -26.187 -14.430  0.00  0.00    -0.055 C 
ATOM      4  C   UNL     1      36.455 -23.588 -14.424  0.00  0.00    +0.120 C 
ATOM      5  C   UNL     1      38.180 -24.478 -12.773  0.00  0.00    -0.022 C 
ATOM      6  C   UNL     1      38.012 -25.992 -12.939  0.00  0.00    -0.023 C 
ATOM      7  C   UNL     1      36.203 -26.113 -14.732  0.00  0.00    +0.023 C 
ATOM      8  C   UNL     1      35.560 -24.822 -14.200  0.00  0.00    +0.176 C 
ATOM      9  C   UNL     1      39.769 -25.147 -15.253  0.00  0.00    -0.100 C 
ATOM     10  H   UNL     1      37.995 -24.875 -16.036  0.00  0.00    -0.080 HD
ENDROOT
BRANCH   4  12
ATOM     11  O   UNL     1      35.322 -23.231 -16.525  0.00  0.00    -0.250 OA
ATOM     12  C   UNL     1      36.288 -23.015 -15.806  0.00  0.00    +0.318 C 
BRANCH  12  13
ATOM     13  O   UNL     1      37.365 -22.237 -16.110  0.00  0.00    -0.444 OA
ATOM     14  C   UNL     1      37.167 -21.302 -17.175  0.00  0.00    +0.256 C 
ENDBRANCH  12  13
ENDBRANCH   4  12
BRANCH   8  15
ATOM     15  O   UNL     1      34.272 -24.629 -14.771  0.00  0.00    -0.449 OA
BRANCH  15  17
ATOM     16  O   UNL     1      33.428 -24.004 -12.723  0.00  0.00    -0.245 OA
ATOM     17  C   UNL     1      33.286 -24.256 -13.909  0.00  0.00    +0.341 C 
BRANCH  17  18
ATOM     18  C   UNL     1      31.976 -24.190 -14.605  0.00  0.00    +0.076 C 
ATOM     19  C   UNL     1      31.778 -23.218 -15.564  0.00  0.00    +0.006 C 
ATOM     20  C   UNL     1      30.997 -25.103 -14.271  0.00  0.00    +0.006 C 
ATOM     21  C   UNL     1      30.548 -23.155 -16.217  0.00  0.00    +0.000 C 
ATOM     22  C   UNL     1      29.766 -25.041 -14.925  0.00  0.00    +0.000 C 
ATOM     23  C   UNL     1      29.542 -24.067 -15.898  0.00  0.00    +0.000 C 
ENDBRANCH  17  18
ENDBRANCH  15  17
ENDBRANCH   8  15
TORSDOF 5
ENDMDL
MODEL 3
REMARK VINA RESULT:      -8.0      3.031      5.469
REMARK  Name = 446220
REMARK  5 active torsions:
REMARK  status: ('A' for Active; 'I' for Inactive)
REMARK    1  A    between atoms: C_4  and  C_12
REMARK    2  A    between atoms: C_8  and  O_15
REMARK    3  A    between atoms: C_12  and  O_13
REMARK    4  A    between atoms: O_15  and  C_17
REMARK    5  A    between atoms: C_17  and  C_18
REMARK                            x       y       z     vdW  Elec       q    Type
REMARK                         _______ _______ _______ _____ _____    ______ ____
ROOT
ATOM      1  N   UNL     1      37.172 -24.945 -13.185  0.00  0.00    +0.389 N 
ATOM      2  C   UNL     1      37.189 -23.512 -13.548  0.00  0.00    -0.044 C 
ATOM      3  C   UNL     1      36.232 -24.986 -12.051  0.00  0.00    -0.055 C 
ATOM      4  C   UNL     1      35.866 -23.208 -14.296  0.00  0.00    +0.120 C 
ATOM      5  C   UNL     1      37.249 -22.789 -12.197  0.00  0.00    -0.022 C 
ATOM      6  C   UNL     1      36.606 -23.763 -11.205  0.00  0.00    -0.023 C 
ATOM      7  C   UNL     1      34.818 -24.863 -12.653  0.00  0.00    +0.023 C 
ATOM      8  C   UNL     1      34.629 -23.560 -13.447  0.00  0.00    +0.176 C 
ATOM      9  C   UNL     1      38.496 -25.462 -12.847  0.00  0.00    -0.100 C 
ATOM     10  H   UNL     1      36.887 -25.546 -13.958  0.00  0.00    -0.080 HD
ENDROOT
BRANCH   4  12
ATOM     11  O   UNL     1      36.010 -25.136 -15.741  0.00  0.00    -0.250 OA
ATOM     12  C   UNL     1      35.864 -23.927 -15.618  0.00  0.00    +0.318 C 
BRANCH  12  13
ATOM     13  O   UNL     1      35.676 -23.028 -16.626  0.00  0.00    -0.444 OA
ATOM     14  C   UNL     1      36.768 -22.134 -16.862  0.00  0.00    +0.256 C 
ENDBRANCH  12  13
ENDBRANCH   4  12
BRANCH   8  15
ATOM     15  O   UNL     1      33.459 -23.627 -14.252  0.00  0.00    -0.449 OA
BRANCH  15  17
ATOM     16  O   UNL     1      32.172 -22.830 -12.518  0.00  0.00    -0.245 OA
ATOM     17  C   UNL     1      32.287 -23.325 -13.628  0.00  0.00    +0.341 C 
BRANCH  17  18
ATOM     18  C   UNL     1      31.128 -23.679 -14.486  0.00  0.00    +0.076 C 
ATOM     19  C   UNL     1      30.368 -24.783 -14.159  0.00  0.00    +0.006 C 
ATOM     20  C   UNL     1      30.845 -22.891 -15.583  0.00  0.00    +0.006 C 
ATOM     21  C   UNL     1      29.280 -25.116 -14.965  0.00  0.00    +0.000 C 
ATOM     22  C   UNL     1      29.756 -23.223 -16.390  0.00  0.00    +0.000 C 
ATOM     23  C   UNL     1      28.974 -24.336 -16.080  0.00  0.00    +0.000 C 
ENDBRANCH  17  18
ENDBRANCH  15  17
ENDBRANCH   8  15
TORSDOF 5
ENDMDL
MODEL 4
REMARK VINA RESULT:      -7.7      2.293      6.126
REMARK  Name = 446220
REMARK  5 active torsions:
REMARK  status: ('A' for Active; 'I' for Inactive)
REMARK    1  A    between atoms: C_4  and  C_12
REMARK    2  A    between atoms: C_8  and  O_15
REMARK    3  A    between atoms: C_12  and  O_13
REMARK    4  A    between atoms: O_15  and  C_17
REMARK    5  A    between atoms: C_17  and  C_18
REMARK                            x       y       z     vdW  Elec       q    Type
REMARK                         _______ _______ _______ _____ _____    ______ ____
ROOT
ATOM      1  N   UNL     1      30.088 -22.997 -15.591  0.00  0.00    +0.389 N 
ATOM      2  C   UNL     1      30.624 -24.282 -16.087  0.00  0.00    -0.044 C 
ATOM      3  C   UNL     1      30.477 -23.005 -14.170  0.00  0.00    -0.055 C 
ATOM      4  C   UNL     1      32.158 -24.119 -16.236  0.00  0.00    +0.120 C 
ATOM      5  C   UNL     1      30.271 -25.282 -14.979  0.00  0.00    -0.022 C 
ATOM      6  C   UNL     1      30.182 -24.436 -13.706  0.00  0.00    -0.023 C 
ATOM      7  C   UNL     1      31.984 -22.682 -14.129  0.00  0.00    +0.023 C 
ATOM      8  C   UNL     1      32.825 -23.703 -14.910  0.00  0.00    +0.176 C 
ATOM      9  C   UNL     1      28.646 -22.868 -15.787  0.00  0.00    -0.100 C 
ATOM     10  H   UNL     1      30.457 -22.192 -16.098  0.00  0.00    -0.080 HD
ENDROOT
BRANCH   4  12
ATOM     11  O   UNL     1      31.748 -22.175 -17.606  0.00  0.00    -0.250 OA
ATOM     12  C   UNL     1      32.450 -23.141 -17.343  0.00  0.00    +0.318 C 
BRANCH  12  13
ATOM     13  O   UNL     1      33.597 -23.507 -17.983  0.00  0.00    -0.444 OA
ATOM     14  C   UNL     1      34.228 -22.476 -18.750  0.00  0.00    +0.256 C 
ENDBRANCH  12  13
ENDBRANCH   4  12
BRANCH   8  15
ATOM     15  O   UNL     1      34.139 -23.208 -15.133  0.00  0.00    -0.449 OA
BRANCH  15  17
ATOM     16  O   UNL     1      35.552 -24.927 -15.722  0.00  0.00    -0.245 OA
ATOM     17  C   UNL     1      35.154 -24.092 -14.925  0.00  0.00    +0.341 C 
BRANCH  17  18
ATOM     18  C   UNL     1      35.738 -23.914 -13.572  0.00  0.00    +0.076 C 
ATOM     19  C   UNL     1      35.104 -24.490 -12.490  0.00  0.00    +0.006 C 
ATOM     20  C   UNL     1      36.898 -23.178 -13.438  0.00  0.00    +0.006 C 
ATOM     21  C   UNL     1      35.652 -24.322 -11.219  0.00  0.00    +0.000 C 
ATOM     22  C   UNL     1      37.448 -23.011 -12.167  0.00  0.00    +0.000 C 
ATOM     23  C   UNL     1      36.824 -23.583 -11.057  0.00  0.00    +0.000 C 
ENDBRANCH  17  18
ENDBRANCH  15  17
ENDBRANCH   8  15
TORSDOF 5
ENDMDL
MODEL 5
REMARK VINA RESULT:      -7.6      2.286      3.092
REMARK  Name = 446220
REMARK  5 active torsions:
REMARK  status: ('A' for Active; 'I' for Inactive)
REMARK    1  A    between atoms: C_4  and  C_12
REMARK    2  A    between atoms: C_8  and  O_15
REMARK    3  A    between atoms: C_12  and  O_13
REMARK    4  A    between atoms: O_15  and  C_17
REMARK    5  A    between atoms: C_17  and  C_18
REMARK                            x       y       z     vdW  Elec       q    Type
REMARK                         _______ _______ _______ _____ _____    ______ ____
ROOT
ATOM      1  N   UNL     1      30.830 -23.353 -13.773  0.00  0.00    +0.389 N 
ATOM      2  C   UNL     1      30.609 -24.505 -14.672  0.00  0.00    -0.044 C 
ATOM      3  C   UNL     1      32.297 -23.217 -13.767  0.00  0.00    -0.055 C 
ATOM      4  C   UNL     1      30.830 -24.009 -16.124  0.00  0.00    +0.120 C 
ATOM      5  C   UNL     1      31.687 -25.513 -14.254  0.00  0.00    -0.022 C 
ATOM      6  C   UNL     1      32.811 -24.657 -13.661  0.00  0.00    -0.023 C 
ATOM      7  C   UNL     1      32.679 -22.563 -15.110  0.00  0.00    +0.023 C 
ATOM      8  C   UNL     1      32.233 -23.402 -16.319  0.00  0.00    +0.176 C 
ATOM      9  C   UNL     1      30.271 -23.557 -12.439  0.00  0.00    -0.100 C 
ATOM     10  H   UNL     1      30.355 -22.507 -14.089  0.00  0.00    -0.080 HD
ENDROOT
BRANCH   4  12
ATOM     11  O   UNL     1      29.924 -22.015 -17.137  0.00  0.00    -0.250 OA
ATOM     12  C   UNL     1      29.740 -23.037 -16.490  0.00  0.00    +0.318 C 
BRANCH  12  13
ATOM     13  O   UNL     1      28.550 -23.477 -15.992  0.00  0.00    -0.444 OA
ATOM     14  C   UNL     1      27.564 -22.464 -15.770  0.00  0.00    +0.256 C 
ENDBRANCH  12  13
ENDBRANCH   4  12
BRANCH   8  15
ATOM     15  O   UNL     1      32.296 -22.635 -17.515  0.00  0.00    -0.449 OA
BRANCH  15  17
ATOM     16  O   UNL     1      33.775 -24.090 -18.510  0.00  0.00    -0.245 OA
ATOM     17  C   UNL     1      33.272 -22.983 -18.397  0.00  0.00    +0.341 C 
BRANCH  17  18
ATOM     18  C   UNL     1      33.665 -21.821 -19.233  0.00  0.00    +0.076 C 
ATOM     19  C   UNL     1      35.005 -21.595 -19.475  0.00  0.00    +0.006 C 
ATOM     20  C   UNL     1      32.678 -21.002 -19.743  0.00  0.00    +0.006 C 
ATOM     21  C   UNL     1      35.374 -20.503 -20.259  0.00  0.00    +0.000 C 
ATOM     22  C   UNL     1      33.047 -19.910 -20.529  0.00  0.00    +0.000 C 
ATOM     23  C   UNL     1      34.396 -19.661 -20.786  0.00  0.00    +0.000 C 
ENDBRANCH  17  18
ENDBRANCH  15  17
ENDBRANCH   8  15
TORSDOF 5
ENDMDL
MODEL 6
REMARK VINA RESULT:      -7.6      6.639      9.543
REMARK  Name = 446220
REMARK  5 active torsions:
REMARK  status: ('A' for Active; 'I' for Inactive)
REMARK    1  A    between atoms: C_4  and  C_12
REMARK    2  A    between atoms: C_8  and  O_15
REMARK    3  A    between atoms: C_12  and  O_13
REMARK    4  A    between atoms: O_15  and  C_17
REMARK    5  A    between atoms: C_17  and  C_18
REMARK                            x       y       z     vdW  Elec       q    Type
REMARK                         _______ _______ _______ _____ _____    ______ ____
ROOT
ATOM      1  N   UNL     1      35.658 -18.368 -21.334  0.00  0.00    +0.389 N 
ATOM      2  C   UNL     1      34.184 -18.265 -21.387  0.00  0.00    -0.044 C 
ATOM      3  C   UNL     1      36.039 -18.347 -22.757  0.00  0.00    -0.055 C 
ATOM      4  C   UNL     1      33.834 -16.795 -21.728  0.00  0.00    +0.120 C 
ATOM      5  C   UNL     1      33.787 -19.215 -22.523  0.00  0.00    -0.022 C 
ATOM      6  C   UNL     1      35.015 -19.262 -23.437  0.00  0.00    -0.023 C 
ATOM      7  C   UNL     1      35.906 -16.883 -23.222  0.00  0.00    +0.023 C 
ATOM      8  C   UNL     1      34.478 -16.341 -23.052  0.00  0.00    +0.176 C 
ATOM      9  C   UNL     1      36.121 -19.565 -20.637  0.00  0.00    -0.100 C 
ATOM     10  H   UNL     1      36.089 -17.614 -20.798  0.00  0.00    -0.080 HD
ENDROOT
BRANCH   4  12
ATOM     11  O   UNL     1      35.276 -16.018 -19.956  0.00  0.00    -0.250 OA
ATOM     12  C   UNL     1      34.228 -15.908 -20.578  0.00  0.00    +0.318 C 
BRANCH  12  13
ATOM     13  O   UNL     1      33.247 -14.988 -20.354  0.00  0.00    -0.444 OA
ATOM     14  C   UNL     1      31.909 -15.490 -20.411  0.00  0.00    +0.256 C 
ENDBRANCH  12  13
ENDBRANCH   4  12
BRANCH   8  15
ATOM     15  O   UNL     1      34.460 -14.924 -23.170  0.00  0.00    -0.449 OA
BRANCH  15  17
ATOM     16  O   UNL     1      33.137 -15.008 -25.051  0.00  0.00    -0.245 OA
ATOM     17  C   UNL     1      33.598 -14.411 -24.091  0.00  0.00    +0.341 C 
BRANCH  17  18
ATOM     18  C   UNL     1      33.274 -12.996 -23.779  0.00  0.00    +0.076 C 
ATOM     19  C   UNL     1      33.906 -11.995 -24.488  0.00  0.00    +0.006 C 
ATOM     20  C   UNL     1      32.351 -12.726 -22.790  0.00  0.00    +0.006 C 
ATOM     21  C   UNL     1      33.602 -10.666 -24.195  0.00  0.00    +0.000 C 
ATOM     22  C   UNL     1      32.046 -11.397 -22.496  0.00  0.00    +0.000 C 
ATOM     23  C   UNL     1      32.673 -10.367 -23.200  0.00  0.00    +0.000 C 
ENDBRANCH  17  18
ENDBRANCH  15  17
ENDBRANCH   8  15
TORSDOF 5
ENDMDL
MODEL 7
REMARK VINA RESULT:      -7.5     11.081     14.990
REMARK  Name = 446220
REMARK  5 active torsions:
REMARK  status: ('A' for Active; 'I' for Inactive)
REMARK    1  A    between atoms: C_4  and  C_12
REMARK    2  A    between atoms: C_8  and  O_15
REMARK    3  A    between atoms: C_12  and  O_13
REMARK    4  A    between atoms: O_15  and  C_17
REMARK    5  A    between atoms: C_17  and  C_18
REMARK                            x       y       z     vdW  Elec       q    Type
REMARK                         _______ _______ _______ _____ _____    ______ ____
ROOT
ATOM      1  N   UNL     1      32.944  -7.055 -23.598  0.00  0.00    +0.389 N 
ATOM      2  C   UNL     1      32.029  -7.987 -24.290  0.00  0.00    -0.044 C 
ATOM      3  C   UNL     1      32.250  -6.801 -22.323  0.00  0.00    -0.055 C 
ATOM      4  C   UNL     1      32.191  -9.377 -23.624  0.00  0.00    +0.120 C 
ATOM      5  C   UNL     1      30.636  -7.400 -24.031  0.00  0.00    -0.022 C 
ATOM      6  C   UNL     1      30.781  -6.620 -22.720  0.00  0.00    -0.023 C 
ATOM      7  C   UNL     1      32.465  -8.056 -21.453  0.00  0.00    +0.023 C 
ATOM      8  C   UNL     1      31.907  -9.329 -22.111  0.00  0.00    +0.176 C 
ATOM      9  C   UNL     1      33.199  -5.836 -24.361  0.00  0.00    -0.100 C 
ATOM     10  H   UNL     1      33.880  -7.441 -23.470  0.00  0.00    -0.080 HD
ENDROOT
BRANCH   4  12
ATOM     11  O   UNL     1      34.604  -9.384 -23.551  0.00  0.00    -0.250 OA
ATOM     12  C   UNL     1      33.565  -9.915 -23.922  0.00  0.00    +0.318 C 
BRANCH  12  13
ATOM     13  O   UNL     1      33.459 -11.061 -24.652  0.00  0.00    -0.444 OA
ATOM     14  C   UNL     1      34.476 -11.258 -25.638  0.00  0.00    +0.256 C 
ENDBRANCH  12  13
ENDBRANCH   4  12
BRANCH   8  15
ATOM     15  O   UNL     1      32.404 -10.491 -21.460  0.00  0.00    -0.449 OA
BRANCH  15  17
ATOM     16  O   UNL     1      30.326 -11.315 -20.912  0.00  0.00    -0.245 OA
ATOM     17  C   UNL     1      31.495 -11.477 -21.222  0.00  0.00    +0.341 C 
BRANCH  17  18
ATOM     18  C   UNL     1      32.115 -12.816 -21.391  0.00  0.00    +0.076 C 
ATOM     19  C   UNL     1      32.365 -13.280 -22.666  0.00  0.00    +0.006 C 
ATOM     20  C   UNL     1      32.424 -13.553 -20.266  0.00  0.00    +0.006 C 
ATOM     21  C   UNL     1      32.946 -14.538 -22.824  0.00  0.00    +0.000 C 
ATOM     22  C   UNL     1      33.007 -14.811 -20.424  0.00  0.00    +0.000 C 
ATOM     23  C   UNL     1      33.268 -15.303 -21.703  0.00  0.00    +0.000 C 
ENDBRANCH  17  18
ENDBRANCH  15  17
ENDBRANCH   8  15
TORSDOF 5
ENDMDL
MODEL 8
REMARK VINA RESULT:      -7.5      1.851      2.707
REMARK  Name = 446220
REMARK  5 active torsions:
REMARK  status: ('A' for Active; 'I' for Inactive)
REMARK    1  A    between atoms: C_4  and  C_12
REMARK    2  A    between atoms: C_8  and  O_15
REMARK    3  A    between atoms: C_12  and  O_13
REMARK    4  A    between atoms: O_15  and  C_17
REMARK    5  A    between atoms: C_17  and  C_18
REMARK                            x       y       z     vdW  Elec       q    Type
REMARK                         _______ _______ _______ _____ _____    ______ ____
ROOT
ATOM      1  N   UNL     1      35.875 -24.012 -11.846  0.00  0.00    +0.389 N 
ATOM      2  C   UNL     1      35.777 -25.173 -12.756  0.00  0.00    -0.044 C 
ATOM      3  C   UNL     1      37.144 -23.383 -12.251  0.00  0.00    -0.055 C 
ATOM      4  C   UNL     1      35.366 -24.635 -14.150  0.00  0.00    +0.120 C 
ATOM      5  C   UNL     1      37.198 -25.750 -12.774  0.00  0.00    -0.022 C 
ATOM      6  C   UNL     1      38.105 -24.560 -12.448  0.00  0.00    -0.023 C 
ATOM      7  C   UNL     1      36.859 -22.641 -13.573  0.00  0.00    +0.023 C 
ATOM      8  C   UNL     1      36.362 -23.585 -14.680  0.00  0.00    +0.176 C 
ATOM      9  C   UNL     1      35.853 -24.392 -10.435  0.00  0.00    -0.100 C 
ATOM     10  H   UNL     1      35.078 -23.381 -11.921  0.00  0.00    -0.080 HD
ENDROOT
BRANCH   4  12
ATOM     11  O   UNL     1      33.401 -23.775 -13.043  0.00  0.00    -0.250 OA
ATOM     12  C   UNL     1      33.963 -24.095 -14.082  0.00  0.00    +0.318 C 
BRANCH  12  13
ATOM     13  O   UNL     1      33.439 -24.025 -15.340  0.00  0.00    -0.444 OA
ATOM     14  C   UNL     1      32.112 -23.497 -15.424  0.00  0.00    +0.256 C 
ENDBRANCH  12  13
ENDBRANCH   4  12
BRANCH   8  15
ATOM     15  O   UNL     1      35.800 -22.845 -15.757  0.00  0.00    -0.449 OA
BRANCH  15  17
ATOM     16  O   UNL     1      37.888 -22.458 -16.644  0.00  0.00    -0.245 OA
ATOM     17  C   UNL     1      36.670 -22.445 -16.725  0.00  0.00    +0.341 C 
BRANCH  17  18
ATOM     18  C   UNL     1      35.938 -21.978 -17.929  0.00  0.00    +0.076 C 
ATOM     19  C   UNL     1      36.601 -21.190 -18.848  0.00  0.00    +0.006 C 
ATOM     20  C   UNL     1      34.619 -22.346 -18.092  0.00  0.00    +0.006 C 
ATOM     21  C   UNL     1      35.913 -20.750 -19.979  0.00  0.00    +0.000 C 
ATOM     22  C   UNL     1      33.931 -21.907 -19.224  0.00  0.00    +0.000 C 
ATOM     23  C   UNL     1      34.579 -21.108 -20.167  0.00  0.00    +0.000 C 
ENDBRANCH  17  18
ENDBRANCH  15  17
ENDBRANCH   8  15
TORSDOF 5
ENDMDL
MODEL 9
REMARK VINA RESULT:      -7.4      9.423     12.462
REMARK  Name = 446220
REMARK  5 active torsions:
REMARK  status: ('A' for Active; 'I' for Inactive)
REMARK    1  A    between atoms: C_4  and  C_12
REMARK    2  A    between atoms: C_8  and  O_15
REMARK    3  A    between atoms: C_12  and  O_13
REMARK    4  A    between atoms: O_15  and  C_17
REMARK    5  A    between atoms: C_17  and  C_18
REMARK                            x       y       z     vdW  Elec       q    Type
REMARK                         _______ _______ _______ _____ _____    ______ ____
ROOT
ATOM      1  N   UNL     1      33.665 -15.723 -22.686  0.00  0.00    +0.389 N 
ATOM      2  C   UNL     1      34.617 -14.592 -22.650  0.00  0.00    -0.044 C 
ATOM      3  C   UNL     1      32.909 -15.557 -21.433  0.00  0.00    -0.055 C 
ATOM      4  C   UNL     1      33.822 -13.307 -22.994  0.00  0.00    +0.120 C 
ATOM      5  C   UNL     1      35.114 -14.573 -21.199  0.00  0.00    -0.022 C 
ATOM      6  C   UNL     1      33.977 -15.205 -20.391  0.00  0.00    -0.023 C 
ATOM      7  C   UNL     1      31.925 -14.393 -21.669  0.00  0.00    +0.023 C 
ATOM      8  C   UNL     1      32.642 -13.082 -22.029  0.00  0.00    +0.176 C 
ATOM      9  C   UNL     1      34.328 -17.021 -22.785  0.00  0.00    -0.100 C 
ATOM     10  H   UNL     1      33.068 -15.712 -23.514  0.00  0.00    -0.080 HD
ENDROOT
BRANCH   4  12
ATOM     11  O   UNL     1      32.741 -14.300 -24.910  0.00  0.00    -0.250 OA
ATOM     12  C   UNL     1      33.371 -13.368 -24.429  0.00  0.00    +0.318 C 
BRANCH  12  13
ATOM     13  O   UNL     1      33.773 -12.241 -25.082  0.00  0.00    -0.444 OA
ATOM     14  C   UNL     1      33.698 -12.298 -26.510  0.00  0.00    +0.256 C 
ENDBRANCH  12  13
ENDBRANCH   4  12
BRANCH   8  15
ATOM     15  O   UNL     1      31.723 -12.135 -22.557  0.00  0.00    -0.449 OA
BRANCH  15  17
ATOM     16  O   UNL     1      30.385 -11.351 -20.857  0.00  0.00    -0.245 OA
ATOM     17  C   UNL     1      31.267 -11.194 -21.685  0.00  0.00    +0.341 C 
BRANCH  17  18
ATOM     18  C   UNL     1      31.994  -9.912 -21.867  0.00  0.00    +0.076 C 
ATOM     19  C   UNL     1      32.534  -9.620 -23.103  0.00  0.00    +0.006 C 
ATOM     20  C   UNL     1      32.108  -9.052 -20.794  0.00  0.00    +0.006 C 
ATOM     21  C   UNL     1      33.217  -8.416 -23.273  0.00  0.00    +0.000 C 
ATOM     22  C   UNL     1      32.791  -7.847 -20.964  0.00  0.00    +0.000 C 
ATOM     23  C   UNL     1      33.345  -7.530 -22.205  0.00  0.00    +0.000 C 
ENDBRANCH  17  18
ENDBRANCH  15  17
ENDBRANCH   8  15
TORSDOF 5
ENDMDL
