MODEL 1
REMARK VINA RESULT:      -9.4      0.000      0.000
REMARK  Name = 3344
REMARK  3 active torsions:
REMARK  status: ('A' for Active; 'I' for Inactive)
REMARK    1  A    between atoms: N_3  and  C_14
REMARK    2  A    between atoms: C_14  and  C_15
REMARK    3  A    between atoms: C_15  and  C_16
REMARK                            x       y       z     vdW  Elec       q    Type
REMARK                         _______ _______ _______ _____ _____    ______ ____
ROOT
ATOM      1  O   UNL     1      37.369 -25.182 -15.166  0.00  0.00    -0.440 OA
ATOM      2  O   UNL     1      38.373 -27.160 -14.597  0.00  0.00    -0.226 OA
ATOM      3  N   UNL     1      34.909 -22.843 -16.306  0.00  0.00    +0.387 N 
ATOM      4  N   UNL     1      37.966 -25.489 -13.032  0.00  0.00    -0.267 N 
ATOM      5  C   UNL     1      36.800 -24.074 -14.427  0.00  0.00    +0.151 C 
ATOM      6  C   UNL     1      37.106 -22.769 -15.166  0.00  0.00    +0.019 C 
ATOM      7  C   UNL     1      35.281 -24.282 -14.328  0.00  0.00    +0.019 C 
ATOM      8  C   UNL     1      36.356 -22.681 -16.500  0.00  0.00    -0.074 C 
ATOM      9  C   UNL     1      34.599 -24.140 -15.692  0.00  0.00    -0.074 C 
ATOM     10  C   UNL     1      37.484 -24.147 -13.069  0.00  0.00    +0.132 C 
ATOM     11  C   UNL     1      37.944 -26.059 -14.284  0.00  0.00    +0.402 C 
ATOM     12  H   UNL     1      34.591 -22.110 -15.672  0.00  0.00    -0.080 HD
ATOM     13  H   UNL     1      38.274 -25.948 -12.217  0.00  0.00    +0.153 HD
ENDROOT
BRANCH   3  14
ATOM     14  C   UNL     1      34.204 -22.698 -17.579  0.00  0.00    -0.073 C 
BRANCH  14  15
ATOM     15  C   UNL     1      35.180 -22.396 -18.716  0.00  0.00    +0.004 C 
BRANCH  15  16
ATOM     16  C   UNL     1      34.672 -21.288 -19.604  0.00  0.00    -0.024 C 
ATOM     17  C   UNL     1      35.579 -20.514 -20.312  0.00  0.00    -0.004 C 
ATOM     18  C   UNL     1      33.307 -21.062 -19.699  0.00  0.00    -0.004 C 
ATOM     19  C   UNL     1      35.109 -19.489 -21.135  0.00  0.00    -0.000 C 
ATOM     20  C   UNL     1      32.838 -20.038 -20.520  0.00  0.00    -0.000 C 
ATOM     21  C   UNL     1      33.739 -19.251 -21.238  0.00  0.00    -0.000 C 
ENDBRANCH  15  16
ENDBRANCH  14  15
ENDBRANCH   3  14
TORSDOF 3
ENDMDL
MODEL 2
REMARK VINA RESULT:      -9.4      1.519      2.463
REMARK  Name = 3344
REMARK  3 active torsions:
REMARK  status: ('A' for Active; 'I' for Inactive)
REMARK    1  A    between atoms: N_3  and  C_14
REMARK    2  A    between atoms: C_14  and  C_15
REMARK    3  A    between atoms: C_15  and  C_16
REMARK                            x       y       z     vdW  Elec       q    Type
REMARK                         _______ _______ _______ _____ _____    ______ ____
ROOT
ATOM      1  O   UNL     1      36.536 -23.496 -13.005  0.00  0.00    -0.440 OA
ATOM      2  O   UNL     1      37.567 -22.702 -11.120  0.00  0.00    -0.226 OA
ATOM      3  N   UNL     1      35.026 -23.589 -16.250  0.00  0.00    +0.387 N 
ATOM      4  N   UNL     1      38.573 -24.275 -12.507  0.00  0.00    -0.267 N 
ATOM      5  C   UNL     1      36.956 -24.279 -14.148  0.00  0.00    +0.151 C 
ATOM      6  C   UNL     1      35.818 -25.215 -14.560  0.00  0.00    +0.019 C 
ATOM      7  C   UNL     1      37.294 -23.320 -15.300  0.00  0.00    +0.019 C 
ATOM      8  C   UNL     1      34.621 -24.443 -15.126  0.00  0.00    -0.074 C 
ATOM      9  C   UNL     1      36.044 -22.615 -15.837  0.00  0.00    -0.074 C 
ATOM     10  C   UNL     1      38.179 -25.036 -13.647  0.00  0.00    +0.132 C 
ATOM     11  C   UNL     1      37.572 -23.419 -12.111  0.00  0.00    +0.402 C 
ATOM     12  H   UNL     1      35.434 -24.186 -16.970  0.00  0.00    -0.080 HD
ATOM     13  H   UNL     1      39.448 -24.352 -12.061  0.00  0.00    +0.153 HD
ENDROOT
BRANCH   3  14
ATOM     14  C   UNL     1      33.863 -22.904 -16.816  0.00  0.00    -0.073 C 
BRANCH  14  15
ATOM     15  C   UNL     1      33.711 -23.221 -18.303  0.00  0.00    +0.004 C 
BRANCH  15  16
ATOM     16  C   UNL     1      34.106 -22.047 -19.164  0.00  0.00    -0.024 C 
ATOM     17  C   UNL     1      33.121 -21.218 -19.679  0.00  0.00    -0.004 C 
ATOM     18  C   UNL     1      35.448 -21.815 -19.425  0.00  0.00    -0.004 C 
ATOM     19  C   UNL     1      33.486 -20.131 -20.474  0.00  0.00    -0.000 C 
ATOM     20  C   UNL     1      35.813 -20.729 -20.219  0.00  0.00    -0.000 C 
ATOM     21  C   UNL     1      34.832 -19.887 -20.745  0.00  0.00    -0.000 C 
ENDBRANCH  15  16
ENDBRANCH  14  15
ENDBRANCH   3  14
TORSDOF 3
ENDMDL
MODEL 3
REMARK VINA RESULT:      -9.1      4.619      8.161
REMARK  Name = 3344
REMARK  3 active torsions:
REMARK  status: ('A' for Active; 'I' for Inactive)
REMARK    1  A    between atoms: N_3  and  C_14
REMARK    2  A    between atoms: C_14  and  C_15
REMARK    3  A    between atoms: C_15  and  C_16
REMARK                            x       y       z     vdW  Elec       q    Type
REMARK                         _______ _______ _______ _____ _____    ______ ____
ROOT
ATOM      1  O   UNL     1      35.217 -17.387 -20.552  0.00  0.00    -0.440 OA
ATOM      2  O   UNL     1      34.400 -15.250 -20.423  0.00  0.00    -0.226 OA
ATOM      3  N   UNL     1      35.426 -20.950 -20.274  0.00  0.00    +0.387 N 
ATOM      4  N   UNL     1      34.904 -16.257 -22.458  0.00  0.00    -0.267 N 
ATOM      5  C   UNL     1      35.418 -18.342 -21.621  0.00  0.00    +0.151 C 
ATOM      6  C   UNL     1      36.704 -19.128 -21.356  0.00  0.00    +0.019 C 
ATOM      7  C   UNL     1      34.214 -19.296 -21.658  0.00  0.00    +0.019 C 
ATOM      8  C   UNL     1      36.571 -20.042 -20.134  0.00  0.00    -0.074 C 
ATOM      9  C   UNL     1      34.171 -20.202 -20.424  0.00  0.00    -0.074 C 
ATOM     10  C   UNL     1      35.511 -17.480 -22.873  0.00  0.00    +0.132 C 
ATOM     11  C   UNL     1      34.794 -16.198 -21.088  0.00  0.00    +0.402 C 
ATOM     12  H   UNL     1      35.564 -21.506 -21.118  0.00  0.00    -0.080 HD
ATOM     13  H   UNL     1      34.603 -15.548 -23.071  0.00  0.00    +0.153 HD
ENDROOT
BRANCH   3  14
ATOM     14  C   UNL     1      35.347 -21.855 -19.127  0.00  0.00    -0.073 C 
BRANCH  14  15
ATOM     15  C   UNL     1      33.977 -22.530 -19.053  0.00  0.00    +0.004 C 
BRANCH  15  16
ATOM     16  C   UNL     1      33.596 -22.858 -17.631  0.00  0.00    -0.024 C 
ATOM     17  C   UNL     1      32.256 -22.978 -17.296  0.00  0.00    -0.004 C 
ATOM     18  C   UNL     1      34.592 -23.036 -16.683  0.00  0.00    -0.004 C 
ATOM     19  C   UNL     1      31.904 -23.283 -15.981  0.00  0.00    -0.000 C 
ATOM     20  C   UNL     1      34.241 -23.341 -15.369  0.00  0.00    -0.000 C 
ATOM     21  C   UNL     1      32.896 -23.464 -15.017  0.00  0.00    -0.000 C 
ENDBRANCH  15  16
ENDBRANCH  14  15
ENDBRANCH   3  14
TORSDOF 3
ENDMDL
MODEL 4
REMARK VINA RESULT:      -9.1      6.448      9.632
REMARK  Name = 3344
REMARK  3 active torsions:
REMARK  status: ('A' for Active; 'I' for Inactive)
REMARK    1  A    between atoms: N_3  and  C_14
REMARK    2  A    between atoms: C_14  and  C_15
REMARK    3  A    between atoms: C_15  and  C_16
REMARK                            x       y       z     vdW  Elec       q    Type
REMARK                         _______ _______ _______ _____ _____    ______ ____
ROOT
ATOM      1  O   UNL     1      33.776 -19.053 -21.702  0.00  0.00    -0.440 OA
ATOM      2  O   UNL     1      32.728 -20.619 -20.400  0.00  0.00    -0.226 OA
ATOM      3  N   UNL     1      34.663 -15.897 -23.142  0.00  0.00    +0.387 N 
ATOM      4  N   UNL     1      35.004 -20.181 -20.210  0.00  0.00    -0.267 N 
ATOM      5  C   UNL     1      35.075 -18.413 -21.685  0.00  0.00    +0.151 C 
ATOM      6  C   UNL     1      35.551 -18.208 -23.125  0.00  0.00    +0.019 C 
ATOM      7  C   UNL     1      34.943 -17.057 -20.974  0.00  0.00    +0.019 C 
ATOM      8  C   UNL     1      34.697 -17.174 -23.866  0.00  0.00    -0.074 C 
ATOM      9  C   UNL     1      34.109 -16.067 -21.793  0.00  0.00    -0.074 C 
ATOM     10  C   UNL     1      35.956 -19.387 -20.915  0.00  0.00    +0.132 C 
ATOM     11  C   UNL     1      33.739 -20.015 -20.726  0.00  0.00    +0.402 C 
ATOM     12  H   UNL     1      35.623 -15.562 -23.048  0.00  0.00    -0.080 HD
ATOM     13  H   UNL     1      35.222 -20.772 -19.453  0.00  0.00    +0.153 HD
ENDROOT
BRANCH   3  14
ATOM     14  C   UNL     1      33.893 -14.905 -23.890  0.00  0.00    -0.073 C 
BRANCH  14  15
ATOM     15  C   UNL     1      32.870 -14.212 -22.990  0.00  0.00    +0.004 C 
BRANCH  15  16
ATOM     16  C   UNL     1      32.903 -12.714 -23.163  0.00  0.00    -0.024 C 
ATOM     17  C   UNL     1      33.776 -12.154 -24.083  0.00  0.00    -0.004 C 
ATOM     18  C   UNL     1      32.058 -11.922 -22.401  0.00  0.00    -0.004 C 
ATOM     19  C   UNL     1      33.806 -10.769 -24.244  0.00  0.00    -0.000 C 
ATOM     20  C   UNL     1      32.087 -10.537 -22.562  0.00  0.00    -0.000 C 
ATOM     21  C   UNL     1      32.962  -9.960 -23.483  0.00  0.00    -0.000 C 
ENDBRANCH  15  16
ENDBRANCH  14  15
ENDBRANCH   3  14
TORSDOF 3
ENDMDL
MODEL 5
REMARK VINA RESULT:      -9.1      6.436      9.668
REMARK  Name = 3344
REMARK  3 active torsions:
REMARK  status: ('A' for Active; 'I' for Inactive)
REMARK    1  A    between atoms: N_3  and  C_14
REMARK    2  A    between atoms: C_14  and  C_15
REMARK    3  A    between atoms: C_15  and  C_16
REMARK                            x       y       z     vdW  Elec       q    Type
REMARK                         _______ _______ _______ _____ _____    ______ ____
ROOT
ATOM      1  O   UNL     1      33.783 -19.061 -21.692  0.00  0.00    -0.440 OA
ATOM      2  O   UNL     1      32.725 -20.628 -20.399  0.00  0.00    -0.226 OA
ATOM      3  N   UNL     1      34.679 -15.903 -23.123  0.00  0.00    +0.387 N 
ATOM      4  N   UNL     1      35.000 -20.190 -20.192  0.00  0.00    -0.267 N 
ATOM      5  C   UNL     1      35.081 -18.420 -21.665  0.00  0.00    +0.151 C 
ATOM      6  C   UNL     1      35.568 -18.214 -23.102  0.00  0.00    +0.019 C 
ATOM      7  C   UNL     1      34.943 -17.065 -20.954  0.00  0.00    +0.019 C 
ATOM      8  C   UNL     1      34.718 -17.180 -23.848  0.00  0.00    -0.074 C 
ATOM      9  C   UNL     1      34.114 -16.074 -21.778  0.00  0.00    -0.074 C 
ATOM     10  C   UNL     1      35.957 -19.394 -20.889  0.00  0.00    +0.132 C 
ATOM     11  C   UNL     1      33.739 -20.023 -20.717  0.00  0.00    +0.402 C 
ATOM     12  H   UNL     1      35.637 -15.568 -23.022  0.00  0.00    -0.080 HD
ATOM     13  H   UNL     1      35.213 -20.781 -19.434  0.00  0.00    +0.153 HD
ENDROOT
BRANCH   3  14
ATOM     14  C   UNL     1      33.913 -14.910 -23.876  0.00  0.00    -0.073 C 
BRANCH  14  15
ATOM     15  C   UNL     1      32.875 -14.227 -22.985  0.00  0.00    +0.004 C 
BRANCH  15  16
ATOM     16  C   UNL     1      32.899 -12.729 -23.155  0.00  0.00    -0.024 C 
ATOM     17  C   UNL     1      32.047 -11.943 -22.393  0.00  0.00    -0.004 C 
ATOM     18  C   UNL     1      33.772 -12.161 -24.070  0.00  0.00    -0.004 C 
ATOM     19  C   UNL     1      32.070 -10.557 -22.550  0.00  0.00    -0.000 C 
ATOM     20  C   UNL     1      33.795 -10.775 -24.227  0.00  0.00    -0.000 C 
ATOM     21  C   UNL     1      32.943  -9.973 -23.467  0.00  0.00    -0.000 C 
ENDBRANCH  15  16
ENDBRANCH  14  15
ENDBRANCH   3  14
TORSDOF 3
ENDMDL
MODEL 6
REMARK VINA RESULT:      -8.9      4.376      8.247
REMARK  Name = 3344
REMARK  3 active torsions:
REMARK  status: ('A' for Active; 'I' for Inactive)
REMARK    1  A    between atoms: N_3  and  C_14
REMARK    2  A    between atoms: C_14  and  C_15
REMARK    3  A    between atoms: C_15  and  C_16
REMARK                            x       y       z     vdW  Elec       q    Type
REMARK                         _______ _______ _______ _____ _____    ______ ____
ROOT
ATOM      1  O   UNL     1      35.305 -17.358 -20.504  0.00  0.00    -0.440 OA
ATOM      2  O   UNL     1      34.512 -15.221 -20.277  0.00  0.00    -0.226 OA
ATOM      3  N   UNL     1      35.496 -20.930 -20.340  0.00  0.00    +0.387 N 
ATOM      4  N   UNL     1      34.921 -16.170 -22.360  0.00  0.00    -0.267 N 
ATOM      5  C   UNL     1      35.453 -18.282 -21.609  0.00  0.00    +0.151 C 
ATOM      6  C   UNL     1      36.743 -19.085 -21.422  0.00  0.00    +0.019 C 
ATOM      7  C   UNL     1      34.241 -19.226 -21.622  0.00  0.00    +0.019 C 
ATOM      8  C   UNL     1      36.654 -20.034 -20.223  0.00  0.00    -0.074 C 
ATOM      9  C   UNL     1      34.243 -20.169 -20.414  0.00  0.00    -0.074 C 
ATOM     10  C   UNL     1      35.500 -17.384 -22.837  0.00  0.00    +0.132 C 
ATOM     11  C   UNL     1      34.869 -16.151 -20.986  0.00  0.00    +0.402 C 
ATOM     12  H   UNL     1      35.594 -21.461 -21.206  0.00  0.00    -0.080 HD
ATOM     13  H   UNL     1      34.600 -15.441 -22.940  0.00  0.00    +0.153 HD
ENDROOT
BRANCH   3  14
ATOM     14  C   UNL     1      35.459 -21.868 -19.218  0.00  0.00    -0.073 C 
BRANCH  14  15
ATOM     15  C   UNL     1      36.592 -21.587 -18.231  0.00  0.00    +0.004 C 
BRANCH  15  16
ATOM     16  C   UNL     1      36.370 -22.293 -16.916  0.00  0.00    -0.024 C 
ATOM     17  C   UNL     1      37.433 -22.450 -16.040  0.00  0.00    -0.004 C 
ATOM     18  C   UNL     1      35.106 -22.771 -16.605  0.00  0.00    -0.004 C 
ATOM     19  C   UNL     1      37.227 -23.102 -14.824  0.00  0.00    -0.000 C 
ATOM     20  C   UNL     1      34.900 -23.422 -15.390  0.00  0.00    -0.000 C 
ATOM     21  C   UNL     1      35.961 -23.588 -14.499  0.00  0.00    -0.000 C 
ENDBRANCH  15  16
ENDBRANCH  14  15
ENDBRANCH   3  14
TORSDOF 3
ENDMDL
MODEL 7
REMARK VINA RESULT:      -8.9      6.753      9.983
REMARK  Name = 3344
REMARK  3 active torsions:
REMARK  status: ('A' for Active; 'I' for Inactive)
REMARK    1  A    between atoms: N_3  and  C_14
REMARK    2  A    between atoms: C_14  and  C_15
REMARK    3  A    between atoms: C_15  and  C_16
REMARK                            x       y       z     vdW  Elec       q    Type
REMARK                         _______ _______ _______ _____ _____    ______ ____
ROOT
ATOM      1  O   UNL     1      33.820 -18.289 -21.698  0.00  0.00    -0.440 OA
ATOM      2  O   UNL     1      32.996 -20.173 -20.690  0.00  0.00    -0.226 OA
ATOM      3  N   UNL     1      34.374 -14.840 -22.482  0.00  0.00    +0.387 N 
ATOM      4  N   UNL     1      35.249 -19.606 -20.589  0.00  0.00    -0.267 N 
ATOM      5  C   UNL     1      35.073 -17.565 -21.645  0.00  0.00    +0.151 C 
ATOM      6  C   UNL     1      35.399 -17.023 -23.039  0.00  0.00    +0.019 C 
ATOM      7  C   UNL     1      34.927 -16.406 -20.648  0.00  0.00    +0.019 C 
ATOM      8  C   UNL     1      34.417 -15.928 -23.467  0.00  0.00    -0.074 C 
ATOM      9  C   UNL     1      33.960 -15.334 -21.164  0.00  0.00    -0.074 C 
ATOM     10  C   UNL     1      36.081 -18.607 -21.177  0.00  0.00    +0.132 C 
ATOM     11  C   UNL     1      33.934 -19.435 -20.955  0.00  0.00    +0.402 C 
ATOM     12  H   UNL     1      35.316 -14.456 -22.394  0.00  0.00    -0.080 HD
ATOM     13  H   UNL     1      35.573 -20.324 -19.998  0.00  0.00    +0.153 HD
ENDROOT
BRANCH   3  14
ATOM     14  C   UNL     1      33.477 -13.776 -22.934  0.00  0.00    -0.073 C 
BRANCH  14  15
ATOM     15  C   UNL     1      32.213 -13.724 -22.077  0.00  0.00    +0.004 C 
BRANCH  15  16
ATOM     16  C   UNL     1      31.997 -12.352 -21.488  0.00  0.00    -0.024 C 
ATOM     17  C   UNL     1      31.816 -12.219 -20.120  0.00  0.00    -0.004 C 
ATOM     18  C   UNL     1      31.985 -11.247 -22.325  0.00  0.00    -0.004 C 
ATOM     19  C   UNL     1      31.618 -10.950 -19.575  0.00  0.00    -0.000 C 
ATOM     20  C   UNL     1      31.787  -9.978 -21.781  0.00  0.00    -0.000 C 
ATOM     21  C   UNL     1      31.603  -9.830 -20.406  0.00  0.00    -0.000 C 
ENDBRANCH  15  16
ENDBRANCH  14  15
ENDBRANCH   3  14
TORSDOF 3
ENDMDL
MODEL 8
REMARK VINA RESULT:      -8.7     12.221     15.439
REMARK  Name = 3344
REMARK  3 active torsions:
REMARK  status: ('A' for Active; 'I' for Inactive)
REMARK    1  A    between atoms: N_3  and  C_14
REMARK    2  A    between atoms: C_14  and  C_15
REMARK    3  A    between atoms: C_15  and  C_16
REMARK                            x       y       z     vdW  Elec       q    Type
REMARK                         _______ _______ _______ _____ _____    ______ ____
ROOT
ATOM      1  O   UNL     1      33.238  -7.710 -21.355  0.00  0.00    -0.440 OA
ATOM      2  O   UNL     1      32.805  -6.864 -19.271  0.00  0.00    -0.226 OA
ATOM      3  N   UNL     1      33.382  -9.980 -24.121  0.00  0.00    +0.387 N 
ATOM      4  N   UNL     1      31.853  -5.961 -21.191  0.00  0.00    -0.267 N 
ATOM      5  C   UNL     1      32.666  -7.528 -22.672  0.00  0.00    +0.151 C 
ATOM      6  C   UNL     1      33.785  -7.571 -23.715  0.00  0.00    +0.019 C 
ATOM      7  C   UNL     1      31.660  -8.661 -22.929  0.00  0.00    +0.019 C 
ATOM      8  C   UNL     1      34.405  -8.967 -23.829  0.00  0.00    -0.074 C 
ATOM      9  C   UNL     1      32.359 -10.018 -23.069  0.00  0.00    -0.074 C 
ATOM     10  C   UNL     1      31.994  -6.164 -22.596  0.00  0.00    +0.132 C 
ATOM     11  C   UNL     1      32.637  -6.841 -20.482  0.00  0.00    +0.402 C 
ATOM     12  H   UNL     1      32.925  -9.723 -24.996  0.00  0.00    -0.080 HD
ATOM     13  H   UNL     1      31.271  -5.280 -20.782  0.00  0.00    +0.153 HD
ENDROOT
BRANCH   3  14
ATOM     14  C   UNL     1      33.997 -11.297 -24.283  0.00  0.00    -0.073 C 
BRANCH  14  15
ATOM     15  C   UNL     1      33.187 -12.373 -23.561  0.00  0.00    +0.004 C 
BRANCH  15  16
ATOM     16  C   UNL     1      33.563 -13.757 -24.028  0.00  0.00    -0.024 C 
ATOM     17  C   UNL     1      33.103 -14.210 -25.255  0.00  0.00    -0.004 C 
ATOM     18  C   UNL     1      34.364 -14.553 -23.224  0.00  0.00    -0.004 C 
ATOM     19  C   UNL     1      33.452 -15.490 -25.688  0.00  0.00    -0.000 C 
ATOM     20  C   UNL     1      34.714 -15.832 -23.655  0.00  0.00    -0.000 C 
ATOM     21  C   UNL     1      34.257 -16.301 -24.887  0.00  0.00    -0.000 C 
ENDBRANCH  15  16
ENDBRANCH  14  15
ENDBRANCH   3  14
TORSDOF 3
ENDMDL
MODEL 9
REMARK VINA RESULT:      -8.7      7.135     11.054
REMARK  Name = 3344
REMARK  3 active torsions:
REMARK  status: ('A' for Active; 'I' for Inactive)
REMARK    1  A    between atoms: N_3  and  C_14
REMARK    2  A    between atoms: C_14  and  C_15
REMARK    3  A    between atoms: C_15  and  C_16
REMARK                            x       y       z     vdW  Elec       q    Type
REMARK                         _______ _______ _______ _____ _____    ______ ____
ROOT
ATOM      1  O   UNL     1      32.750 -14.619 -24.438  0.00  0.00    -0.440 OA
ATOM      2  O   UNL     1      32.430 -14.134 -26.653  0.00  0.00    -0.226 OA
ATOM      3  N   UNL     1      33.830 -16.295 -21.464  0.00  0.00    +0.387 N 
ATOM      4  N   UNL     1      33.629 -12.726 -25.243  0.00  0.00    -0.267 N 
ATOM      5  C   UNL     1      33.592 -14.088 -23.386  0.00  0.00    +0.151 C 
ATOM      6  C   UNL     1      32.820 -14.116 -22.064  0.00  0.00    +0.019 C 
ATOM      7  C   UNL     1      34.851 -14.962 -23.280  0.00  0.00    +0.019 C 
ATOM      8  C   UNL     1      32.571 -15.548 -21.580  0.00  0.00    -0.074 C 
ATOM      9  C   UNL     1      34.527 -16.364 -22.754  0.00  0.00    -0.074 C 
ATOM     10  C   UNL     1      33.907 -12.671 -23.845  0.00  0.00    +0.132 C 
ATOM     11  C   UNL     1      32.898 -13.848 -25.561  0.00  0.00    +0.402 C 
ATOM     12  H   UNL     1      34.432 -15.799 -20.806  0.00  0.00    -0.080 HD
ATOM     13  H   UNL     1      33.921 -12.049 -25.896  0.00  0.00    +0.153 HD
ENDROOT
BRANCH   3  14
ATOM     14  C   UNL     1      33.580 -17.640 -20.945  0.00  0.00    -0.073 C 
BRANCH  14  15
ATOM     15  C   UNL     1      34.650 -18.620 -21.427  0.00  0.00    +0.004 C 
BRANCH  15  16
ATOM     16  C   UNL     1      34.641 -19.893 -20.618  0.00  0.00    -0.024 C 
ATOM     17  C   UNL     1      35.843 -20.506 -20.299  0.00  0.00    -0.004 C 
ATOM     18  C   UNL     1      33.431 -20.428 -20.204  0.00  0.00    -0.004 C 
ATOM     19  C   UNL     1      35.835 -21.683 -19.550  0.00  0.00    -0.000 C 
ATOM     20  C   UNL     1      33.422 -21.604 -19.455  0.00  0.00    -0.000 C 
ATOM     21  C   UNL     1      34.624 -22.232 -19.128  0.00  0.00    -0.000 C 
ENDBRANCH  15  16
ENDBRANCH  14  15
ENDBRANCH   3  14
TORSDOF 3
ENDMDL
