MODEL 1
REMARK VINA RESULT:      -7.7      0.000      0.000
REMARK  Name = 7108
REMARK  0 active torsions:
REMARK  status: ('A' for Active; 'I' for Inactive)
REMARK                            x       y       z     vdW  Elec       q    Type
REMARK                         _______ _______ _______ _____ _____    ______ ____
ROOT
ATOM      1  S   UNL     1      34.435 -14.904 -22.277  0.00  0.00    -0.084 S 
ATOM      2  N   UNL     1      34.089 -16.845 -24.702  0.00  0.00    -0.312 N 
ATOM      3  C   UNL     1      34.499 -17.429 -23.493  0.00  0.00    +0.054 C 
ATOM      4  C   UNL     1      33.816 -15.490 -24.947  0.00  0.00    +0.054 C 
ATOM      5  C   UNL     1      34.691 -16.670 -22.327  0.00  0.00    +0.043 C 
ATOM      6  C   UNL     1      33.932 -14.514 -23.944  0.00  0.00    +0.043 C 
ATOM      7  C   UNL     1      34.724 -18.816 -23.446  0.00  0.00    +0.015 C 
ATOM      8  C   UNL     1      33.413 -15.097 -26.235  0.00  0.00    +0.015 C 
ATOM      9  C   UNL     1      35.101 -17.304 -21.145  0.00  0.00    +0.008 C 
ATOM     10  C   UNL     1      33.645 -13.174 -24.243  0.00  0.00    +0.008 C 
ATOM     11  C   UNL     1      35.131 -19.437 -22.266  0.00  0.00    +0.001 C 
ATOM     12  C   UNL     1      33.131 -13.762 -26.522  0.00  0.00    +0.001 C 
ATOM     13  C   UNL     1      35.319 -18.681 -21.115  0.00  0.00    +0.001 C 
ATOM     14  C   UNL     1      33.247 -12.800 -25.526  0.00  0.00    +0.001 C 
ATOM     15  H   UNL     1      33.982 -17.456 -25.466  0.00  0.00    +0.152 HD
ENDROOT
TORSDOF 0
ENDMDL
MODEL 2
REMARK VINA RESULT:      -7.7      0.003      5.056
REMARK  Name = 7108
REMARK  0 active torsions:
REMARK  status: ('A' for Active; 'I' for Inactive)
REMARK                            x       y       z     vdW  Elec       q    Type
REMARK                         _______ _______ _______ _____ _____    ______ ____
ROOT
ATOM      1  S   UNL     1      34.431 -14.903 -22.276  0.00  0.00    -0.084 S 
ATOM      2  N   UNL     1      34.087 -16.843 -24.702  0.00  0.00    -0.312 N 
ATOM      3  C   UNL     1      33.814 -15.488 -24.947  0.00  0.00    +0.054 C 
ATOM      4  C   UNL     1      34.497 -17.427 -23.493  0.00  0.00    +0.054 C 
ATOM      5  C   UNL     1      33.930 -14.512 -23.944  0.00  0.00    +0.043 C 
ATOM      6  C   UNL     1      34.690 -16.668 -22.327  0.00  0.00    +0.043 C 
ATOM      7  C   UNL     1      33.414 -15.094 -26.236  0.00  0.00    +0.015 C 
ATOM      8  C   UNL     1      34.724 -18.814 -23.447  0.00  0.00    +0.015 C 
ATOM      9  C   UNL     1      33.646 -13.171 -24.243  0.00  0.00    +0.008 C 
ATOM     10  C   UNL     1      35.102 -17.302 -21.146  0.00  0.00    +0.008 C 
ATOM     11  C   UNL     1      33.133 -13.759 -26.523  0.00  0.00    +0.001 C 
ATOM     12  C   UNL     1      35.132 -19.435 -22.268  0.00  0.00    +0.001 C 
ATOM     13  C   UNL     1      33.250 -12.797 -25.527  0.00  0.00    +0.001 C 
ATOM     14  C   UNL     1      35.321 -18.679 -21.117  0.00  0.00    +0.001 C 
ATOM     15  H   UNL     1      33.978 -17.454 -25.466  0.00  0.00    +0.152 HD
ENDROOT
TORSDOF 0
ENDMDL
MODEL 3
REMARK VINA RESULT:      -7.7      1.251      5.511
REMARK  Name = 7108
REMARK  0 active torsions:
REMARK  status: ('A' for Active; 'I' for Inactive)
REMARK                            x       y       z     vdW  Elec       q    Type
REMARK                         _______ _______ _______ _____ _____    ______ ____
ROOT
ATOM      1  S   UNL     1      34.135 -17.351 -25.188  0.00  0.00    -0.084 S 
ATOM      2  N   UNL     1      34.439 -15.493 -22.695  0.00  0.00    -0.312 N 
ATOM      3  C   UNL     1      34.026 -14.873 -23.885  0.00  0.00    +0.054 C 
ATOM      4  C   UNL     1      34.730 -16.851 -22.495  0.00  0.00    +0.054 C 
ATOM      5  C   UNL     1      33.851 -15.593 -25.077  0.00  0.00    +0.043 C 
ATOM      6  C   UNL     1      34.634 -17.793 -23.532  0.00  0.00    +0.043 C 
ATOM      7  C   UNL     1      33.780 -13.489 -23.884  0.00  0.00    +0.015 C 
ATOM      8  C   UNL     1      35.131 -17.284 -21.219  0.00  0.00    +0.015 C 
ATOM      9  C   UNL     1      33.436 -14.924 -26.238  0.00  0.00    +0.008 C 
ATOM     10  C   UNL     1      34.935 -19.139 -23.279  0.00  0.00    +0.008 C 
ATOM     11  C   UNL     1      33.368 -12.833 -25.043  0.00  0.00    +0.001 C 
ATOM     12  C   UNL     1      35.429 -18.624 -20.977  0.00  0.00    +0.001 C 
ATOM     13  C   UNL     1      33.195 -13.550 -26.220  0.00  0.00    +0.001 C 
ATOM     14  C   UNL     1      35.332 -19.552 -22.007  0.00  0.00    +0.001 C 
ATOM     15  H   UNL     1      34.536 -14.907 -21.910  0.00  0.00    +0.152 HD
ENDROOT
TORSDOF 0
ENDMDL
MODEL 4
REMARK VINA RESULT:      -7.7      1.252      2.196
REMARK  Name = 7108
REMARK  0 active torsions:
REMARK  status: ('A' for Active; 'I' for Inactive)
REMARK                            x       y       z     vdW  Elec       q    Type
REMARK                         _______ _______ _______ _____ _____    ______ ____
ROOT
ATOM      1  S   UNL     1      34.133 -17.355 -25.183  0.00  0.00    -0.084 S 
ATOM      2  N   UNL     1      34.427 -15.496 -22.687  0.00  0.00    -0.312 N 
ATOM      3  C   UNL     1      34.720 -16.855 -22.488  0.00  0.00    +0.054 C 
ATOM      4  C   UNL     1      34.017 -14.876 -23.879  0.00  0.00    +0.054 C 
ATOM      5  C   UNL     1      34.628 -17.796 -23.526  0.00  0.00    +0.043 C 
ATOM      6  C   UNL     1      33.847 -15.596 -25.072  0.00  0.00    +0.043 C 
ATOM      7  C   UNL     1      35.119 -17.287 -21.211  0.00  0.00    +0.015 C 
ATOM      8  C   UNL     1      33.770 -13.492 -23.878  0.00  0.00    +0.015 C 
ATOM      9  C   UNL     1      34.934 -19.141 -23.273  0.00  0.00    +0.008 C 
ATOM     10  C   UNL     1      33.437 -14.927 -26.235  0.00  0.00    +0.008 C 
ATOM     11  C   UNL     1      35.420 -18.626 -20.969  0.00  0.00    +0.001 C 
ATOM     12  C   UNL     1      33.363 -12.836 -25.039  0.00  0.00    +0.001 C 
ATOM     13  C   UNL     1      35.328 -19.554 -22.000  0.00  0.00    +0.001 C 
ATOM     14  C   UNL     1      33.196 -13.553 -26.217  0.00  0.00    +0.001 C 
ATOM     15  H   UNL     1      34.518 -14.911 -21.901  0.00  0.00    +0.152 HD
ENDROOT
TORSDOF 0
ENDMDL
MODEL 5
REMARK VINA RESULT:      -7.6      2.200      5.300
REMARK  Name = 7108
REMARK  0 active torsions:
REMARK  status: ('A' for Active; 'I' for Inactive)
REMARK                            x       y       z     vdW  Elec       q    Type
REMARK                         _______ _______ _______ _____ _____    ______ ____
ROOT
ATOM      1  S   UNL     1      33.813 -15.272 -24.161  0.00  0.00    -0.084 S 
ATOM      2  N   UNL     1      33.613 -15.921 -21.111  0.00  0.00    -0.312 N 
ATOM      3  C   UNL     1      33.085 -14.686 -21.519  0.00  0.00    +0.054 C 
ATOM      4  C   UNL     1      34.220 -16.899 -21.916  0.00  0.00    +0.054 C 
ATOM      5  C   UNL     1      33.111 -14.272 -22.860  0.00  0.00    +0.043 C 
ATOM      6  C   UNL     1      34.372 -16.732 -23.302  0.00  0.00    +0.043 C 
ATOM      7  C   UNL     1      32.513 -13.837 -20.556  0.00  0.00    +0.015 C 
ATOM      8  C   UNL     1      34.689 -18.081 -21.317  0.00  0.00    +0.015 C 
ATOM      9  C   UNL     1      32.568 -13.028 -23.214  0.00  0.00    +0.008 C 
ATOM     10  C   UNL     1      34.984 -17.742 -24.059  0.00  0.00    +0.008 C 
ATOM     11  C   UNL     1      31.976 -12.602 -20.917  0.00  0.00    +0.001 C 
ATOM     12  C   UNL     1      35.296 -19.078 -22.079  0.00  0.00    +0.001 C 
ATOM     13  C   UNL     1      32.004 -12.197 -22.246  0.00  0.00    +0.001 C 
ATOM     14  C   UNL     1      35.445 -18.909 -23.450  0.00  0.00    +0.001 C 
ATOM     15  H   UNL     1      33.551 -16.125 -20.150  0.00  0.00    +0.152 HD
ENDROOT
TORSDOF 0
ENDMDL
MODEL 6
REMARK VINA RESULT:      -7.6      2.193      3.154
REMARK  Name = 7108
REMARK  0 active torsions:
REMARK  status: ('A' for Active; 'I' for Inactive)
REMARK                            x       y       z     vdW  Elec       q    Type
REMARK                         _______ _______ _______ _____ _____    ______ ____
ROOT
ATOM      1  S   UNL     1      33.814 -15.274 -24.170  0.00  0.00    -0.084 S 
ATOM      2  N   UNL     1      33.606 -15.913 -21.118  0.00  0.00    -0.312 N 
ATOM      3  C   UNL     1      34.213 -16.894 -21.918  0.00  0.00    +0.054 C 
ATOM      4  C   UNL     1      33.082 -14.678 -21.531  0.00  0.00    +0.054 C 
ATOM      5  C   UNL     1      34.370 -16.732 -23.304  0.00  0.00    +0.043 C 
ATOM      6  C   UNL     1      33.112 -14.268 -22.873  0.00  0.00    +0.043 C 
ATOM      7  C   UNL     1      34.680 -18.074 -21.314  0.00  0.00    +0.015 C 
ATOM      8  C   UNL     1      32.510 -13.824 -20.572  0.00  0.00    +0.015 C 
ATOM      9  C   UNL     1      34.985 -17.743 -24.056  0.00  0.00    +0.008 C 
ATOM     10  C   UNL     1      32.575 -13.022 -23.232  0.00  0.00    +0.008 C 
ATOM     11  C   UNL     1      35.290 -19.074 -22.071  0.00  0.00    +0.001 C 
ATOM     12  C   UNL     1      31.979 -12.588 -20.938  0.00  0.00    +0.001 C 
ATOM     13  C   UNL     1      35.443 -18.909 -23.442  0.00  0.00    +0.001 C 
ATOM     14  C   UNL     1      32.011 -12.187 -22.268  0.00  0.00    +0.001 C 
ATOM     15  H   UNL     1      33.540 -16.115 -20.157  0.00  0.00    +0.152 HD
ENDROOT
TORSDOF 0
ENDMDL
MODEL 7
REMARK VINA RESULT:      -7.6      6.587      8.287
REMARK  Name = 7108
REMARK  0 active torsions:
REMARK  status: ('A' for Active; 'I' for Inactive)
REMARK                            x       y       z     vdW  Elec       q    Type
REMARK                         _______ _______ _______ _____ _____    ______ ____
ROOT
ATOM      1  S   UNL     1      32.071  -7.523 -20.372  0.00  0.00    -0.084 S 
ATOM      2  N   UNL     1      31.268  -9.077 -22.962  0.00  0.00    -0.312 N 
ATOM      3  C   UNL     1      31.464  -9.852 -21.808  0.00  0.00    +0.054 C 
ATOM      4  C   UNL     1      31.391  -7.684 -23.086  0.00  0.00    +0.054 C 
ATOM      5  C   UNL     1      31.827  -9.279 -20.579  0.00  0.00    +0.043 C 
ATOM      6  C   UNL     1      31.745  -6.868 -22.000  0.00  0.00    +0.043 C 
ATOM      7  C   UNL     1      31.292 -11.245 -21.884  0.00  0.00    +0.015 C 
ATOM      8  C   UNL     1      31.151  -7.086 -24.336  0.00  0.00    +0.015 C 
ATOM      9  C   UNL     1      32.009 -10.100 -19.456  0.00  0.00    +0.008 C 
ATOM     10  C   UNL     1      31.852  -5.481 -22.179  0.00  0.00    +0.008 C 
ATOM     11  C   UNL     1      31.475 -12.053 -20.762  0.00  0.00    +0.001 C 
ATOM     12  C   UNL     1      31.261  -5.707 -24.504  0.00  0.00    +0.001 C 
ATOM     13  C   UNL     1      31.834 -11.480 -19.548  0.00  0.00    +0.001 C 
ATOM     14  C   UNL     1      31.612  -4.904 -23.426  0.00  0.00    +0.001 C 
ATOM     15  H   UNL     1      31.017  -9.566 -23.778  0.00  0.00    +0.152 HD
ENDROOT
TORSDOF 0
ENDMDL
MODEL 8
REMARK VINA RESULT:      -7.6      6.590      9.663
REMARK  Name = 7108
REMARK  0 active torsions:
REMARK  status: ('A' for Active; 'I' for Inactive)
REMARK                            x       y       z     vdW  Elec       q    Type
REMARK                         _______ _______ _______ _____ _____    ______ ____
ROOT
ATOM      1  S   UNL     1      32.075  -7.519 -20.388  0.00  0.00    -0.084 S 
ATOM      2  N   UNL     1      31.253  -9.073 -22.972  0.00  0.00    -0.312 N 
ATOM      3  C   UNL     1      31.379  -7.680 -23.098  0.00  0.00    +0.054 C 
ATOM      4  C   UNL     1      31.455  -9.848 -21.819  0.00  0.00    +0.054 C 
ATOM      5  C   UNL     1      31.742  -6.864 -22.015  0.00  0.00    +0.043 C 
ATOM      6  C   UNL     1      31.827  -9.274 -20.592  0.00  0.00    +0.043 C 
ATOM      7  C   UNL     1      31.134  -7.083 -24.347  0.00  0.00    +0.015 C 
ATOM      8  C   UNL     1      31.280 -11.240 -21.893  0.00  0.00    +0.015 C 
ATOM      9  C   UNL     1      31.854  -5.478 -22.196  0.00  0.00    +0.008 C 
ATOM     10  C   UNL     1      32.018 -10.095 -19.471  0.00  0.00    +0.008 C 
ATOM     11  C   UNL     1      31.248  -5.704 -24.517  0.00  0.00    +0.001 C 
ATOM     12  C   UNL     1      31.471 -12.048 -20.773  0.00  0.00    +0.001 C 
ATOM     13  C   UNL     1      31.608  -4.901 -23.442  0.00  0.00    +0.001 C 
ATOM     14  C   UNL     1      31.839 -11.476 -19.561  0.00  0.00    +0.001 C 
ATOM     15  H   UNL     1      30.993  -9.562 -23.785  0.00  0.00    +0.152 HD
ENDROOT
TORSDOF 0
ENDMDL
MODEL 9
REMARK VINA RESULT:      -7.4      7.385      9.906
REMARK  Name = 7108
REMARK  0 active torsions:
REMARK  status: ('A' for Active; 'I' for Inactive)
REMARK                            x       y       z     vdW  Elec       q    Type
REMARK                         _______ _______ _______ _____ _____    ______ ____
ROOT
ATOM      1  S   UNL     1      34.913 -23.173 -16.025  0.00  0.00    -0.084 S 
ATOM      2  N   UNL     1      32.366 -22.669 -17.763  0.00  0.00    -0.312 N 
ATOM      3  C   UNL     1      32.159 -23.302 -16.528  0.00  0.00    +0.054 C 
ATOM      4  C   UNL     1      33.585 -22.235 -18.308  0.00  0.00    +0.054 C 
ATOM      5  C   UNL     1      33.218 -23.586 -15.651  0.00  0.00    +0.043 C 
ATOM      6  C   UNL     1      34.803 -22.401 -17.630  0.00  0.00    +0.043 C 
ATOM      7  C   UNL     1      30.852 -23.662 -16.155  0.00  0.00    +0.015 C 
ATOM      8  C   UNL     1      33.587 -21.616 -19.570  0.00  0.00    +0.015 C 
ATOM      9  C   UNL     1      32.955 -24.220 -14.427  0.00  0.00    +0.008 C 
ATOM     10  C   UNL     1      35.993 -21.947 -18.219  0.00  0.00    +0.008 C 
ATOM     11  C   UNL     1      30.601 -24.291 -14.937  0.00  0.00    +0.001 C 
ATOM     12  C   UNL     1      34.775 -21.170 -20.148  0.00  0.00    +0.001 C 
ATOM     13  C   UNL     1      31.653 -24.571 -14.072  0.00  0.00    +0.001 C 
ATOM     14  C   UNL     1      35.978 -21.336 -19.473  0.00  0.00    +0.001 C 
ATOM     15  H   UNL     1      31.564 -22.511 -18.311  0.00  0.00    +0.152 HD
ENDROOT
TORSDOF 0
ENDMDL
