MODEL 1
REMARK VINA RESULT:     -10.5      0.000      0.000
REMARK  Name = 40466957
REMARK  10 active torsions:
REMARK  status: ('A' for Active; 'I' for Inactive)
REMARK    1  A    between atoms: N_1  and  CA_4
REMARK    2  A    between atoms: N_1  and  C_21
REMARK    3  A    between atoms: CA_4  and  C_11
REMARK    4  A    between atoms: C_8  and  C_20
REMARK    5  A    between atoms: C_21  and  C_23
REMARK    6  A    between atoms: C_21  and  C_27
REMARK    7  A    between atoms: C_23  and  O_24
REMARK    8  A    between atoms: O_24  and  C_25
REMARK    9  A    between atoms: C_27  and  C_28
REMARK   10  A    between atoms: C_28  and  C_29
REMARK                            x       y       z     vdW  Elec       q    Type
REMARK                         _______ _______ _______ _____ _____    ______ ____
ROOT
ATOM      1  N   ALA A   1      32.293 -14.565 -22.739  0.00  0.00    +0.399 N 
ATOM      2  H1  ALA A   1      31.354 -14.920 -22.554  0.00  0.00    -0.083 HD
ATOM      3  H2  ALA A   1      32.732 -15.002 -23.550  0.00  0.00    -0.083 HD
ENDROOT
BRANCH   1   4
ATOM      4  CA  ALA A   1      33.146 -14.888 -21.573  0.00  0.00    +0.018 C 
ATOM      5  CB  ALA A   1      32.400 -15.817 -20.644  0.00  0.00    -0.014 C 
BRANCH   4  11
ATOM      6  O   ALA A   1      35.279 -14.848 -22.612  0.00  0.00    -0.277 OA
ATOM      7  N   UNK A   2      34.520 -16.923 -21.869  0.00  0.00    -0.269 N 
ATOM      8  C   UNK A   2      35.621 -17.646 -22.512  0.00  0.00    +0.184 C 
ATOM      9  C   UNK A   2      33.466 -17.717 -21.220  0.00  0.00    +0.120 C 
ATOM     10  C   UNK A   2      36.221 -18.708 -21.593  0.00  0.00    +0.058 C 
ATOM     11  C   ALA A   1      34.413 -15.540 -22.071  0.00  0.00    +0.206 C 
ATOM     12  C   UNK A   2      33.867 -19.102 -20.783  0.00  0.00    -0.006 C 
ATOM     13  C   UNK A   2      35.170 -19.585 -20.968  0.00  0.00    -0.022 C 
ATOM     14  C   UNK A   2      32.909 -19.928 -20.174  0.00  0.00    -0.003 C 
ATOM     15  C   UNK A   2      35.506 -20.872 -20.523  0.00  0.00    -0.004 C 
ATOM     16  C   UNK A   2      33.247 -21.212 -19.746  0.00  0.00    -0.000 C 
ATOM     17  C   UNK A   2      34.545 -21.683 -19.918  0.00  0.00    -0.000 C 
BRANCH   8  20
ATOM     18  O   UNK A   2      35.260 -19.560 -23.835  0.00  0.00    -0.244 OA
ATOM     19  O   UNK A   2      34.852 -17.493 -24.727  0.00  0.00    -0.244 OA
ATOM     20  C   UNK A   2      35.204 -18.300 -23.821  0.00  0.00    +0.383 C 
ENDBRANCH   8  20
ENDBRANCH   4  11
ENDBRANCH   1   4
BRANCH   1  21
ATOM     21  C   UNK A   0      32.189 -13.110 -23.045  0.00  0.00    +0.041 C 
BRANCH  21  23
ATOM     22  O   UNK A   0      33.441 -13.340 -25.113  0.00  0.00    -0.252 OA
ATOM     23  C   UNK A   0      33.218 -12.716 -24.084  0.00  0.00    +0.297 C 
BRANCH  23  24
ATOM     24  O   UNK A   0      33.819 -11.547 -23.718  0.00  0.00    -0.450 OA
BRANCH  24  25
ATOM     25  C   UNK A   0      34.343 -10.758 -24.792  0.00  0.00    +0.208 C 
ATOM     26  C   UNK A   0      34.896  -9.466 -24.230  0.00  0.00    +0.051 C 
ENDBRANCH  24  25
ENDBRANCH  23  24
ENDBRANCH  21  23
BRANCH  21  27
ATOM     27  C   UNK A   0      32.250 -12.297 -21.743  0.00  0.00    -0.006 C 
BRANCH  27  28
ATOM     28  C   UNK A   0      31.147 -11.250 -21.516  0.00  0.00    +0.025 C 
BRANCH  28  29
ATOM     29  C   UNK A   0      31.616  -9.819 -21.542  0.00  0.00    -0.022 C 
ATOM     30  C   UNK A   0      31.519  -9.075 -22.717  0.00  0.00    -0.004 C 
ATOM     31  C   UNK A   0      32.144  -9.237 -20.390  0.00  0.00    -0.004 C 
ATOM     32  C   UNK A   0      31.953  -7.749 -22.741  0.00  0.00    -0.000 C 
ATOM     33  C   UNK A   0      32.578  -7.911 -20.413  0.00  0.00    -0.000 C 
ATOM     34  C   UNK A   0      32.482  -7.167 -21.589  0.00  0.00    -0.000 C 
ENDBRANCH  28  29
ENDBRANCH  27  28
ENDBRANCH  21  27
ENDBRANCH   1  21
TORSDOF 10
ENDMDL
MODEL 2
REMARK VINA RESULT:     -10.5      8.029     12.257
REMARK  Name = 40466957
REMARK  10 active torsions:
REMARK  status: ('A' for Active; 'I' for Inactive)
REMARK    1  A    between atoms: N_1  and  CA_4
REMARK    2  A    between atoms: N_1  and  C_21
REMARK    3  A    between atoms: CA_4  and  C_11
REMARK    4  A    between atoms: C_8  and  C_20
REMARK    5  A    between atoms: C_21  and  C_23
REMARK    6  A    between atoms: C_21  and  C_27
REMARK    7  A    between atoms: C_23  and  O_24
REMARK    8  A    between atoms: O_24  and  C_25
REMARK    9  A    between atoms: C_27  and  C_28
REMARK   10  A    between atoms: C_28  and  C_29
REMARK                            x       y       z     vdW  Elec       q    Type
REMARK                         _______ _______ _______ _____ _____    ______ ____
ROOT
ATOM      1  N   ALA A   1      33.176 -23.865 -15.724  0.00  0.00    +0.399 N 
ATOM      2  H1  ALA A   1      32.500 -24.602 -15.520  0.00  0.00    -0.083 HD
ATOM      3  H2  ALA A   1      34.056 -24.222 -16.097  0.00  0.00    -0.083 HD
ENDROOT
BRANCH   1   4
ATOM      4  CA  ALA A   1      33.505 -23.177 -14.456  0.00  0.00    +0.018 C 
ATOM      5  CB  ALA A   1      32.261 -22.525 -13.898  0.00  0.00    -0.014 C 
BRANCH   4  11
ATOM      6  O   ALA A   1      33.282 -24.763 -12.704  0.00  0.00    -0.277 OA
ATOM      7  N   UNK A   2      35.430 -24.435 -13.547  0.00  0.00    -0.269 N 
ATOM      8  C   UNK A   2      36.053 -25.249 -12.500  0.00  0.00    +0.184 C 
ATOM      9  C   UNK A   2      36.318 -23.738 -14.492  0.00  0.00    +0.120 C 
ATOM     10  C   UNK A   2      37.109 -26.197 -13.063  0.00  0.00    +0.058 C 
ATOM     11  C   ALA A   1      34.051 -24.195 -13.485  0.00  0.00    +0.206 C 
ATOM     12  C   UNK A   2      37.689 -24.339 -14.663  0.00  0.00    -0.006 C 
ATOM     13  C   UNK A   2      38.077 -25.500 -13.979  0.00  0.00    -0.022 C 
ATOM     14  C   UNK A   2      38.600 -23.718 -15.532  0.00  0.00    -0.003 C 
ATOM     15  C   UNK A   2      39.355 -26.037 -14.189  0.00  0.00    -0.004 C 
ATOM     16  C   UNK A   2      39.874 -24.251 -15.725  0.00  0.00    -0.000 C 
ATOM     17  C   UNK A   2      40.251 -25.411 -15.055  0.00  0.00    -0.000 C 
BRANCH   8  20
ATOM     18  O   UNK A   2      37.920 -24.577 -11.230  0.00  0.00    -0.244 OA
ATOM     19  O   UNK A   2      35.880 -23.634 -10.801  0.00  0.00    -0.244 OA
ATOM     20  C   UNK A   2      36.682 -24.403 -11.401  0.00  0.00    +0.383 C 
ENDBRANCH   8  20
ENDBRANCH   4  11
ENDBRANCH   1   4
BRANCH   1  21
ATOM     21  C   UNK A   0      32.597 -22.981 -16.775  0.00  0.00    +0.041 C 
BRANCH  21  23
ATOM     22  O   UNK A   0      30.324 -22.215 -17.152  0.00  0.00    -0.252 OA
ATOM     23  C   UNK A   0      31.088 -23.101 -16.791  0.00  0.00    +0.297 C 
BRANCH  23  24
ATOM     24  O   UNK A   0      30.719 -24.351 -16.385  0.00  0.00    -0.450 OA
BRANCH  24  25
ATOM     25  C   UNK A   0      29.487 -24.427 -15.661  0.00  0.00    +0.208 C 
ATOM     26  C   UNK A   0      29.654 -25.384 -14.501  0.00  0.00    +0.051 C 
ENDBRANCH  24  25
ENDBRANCH  23  24
ENDBRANCH  21  23
BRANCH  21  27
ATOM     27  C   UNK A   0      33.277 -23.260 -18.124  0.00  0.00    -0.006 C 
BRANCH  27  28
ATOM     28  C   UNK A   0      34.548 -22.459 -18.450  0.00  0.00    +0.025 C 
BRANCH  28  29
ATOM     29  C   UNK A   0      34.367 -21.368 -19.473  0.00  0.00    -0.022 C 
ATOM     30  C   UNK A   0      35.479 -20.815 -20.106  0.00  0.00    -0.004 C 
ATOM     31  C   UNK A   0      33.087 -20.912 -19.788  0.00  0.00    -0.004 C 
ATOM     32  C   UNK A   0      35.312 -19.805 -21.054  0.00  0.00    -0.000 C 
ATOM     33  C   UNK A   0      32.919 -19.902 -20.736  0.00  0.00    -0.000 C 
ATOM     34  C   UNK A   0      34.033 -19.349 -21.369  0.00  0.00    -0.000 C 
ENDBRANCH  28  29
ENDBRANCH  27  28
ENDBRANCH  21  27
ENDBRANCH   1  21
TORSDOF 10
ENDMDL
MODEL 3
REMARK VINA RESULT:     -10.2      1.298      2.454
REMARK  Name = 40466957
REMARK  10 active torsions:
REMARK  status: ('A' for Active; 'I' for Inactive)
REMARK    1  A    between atoms: N_1  and  CA_4
REMARK    2  A    between atoms: N_1  and  C_21
REMARK    3  A    between atoms: CA_4  and  C_11
REMARK    4  A    between atoms: C_8  and  C_20
REMARK    5  A    between atoms: C_21  and  C_23
REMARK    6  A    between atoms: C_21  and  C_27
REMARK    7  A    between atoms: C_23  and  O_24
REMARK    8  A    between atoms: O_24  and  C_25
REMARK    9  A    between atoms: C_27  and  C_28
REMARK   10  A    between atoms: C_28  and  C_29
REMARK                            x       y       z     vdW  Elec       q    Type
REMARK                         _______ _______ _______ _____ _____    ______ ____
ROOT
ATOM      1  N   ALA A   1      32.287 -14.117 -22.221  0.00  0.00    +0.399 N 
ATOM      2  H1  ALA A   1      31.286 -14.267 -22.084  0.00  0.00    -0.083 HD
ATOM      3  H2  ALA A   1      32.620 -14.448 -23.126  0.00  0.00    -0.083 HD
ENDROOT
BRANCH   1   4
ATOM      4  CA  ALA A   1      33.015 -14.894 -21.194  0.00  0.00    +0.018 C 
ATOM      5  CB  ALA A   1      32.128 -16.002 -20.676  0.00  0.00    -0.014 C 
BRANCH   4  11
ATOM      6  O   ALA A   1      35.062 -14.707 -22.380  0.00  0.00    -0.277 OA
ATOM      7  N   UNK A   2      34.438 -16.850 -21.711  0.00  0.00    -0.269 N 
ATOM      8  C   UNK A   2      35.514 -17.490 -22.473  0.00  0.00    +0.184 C 
ATOM      9  C   UNK A   2      33.465 -17.724 -21.036  0.00  0.00    +0.120 C 
ATOM     10  C   UNK A   2      36.219 -18.578 -21.666  0.00  0.00    +0.058 C 
ATOM     11  C   ALA A   1      34.265 -15.464 -21.820  0.00  0.00    +0.206 C 
ATOM     12  C   UNK A   2      33.948 -19.114 -20.713  0.00  0.00    -0.006 C 
ATOM     13  C   UNK A   2      35.251 -19.532 -21.020  0.00  0.00    -0.022 C 
ATOM     14  C   UNK A   2      33.070 -20.012 -20.088  0.00  0.00    -0.003 C 
ATOM     15  C   UNK A   2      35.666 -20.826 -20.679  0.00  0.00    -0.004 C 
ATOM     16  C   UNK A   2      33.485 -21.303 -19.764  0.00  0.00    -0.000 C 
ATOM     17  C   UNK A   2      34.783 -21.710 -20.057  0.00  0.00    -0.000 C 
BRANCH   8  20
ATOM     18  O   UNK A   2      35.231 -19.320 -23.927  0.00  0.00    -0.244 OA
ATOM     19  O   UNK A   2      34.472 -17.260 -24.566  0.00  0.00    -0.244 OA
ATOM     20  C   UNK A   2      35.025 -18.084 -23.786  0.00  0.00    +0.383 C 
ENDBRANCH   8  20
ENDBRANCH   4  11
ENDBRANCH   1   4
BRANCH   1  21
ATOM     21  C   UNK A   0      32.546 -12.649 -22.184  0.00  0.00    +0.041 C 
BRANCH  21  23
ATOM     22  O   UNK A   0      30.434 -11.523 -21.771  0.00  0.00    -0.252 OA
ATOM     23  C   UNK A   0      31.499 -11.950 -21.342  0.00  0.00    +0.297 C 
BRANCH  23  24
ATOM     24  O   UNK A   0      31.905 -11.910 -20.040  0.00  0.00    -0.450 OA
BRANCH  24  25
ATOM     25  C   UNK A   0      31.386 -10.824 -19.264  0.00  0.00    +0.208 C 
ATOM     26  C   UNK A   0      32.070  -9.543 -19.691  0.00  0.00    +0.051 C 
ENDBRANCH  24  25
ENDBRANCH  23  24
ENDBRANCH  21  23
BRANCH  21  27
ATOM     27  C   UNK A   0      32.685 -12.108 -23.615  0.00  0.00    -0.006 C 
BRANCH  27  28
ATOM     28  C   UNK A   0      33.930 -11.263 -23.928  0.00  0.00    +0.025 C 
BRANCH  28  29
ATOM     29  C   UNK A   0      33.735  -9.774 -23.812  0.00  0.00    -0.022 C 
ATOM     30  C   UNK A   0      32.462  -9.254 -23.580  0.00  0.00    -0.004 C 
ATOM     31  C   UNK A   0      34.826  -8.915 -23.936  0.00  0.00    -0.004 C 
ATOM     32  C   UNK A   0      32.279  -7.875 -23.473  0.00  0.00    -0.000 C 
ATOM     33  C   UNK A   0      34.645  -7.536 -23.828  0.00  0.00    -0.000 C 
ATOM     34  C   UNK A   0      33.371  -7.016 -23.596  0.00  0.00    -0.000 C 
ENDBRANCH  28  29
ENDBRANCH  27  28
ENDBRANCH  21  27
ENDBRANCH   1  21
TORSDOF 10
ENDMDL
MODEL 4
REMARK VINA RESULT:      -9.7      1.634      9.225
REMARK  Name = 40466957
REMARK  10 active torsions:
REMARK  status: ('A' for Active; 'I' for Inactive)
REMARK    1  A    between atoms: N_1  and  CA_4
REMARK    2  A    between atoms: N_1  and  C_21
REMARK    3  A    between atoms: CA_4  and  C_11
REMARK    4  A    between atoms: C_8  and  C_20
REMARK    5  A    between atoms: C_21  and  C_23
REMARK    6  A    between atoms: C_21  and  C_27
REMARK    7  A    between atoms: C_23  and  O_24
REMARK    8  A    between atoms: O_24  and  C_25
REMARK    9  A    between atoms: C_27  and  C_28
REMARK   10  A    between atoms: C_28  and  C_29
REMARK                            x       y       z     vdW  Elec       q    Type
REMARK                         _______ _______ _______ _____ _____    ______ ____
ROOT
ATOM      1  N   ALA A   1      32.845 -14.499 -23.850  0.00  0.00    +0.399 N 
ATOM      2  H1  ALA A   1      32.715 -14.246 -24.830  0.00  0.00    -0.083 HD
ATOM      3  H2  ALA A   1      32.034 -14.969 -23.448  0.00  0.00    -0.083 HD
ENDROOT
BRANCH   1   4
ATOM      4  CA  ALA A   1      33.037 -13.254 -23.074  0.00  0.00    +0.018 C 
ATOM      5  CB  ALA A   1      34.278 -13.377 -22.220  0.00  0.00    -0.014 C 
BRANCH   4  11
ATOM      6  O   ALA A   1      33.349 -12.333 -25.239  0.00  0.00    -0.277 OA
ATOM      7  N   UNK A   2      33.071 -10.816 -23.491  0.00  0.00    -0.269 N 
ATOM      8  C   UNK A   2      33.399  -9.662 -24.332  0.00  0.00    +0.184 C 
ATOM      9  C   UNK A   2      32.858 -10.577 -22.055  0.00  0.00    +0.120 C 
ATOM     10  C   UNK A   2      32.440  -8.496 -24.105  0.00  0.00    +0.058 C 
ATOM     11  C   ALA A   1      33.171 -12.101 -24.040  0.00  0.00    +0.206 C 
ATOM     12  C   UNK A   2      32.445  -9.178 -21.679  0.00  0.00    -0.006 C 
ATOM     13  C   UNK A   2      32.256  -8.180 -22.646  0.00  0.00    -0.022 C 
ATOM     14  C   UNK A   2      32.243  -8.868 -20.325  0.00  0.00    -0.003 C 
ATOM     15  C   UNK A   2      31.846  -6.898 -22.253  0.00  0.00    -0.004 C 
ATOM     16  C   UNK A   2      31.849  -7.587 -19.941  0.00  0.00    -0.000 C 
ATOM     17  C   UNK A   2      31.648  -6.603 -20.904  0.00  0.00    -0.000 C 
BRANCH   8  20
ATOM     18  O   UNK A   2      35.727 -10.008 -24.427  0.00  0.00    -0.244 OA
ATOM     19  O   UNK A   2      34.927  -8.000 -23.679  0.00  0.00    -0.244 OA
ATOM     20  C   UNK A   2      34.827  -9.177 -24.126  0.00  0.00    +0.383 C 
ENDBRANCH   8  20
ENDBRANCH   4  11
ENDBRANCH   1   4
BRANCH   1  21
ATOM     21  C   UNK A   0      33.979 -15.461 -23.765  0.00  0.00    +0.041 C 
BRANCH  21  23
ATOM     22  O   UNK A   0      33.814 -15.697 -26.177  0.00  0.00    -0.252 OA
ATOM     23  C   UNK A   0      34.196 -16.140 -25.101  0.00  0.00    +0.297 C 
BRANCH  23  24
ATOM     24  O   UNK A   0      34.913 -17.288 -24.925  0.00  0.00    -0.450 OA
BRANCH  24  25
ATOM     25  C   UNK A   0      34.203 -18.505 -25.179  0.00  0.00    +0.208 C 
ATOM     26  C   UNK A   0      34.940 -19.652 -24.522  0.00  0.00    +0.051 C 
ENDBRANCH  24  25
ENDBRANCH  23  24
ENDBRANCH  21  23
BRANCH  21  27
ATOM     27  C   UNK A   0      33.761 -16.422 -22.586  0.00  0.00    -0.006 C 
BRANCH  27  28
ATOM     28  C   UNK A   0      34.998 -16.814 -21.762  0.00  0.00    +0.025 C 
BRANCH  28  29
ATOM     29  C   UNK A   0      34.983 -18.221 -21.224  0.00  0.00    -0.022 C 
ATOM     30  C   UNK A   0      33.769 -18.873 -21.009  0.00  0.00    -0.004 C 
ATOM     31  C   UNK A   0      36.184 -18.873 -20.941  0.00  0.00    -0.004 C 
ATOM     32  C   UNK A   0      33.755 -20.176 -20.511  0.00  0.00    -0.000 C 
ATOM     33  C   UNK A   0      36.170 -20.176 -20.443  0.00  0.00    -0.000 C 
ATOM     34  C   UNK A   0      34.955 -20.828 -20.229  0.00  0.00    -0.000 C 
ENDBRANCH  28  29
ENDBRANCH  27  28
ENDBRANCH  21  27
ENDBRANCH   1  21
TORSDOF 10
ENDMDL
MODEL 5
REMARK VINA RESULT:      -9.6      2.526      4.333
REMARK  Name = 40466957
REMARK  10 active torsions:
REMARK  status: ('A' for Active; 'I' for Inactive)
REMARK    1  A    between atoms: N_1  and  CA_4
REMARK    2  A    between atoms: N_1  and  C_21
REMARK    3  A    between atoms: CA_4  and  C_11
REMARK    4  A    between atoms: C_8  and  C_20
REMARK    5  A    between atoms: C_21  and  C_23
REMARK    6  A    between atoms: C_21  and  C_27
REMARK    7  A    between atoms: C_23  and  O_24
REMARK    8  A    between atoms: O_24  and  C_25
REMARK    9  A    between atoms: C_27  and  C_28
REMARK   10  A    between atoms: C_28  and  C_29
REMARK                            x       y       z     vdW  Elec       q    Type
REMARK                         _______ _______ _______ _____ _____    ______ ____
ROOT
ATOM      1  N   ALA A   1      32.737 -10.867 -23.592  0.00  0.00    +0.399 N 
ATOM      2  H1  ALA A   1      31.729 -10.768 -23.471  0.00  0.00    -0.083 HD
ATOM      3  H2  ALA A   1      33.026 -10.845 -24.570  0.00  0.00    -0.083 HD
ENDROOT
BRANCH   1   4
ATOM      4  CA  ALA A   1      33.138 -12.190 -23.064  0.00  0.00    +0.018 C 
ATOM      5  CB  ALA A   1      31.914 -12.929 -22.573  0.00  0.00    -0.014 C 
BRANCH   4  11
ATOM      6  O   ALA A   1      34.176 -12.371 -25.190  0.00  0.00    -0.277 OA
ATOM      7  N   UNK A   2      34.000 -14.334 -23.946  0.00  0.00    -0.269 N 
ATOM      8  C   UNK A   2      34.458 -15.174 -25.056  0.00  0.00    +0.184 C 
ATOM      9  C   UNK A   2      33.558 -15.008 -22.715  0.00  0.00    +0.120 C 
ATOM     10  C   UNK A   2      35.478 -16.216 -24.603  0.00  0.00    +0.058 C 
ATOM     11  C   ALA A   1      33.816 -12.963 -24.170  0.00  0.00    +0.206 C 
ATOM     12  C   UNK A   2      34.119 -16.387 -22.487  0.00  0.00    -0.006 C 
ATOM     13  C   UNK A   2      35.022 -16.974 -23.386  0.00  0.00    -0.022 C 
ATOM     14  C   UNK A   2      33.727 -17.101 -21.344  0.00  0.00    -0.003 C 
ATOM     15  C   UNK A   2      35.538 -18.250 -23.120  0.00  0.00    -0.004 C 
ATOM     16  C   UNK A   2      34.234 -18.376 -21.094  0.00  0.00    -0.000 C 
ATOM     17  C   UNK A   2      35.141 -18.949 -21.981  0.00  0.00    -0.000 C 
BRANCH   8  20
ATOM     18  O   UNK A   2      33.417 -17.133 -25.849  0.00  0.00    -0.244 OA
ATOM     19  O   UNK A   2      32.395 -15.113 -26.179  0.00  0.00    -0.244 OA
ATOM     20  C   UNK A   2      33.310 -15.878 -25.765  0.00  0.00    +0.383 C 
ENDBRANCH   8  20
ENDBRANCH   4  11
ENDBRANCH   1   4
BRANCH   1  21
ATOM     21  C   UNK A   0      33.402  -9.710 -22.927  0.00  0.00    +0.041 C 
BRANCH  21  23
ATOM     22  O   UNK A   0      31.300  -8.518 -22.678  0.00  0.00    -0.252 OA
ATOM     23  C   UNK A   0      32.378  -8.857 -22.207  0.00  0.00    +0.297 C 
BRANCH  23  24
ATOM     24  O   UNK A   0      32.824  -8.565 -20.950  0.00  0.00    -0.450 OA
BRANCH  24  25
ATOM     25  C   UNK A   0      31.889  -8.802 -19.893  0.00  0.00    +0.208 C 
ATOM     26  C   UNK A   0      31.777 -10.293 -19.659  0.00  0.00    +0.051 C 
ENDBRANCH  24  25
ENDBRANCH  23  24
ENDBRANCH  21  23
BRANCH  21  27
ATOM     27  C   UNK A   0      34.267  -8.951 -23.944  0.00  0.00    -0.006 C 
BRANCH  27  28
ATOM     28  C   UNK A   0      34.573  -7.475 -23.643  0.00  0.00    +0.025 C 
BRANCH  28  29
ATOM     29  C   UNK A   0      34.005  -6.492 -24.633  0.00  0.00    -0.022 C 
ATOM     30  C   UNK A   0      32.731  -5.961 -24.435  0.00  0.00    -0.004 C 
ATOM     31  C   UNK A   0      34.753  -6.113 -25.747  0.00  0.00    -0.004 C 
ATOM     32  C   UNK A   0      32.203  -5.051 -25.352  0.00  0.00    -0.000 C 
ATOM     33  C   UNK A   0      34.226  -5.203 -26.665  0.00  0.00    -0.000 C 
ATOM     34  C   UNK A   0      32.951  -4.672 -26.467  0.00  0.00    -0.000 C 
ENDBRANCH  28  29
ENDBRANCH  27  28
ENDBRANCH  21  27
ENDBRANCH   1  21
TORSDOF 10
ENDMDL
MODEL 6
REMARK VINA RESULT:      -9.6      8.527     12.020
REMARK  Name = 40466957
REMARK  10 active torsions:
REMARK  status: ('A' for Active; 'I' for Inactive)
REMARK    1  A    between atoms: N_1  and  CA_4
REMARK    2  A    between atoms: N_1  and  C_21
REMARK    3  A    between atoms: CA_4  and  C_11
REMARK    4  A    between atoms: C_8  and  C_20
REMARK    5  A    between atoms: C_21  and  C_23
REMARK    6  A    between atoms: C_21  and  C_27
REMARK    7  A    between atoms: C_23  and  O_24
REMARK    8  A    between atoms: O_24  and  C_25
REMARK    9  A    between atoms: C_27  and  C_28
REMARK   10  A    between atoms: C_28  and  C_29
REMARK                            x       y       z     vdW  Elec       q    Type
REMARK                         _______ _______ _______ _____ _____    ______ ____
ROOT
ATOM      1  N   ALA A   1      35.438 -22.370 -15.746  0.00  0.00    +0.399 N 
ATOM      2  H1  ALA A   1      35.699 -22.167 -14.780  0.00  0.00    -0.083 HD
ATOM      3  H2  ALA A   1      34.992 -21.581 -16.213  0.00  0.00    -0.083 HD
ENDROOT
BRANCH   1   4
ATOM      4  CA  ALA A   1      34.447 -23.469 -15.734  0.00  0.00    +0.018 C 
ATOM      5  CB  ALA A   1      35.165 -24.798 -15.760  0.00  0.00    -0.014 C 
BRANCH   4  11
ATOM      6  O   ALA A   1      34.162 -23.255 -13.388  0.00  0.00    -0.277 OA
ATOM      7  N   UNK A   2      32.218 -23.328 -14.672  0.00  0.00    -0.269 N 
ATOM      8  C   UNK A   2      31.348 -23.421 -13.496  0.00  0.00    +0.184 C 
ATOM      9  C   UNK A   2      31.589 -23.436 -15.998  0.00  0.00    +0.120 C 
ATOM     10  C   UNK A   2      30.136 -22.499 -13.607  0.00  0.00    +0.058 C 
ATOM     11  C   ALA A   1      33.606 -23.344 -14.486  0.00  0.00    +0.206 C 
ATOM     12  C   UNK A   2      30.129 -23.071 -16.061  0.00  0.00    -0.006 C 
ATOM     13  C   UNK A   2      29.428 -22.637 -14.927  0.00  0.00    -0.022 C 
ATOM     14  C   UNK A   2      29.456 -23.169 -17.288  0.00  0.00    -0.003 C 
ATOM     15  C   UNK A   2      28.075 -22.285 -15.038  0.00  0.00    -0.004 C 
ATOM     16  C   UNK A   2      28.107 -22.830 -17.388  0.00  0.00    -0.000 C 
ATOM     17  C   UNK A   2      27.417 -22.386 -16.263  0.00  0.00    -0.000 C 
BRANCH   8  20
ATOM     18  O   UNK A   2      31.371 -25.724 -13.984  0.00  0.00    -0.244 OA
ATOM     19  O   UNK A   2      30.028 -24.953 -12.301  0.00  0.00    -0.244 OA
ATOM     20  C   UNK A   2      30.869 -24.841 -13.236  0.00  0.00    +0.383 C 
ENDBRANCH   8  20
ENDBRANCH   4  11
ENDBRANCH   1   4
BRANCH   1  21
ATOM     21  C   UNK A   0      36.682 -22.669 -16.511  0.00  0.00    +0.041 C 
BRANCH  21  23
ATOM     22  O   UNK A   0      38.904 -23.441 -15.907  0.00  0.00    -0.252 OA
ATOM     23  C   UNK A   0      37.819 -22.990 -15.563  0.00  0.00    +0.297 C 
BRANCH  23  24
ATOM     24  O   UNK A   0      37.463 -22.662 -14.287  0.00  0.00    -0.450 OA
BRANCH  24  25
ATOM     25  C   UNK A   0      37.622 -23.702 -13.315  0.00  0.00    +0.208 C 
ATOM     26  C   UNK A   0      37.501 -23.104 -11.930  0.00  0.00    +0.051 C 
ENDBRANCH  24  25
ENDBRANCH  23  24
ENDBRANCH  21  23
BRANCH  21  27
ATOM     27  C   UNK A   0      36.974 -21.528 -17.498  0.00  0.00    -0.006 C 
BRANCH  27  28
ATOM     28  C   UNK A   0      36.701 -21.801 -18.986  0.00  0.00    +0.025 C 
BRANCH  28  29
ATOM     29  C   UNK A   0      35.406 -21.237 -19.509  0.00  0.00    -0.022 C 
ATOM     30  C   UNK A   0      34.190 -21.766 -19.075  0.00  0.00    -0.004 C 
ATOM     31  C   UNK A   0      35.421 -20.186 -20.426  0.00  0.00    -0.004 C 
ATOM     32  C   UNK A   0      32.990 -21.244 -19.559  0.00  0.00    -0.000 C 
ATOM     33  C   UNK A   0      34.221 -19.664 -20.910  0.00  0.00    -0.000 C 
ATOM     34  C   UNK A   0      33.005 -20.193 -20.476  0.00  0.00    -0.000 C 
ENDBRANCH  28  29
ENDBRANCH  27  28
ENDBRANCH  21  27
ENDBRANCH   1  21
TORSDOF 10
ENDMDL
MODEL 7
REMARK VINA RESULT:      -9.5      2.732      4.861
REMARK  Name = 40466957
REMARK  10 active torsions:
REMARK  status: ('A' for Active; 'I' for Inactive)
REMARK    1  A    between atoms: N_1  and  CA_4
REMARK    2  A    between atoms: N_1  and  C_21
REMARK    3  A    between atoms: CA_4  and  C_11
REMARK    4  A    between atoms: C_8  and  C_20
REMARK    5  A    between atoms: C_21  and  C_23
REMARK    6  A    between atoms: C_21  and  C_27
REMARK    7  A    between atoms: C_23  and  O_24
REMARK    8  A    between atoms: O_24  and  C_25
REMARK    9  A    between atoms: C_27  and  C_28
REMARK   10  A    between atoms: C_28  and  C_29
REMARK                            x       y       z     vdW  Elec       q    Type
REMARK                         _______ _______ _______ _____ _____    ______ ____
ROOT
ATOM      1  N   ALA A   1      33.210  -9.855 -23.589  0.00  0.00    +0.399 N 
ATOM      2  H1  ALA A   1      32.378  -9.720 -24.165  0.00  0.00    -0.083 HD
ATOM      3  H2  ALA A   1      34.079  -9.724 -24.107  0.00  0.00    -0.083 HD
ENDROOT
BRANCH   1   4
ATOM      4  CA  ALA A   1      33.215 -11.253 -23.105  0.00  0.00    +0.018 C 
ATOM      5  CB  ALA A   1      31.797 -11.697 -22.829  0.00  0.00    -0.014 C 
BRANCH   4  11
ATOM      6  O   ALA A   1      34.289 -11.606 -25.192  0.00  0.00    -0.277 OA
ATOM      7  N   UNK A   2      33.893 -13.499 -23.890  0.00  0.00    -0.269 N 
ATOM      8  C   UNK A   2      34.298 -14.417 -24.958  0.00  0.00    +0.184 C 
ATOM      9  C   UNK A   2      33.355 -14.084 -22.652  0.00  0.00    +0.120 C 
ATOM     10  C   UNK A   2      35.201 -15.534 -24.440  0.00  0.00    +0.058 C 
ATOM     11  C   ALA A   1      33.846 -12.125 -24.164  0.00  0.00    +0.206 C 
ATOM     12  C   UNK A   2      33.776 -15.501 -22.362  0.00  0.00    -0.006 C 
ATOM     13  C   UNK A   2      34.642 -16.202 -23.213  0.00  0.00    -0.022 C 
ATOM     14  C   UNK A   2      33.286 -16.134 -21.209  0.00  0.00    -0.003 C 
ATOM     15  C   UNK A   2      35.027 -17.511 -22.891  0.00  0.00    -0.004 C 
ATOM     16  C   UNK A   2      33.662 -17.441 -20.903  0.00  0.00    -0.000 C 
ATOM     17  C   UNK A   2      34.534 -18.129 -21.741  0.00  0.00    -0.000 C 
BRANCH   8  20
ATOM     18  O   UNK A   2      32.158 -14.242 -25.925  0.00  0.00    -0.244 OA
ATOM     19  O   UNK A   2      33.227 -16.264 -25.939  0.00  0.00    -0.244 OA
ATOM     20  C   UNK A   2      33.109 -15.034 -25.679  0.00  0.00    +0.383 C 
ENDBRANCH   8  20
ENDBRANCH   4  11
ENDBRANCH   1   4
BRANCH   1  21
ATOM     21  C   UNK A   0      33.201  -8.828 -22.509  0.00  0.00    +0.041 C 
BRANCH  21  23
ATOM     22  O   UNK A   0      30.903  -8.256 -23.051  0.00  0.00    -0.252 OA
ATOM     23  C   UNK A   0      31.782  -8.391 -22.209  0.00  0.00    +0.297 C 
BRANCH  23  24
ATOM     24  O   UNK A   0      31.628  -8.215 -20.865  0.00  0.00    -0.450 OA
BRANCH  24  25
ATOM     25  C   UNK A   0      32.311  -9.162 -20.035  0.00  0.00    +0.208 C 
ATOM     26  C   UNK A   0      31.303 -10.138 -19.468  0.00  0.00    +0.051 C 
ENDBRANCH  24  25
ENDBRANCH  23  24
ENDBRANCH  21  23
BRANCH  21  27
ATOM     27  C   UNK A   0      34.161  -7.683 -22.869  0.00  0.00    -0.006 C 
BRANCH  27  28
ATOM     28  C   UNK A   0      34.594  -7.566 -24.339  0.00  0.00    +0.025 C 
BRANCH  28  29
ATOM     29  C   UNK A   0      33.999  -6.401 -25.086  0.00  0.00    -0.022 C 
ATOM     30  C   UNK A   0      32.750  -5.901 -24.717  0.00  0.00    -0.004 C 
ATOM     31  C   UNK A   0      34.697  -5.820 -26.144  0.00  0.00    -0.004 C 
ATOM     32  C   UNK A   0      32.198  -4.822 -25.408  0.00  0.00    -0.000 C 
ATOM     33  C   UNK A   0      34.145  -4.740 -26.836  0.00  0.00    -0.000 C 
ATOM     34  C   UNK A   0      32.896  -4.241 -26.467  0.00  0.00    -0.000 C 
ENDBRANCH  28  29
ENDBRANCH  27  28
ENDBRANCH  21  27
ENDBRANCH   1  21
TORSDOF 10
ENDMDL
MODEL 8
REMARK VINA RESULT:      -9.4      2.469      4.377
REMARK  Name = 40466957
REMARK  10 active torsions:
REMARK  status: ('A' for Active; 'I' for Inactive)
REMARK    1  A    between atoms: N_1  and  CA_4
REMARK    2  A    between atoms: N_1  and  C_21
REMARK    3  A    between atoms: CA_4  and  C_11
REMARK    4  A    between atoms: C_8  and  C_20
REMARK    5  A    between atoms: C_21  and  C_23
REMARK    6  A    between atoms: C_21  and  C_27
REMARK    7  A    between atoms: C_23  and  O_24
REMARK    8  A    between atoms: O_24  and  C_25
REMARK    9  A    between atoms: C_27  and  C_28
REMARK   10  A    between atoms: C_28  and  C_29
REMARK                            x       y       z     vdW  Elec       q    Type
REMARK                         _______ _______ _______ _____ _____    ______ ____
ROOT
ATOM      1  N   ALA A   1      31.266 -11.688 -22.334  0.00  0.00    +0.399 N 
ATOM      2  H1  ALA A   1      30.760 -12.033 -21.518  0.00  0.00    -0.083 HD
ATOM      3  H2  ALA A   1      30.653 -11.459 -23.117  0.00  0.00    -0.083 HD
ENDROOT
BRANCH   1   4
ATOM      4  CA  ALA A   1      32.168 -12.763 -22.806  0.00  0.00    +0.018 C 
ATOM      5  CB  ALA A   1      33.504 -12.170 -23.187  0.00  0.00    -0.014 C 
BRANCH   4  11
ATOM      6  O   ALA A   1      31.847 -13.538 -20.586  0.00  0.00    -0.277 OA
ATOM      7  N   UNK A   2      33.038 -14.940 -22.017  0.00  0.00    -0.269 N 
ATOM      8  C   UNK A   2      33.414 -15.858 -20.938  0.00  0.00    +0.184 C 
ATOM      9  C   UNK A   2      33.605 -15.186 -23.353  0.00  0.00    +0.120 C 
ATOM     10  C   UNK A   2      33.245 -17.320 -21.345  0.00  0.00    +0.058 C 
ATOM     11  C   ALA A   1      32.333 -13.773 -21.695  0.00  0.00    +0.206 C 
ATOM     12  C   UNK A   2      34.032 -16.604 -23.630  0.00  0.00    -0.006 C 
ATOM     13  C   UNK A   2      33.877 -17.621 -22.677  0.00  0.00    -0.022 C 
ATOM     14  C   UNK A   2      34.601 -16.912 -24.875  0.00  0.00    -0.003 C 
ATOM     15  C   UNK A   2      34.266 -18.931 -22.987  0.00  0.00    -0.004 C 
ATOM     16  C   UNK A   2      34.999 -18.215 -25.172  0.00  0.00    -0.000 C 
ATOM     17  C   UNK A   2      34.830 -19.225 -24.229  0.00  0.00    -0.000 C 
BRANCH   8  20
ATOM     18  O   UNK A   2      35.184 -14.431 -20.325  0.00  0.00    -0.244 OA
ATOM     19  O   UNK A   2      35.497 -16.696 -20.246  0.00  0.00    -0.244 OA
ATOM     20  C   UNK A   2      34.840 -15.638 -20.456  0.00  0.00    +0.383 C 
ENDBRANCH   8  20
ENDBRANCH   4  11
ENDBRANCH   1   4
BRANCH   1  21
ATOM     21  C   UNK A   0      31.958 -10.425 -21.953  0.00  0.00    +0.041 C 
BRANCH  21  23
ATOM     22  O   UNK A   0      30.801 -10.624 -19.828  0.00  0.00    -0.252 OA
ATOM     23  C   UNK A   0      31.643 -10.064 -20.517  0.00  0.00    +0.297 C 
BRANCH  23  24
ATOM     24  O   UNK A   0      32.466  -9.056 -20.103  0.00  0.00    -0.450 OA
BRANCH  24  25
ATOM     25  C   UNK A   0      31.816  -7.822 -19.780  0.00  0.00    +0.208 C 
ATOM     26  C   UNK A   0      32.553  -6.685 -20.456  0.00  0.00    +0.051 C 
ENDBRANCH  24  25
ENDBRANCH  23  24
ENDBRANCH  21  23
BRANCH  21  27
ATOM     27  C   UNK A   0      31.636  -9.324 -22.976  0.00  0.00    -0.006 C 
BRANCH  27  28
ATOM     28  C   UNK A   0      32.817  -8.510 -23.528  0.00  0.00    +0.025 C 
BRANCH  28  29
ATOM     29  C   UNK A   0      32.449  -7.172 -24.112  0.00  0.00    -0.022 C 
ATOM     30  C   UNK A   0      31.162  -6.664 -23.935  0.00  0.00    -0.004 C 
ATOM     31  C   UNK A   0      33.394  -6.439 -24.829  0.00  0.00    -0.004 C 
ATOM     32  C   UNK A   0      30.820  -5.424 -24.477  0.00  0.00    -0.000 C 
ATOM     33  C   UNK A   0      33.053  -5.199 -25.371  0.00  0.00    -0.000 C 
ATOM     34  C   UNK A   0      31.765  -4.692 -25.194  0.00  0.00    -0.000 C 
ENDBRANCH  28  29
ENDBRANCH  27  28
ENDBRANCH  21  27
ENDBRANCH   1  21
TORSDOF 10
ENDMDL
MODEL 9
REMARK VINA RESULT:      -9.4      3.911      7.122
REMARK  Name = 40466957
REMARK  10 active torsions:
REMARK  status: ('A' for Active; 'I' for Inactive)
REMARK    1  A    between atoms: N_1  and  CA_4
REMARK    2  A    between atoms: N_1  and  C_21
REMARK    3  A    between atoms: CA_4  and  C_11
REMARK    4  A    between atoms: C_8  and  C_20
REMARK    5  A    between atoms: C_21  and  C_23
REMARK    6  A    between atoms: C_21  and  C_27
REMARK    7  A    between atoms: C_23  and  O_24
REMARK    8  A    between atoms: O_24  and  C_25
REMARK    9  A    between atoms: C_27  and  C_28
REMARK   10  A    between atoms: C_28  and  C_29
REMARK                            x       y       z     vdW  Elec       q    Type
REMARK                         _______ _______ _______ _____ _____    ______ ____
ROOT
ATOM      1  N   ALA A   1      31.624  -9.342 -21.749  0.00  0.00    +0.399 N 
ATOM      2  H1  ALA A   1      30.804  -9.002 -21.246  0.00  0.00    -0.083 HD
ATOM      3  H2  ALA A   1      31.403  -9.696 -22.680  0.00  0.00    -0.083 HD
ENDROOT
BRANCH   1   4
ATOM      4  CA  ALA A   1      32.194 -10.478 -20.991  0.00  0.00    +0.018 C 
ATOM      5  CB  ALA A   1      31.541 -10.555 -19.631  0.00  0.00    -0.014 C 
BRANCH   4  11
ATOM      6  O   ALA A   1      31.082 -12.537 -21.385  0.00  0.00    -0.277 OA
ATOM      7  N   UNK A   2      32.737 -11.936 -22.913  0.00  0.00    -0.269 N 
ATOM      8  C   UNK A   2      32.696 -13.235 -23.591  0.00  0.00    +0.184 C 
ATOM      9  C   UNK A   2      33.761 -10.972 -23.344  0.00  0.00    +0.120 C 
ATOM     10  C   UNK A   2      32.709 -13.089 -25.111  0.00  0.00    +0.058 C 
ATOM     11  C   ALA A   1      31.948 -11.747 -21.771  0.00  0.00    +0.206 C 
ATOM     12  C   UNK A   2      34.279 -11.151 -24.747  0.00  0.00    -0.006 C 
ATOM     13  C   UNK A   2      33.793 -12.162 -25.589  0.00  0.00    -0.022 C 
ATOM     14  C   UNK A   2      35.272 -10.281 -25.222  0.00  0.00    -0.003 C 
ATOM     15  C   UNK A   2      34.286 -12.276 -26.896  0.00  0.00    -0.004 C 
ATOM     16  C   UNK A   2      35.768 -10.409 -26.519  0.00  0.00    -0.000 C 
ATOM     17  C   UNK A   2      35.274 -11.405 -27.357  0.00  0.00    -0.000 C 
BRANCH   8  20
ATOM     18  O   UNK A   2      34.146 -14.099 -21.948  0.00  0.00    -0.244 OA
ATOM     19  O   UNK A   2      34.334 -14.841 -24.104  0.00  0.00    -0.244 OA
ATOM     20  C   UNK A   2      33.839 -14.148 -23.171  0.00  0.00    +0.383 C 
ENDBRANCH   8  20
ENDBRANCH   4  11
ENDBRANCH   1   4
BRANCH   1  21
ATOM     21  C   UNK A   0      32.559  -8.197 -21.942  0.00  0.00    +0.041 C 
BRANCH  21  23
ATOM     22  O   UNK A   0      32.260  -7.213 -19.742  0.00  0.00    -0.252 OA
ATOM     23  C   UNK A   0      32.243  -7.088 -20.960  0.00  0.00    +0.297 C 
BRANCH  23  24
ATOM     24  O   UNK A   0      31.982  -5.932 -21.637  0.00  0.00    -0.450 OA
BRANCH  24  25
ATOM     25  C   UNK A   0      30.615  -5.506 -21.625  0.00  0.00    +0.208 C 
ATOM     26  C   UNK A   0      30.511  -4.166 -22.321  0.00  0.00    +0.051 C 
ENDBRANCH  24  25
ENDBRANCH  23  24
ENDBRANCH  21  23
BRANCH  21  27
ATOM     27  C   UNK A   0      32.559  -7.766 -23.417  0.00  0.00    -0.006 C 
BRANCH  27  28
ATOM     28  C   UNK A   0      33.879  -7.227 -23.990  0.00  0.00    +0.025 C 
BRANCH  28  29
ATOM     29  C   UNK A   0      33.726  -6.170 -25.053  0.00  0.00    -0.022 C 
ATOM     30  C   UNK A   0      34.755  -5.948 -25.969  0.00  0.00    -0.004 C 
ATOM     31  C   UNK A   0      32.556  -5.415 -25.123  0.00  0.00    -0.004 C 
ATOM     32  C   UNK A   0      34.614  -4.970 -26.953  0.00  0.00    -0.000 C 
ATOM     33  C   UNK A   0      32.414  -4.436 -26.108  0.00  0.00    -0.000 C 
ATOM     34  C   UNK A   0      33.443  -4.215 -27.023  0.00  0.00    -0.000 C 
ENDBRANCH  28  29
ENDBRANCH  27  28
ENDBRANCH  21  27
ENDBRANCH   1  21
TORSDOF 10
ENDMDL
