MODEL 1
REMARK VINA RESULT:     -13.1      0.000      0.000
REMARK  Name = 42611257
REMARK  7 active torsions:
REMARK  status: ('A' for Active; 'I' for Inactive)
REMARK    1  A    between atoms: C_2  and  C_6
REMARK    2  A    between atoms: C_2  and  C_22
REMARK    3  A    between atoms: C_10  and  C_14
REMARK    4  A    between atoms: C_23  and  N_28
REMARK    5  A    between atoms: N_28  and  S_30
REMARK    6  A    between atoms: S_30  and  C_33
REMARK    7  A    between atoms: C_33  and  C_34
REMARK                            x       y       z     vdW  Elec       q    Type
REMARK                         _______ _______ _______ _____ _____    ______ ____
ROOT
ATOM      1  O   UNL     1      35.301 -16.961 -20.657  0.00  0.00    -0.286 OA
ATOM      2  C   UNL     1      35.190 -17.945 -21.421  0.00  0.00    +0.201 C 
ENDROOT
BRANCH   2   6
ATOM      3  N   UNL     1      34.679 -18.235 -24.980  0.00  0.00    -0.297 N 
ATOM      4  N   UNL     1      33.883 -16.121 -25.815  0.00  0.00    -0.229 NA
ATOM      5  C   UNL     1      34.428 -16.604 -23.474  0.00  0.00    +0.036 C 
ATOM      6  C   UNL     1      34.900 -17.770 -22.815  0.00  0.00    +0.056 C 
ATOM      7  C   UNL     1      34.300 -16.928 -24.822  0.00  0.00    +0.132 C 
ATOM      8  C   UNL     1      34.088 -15.297 -23.088  0.00  0.00    +0.004 C 
ATOM      9  C   UNL     1      35.045 -18.756 -23.766  0.00  0.00    +0.066 C 
ATOM     10  C   UNL     1      33.650 -14.420 -24.078  0.00  0.00    +0.019 C 
ATOM     11  C   UNL     1      33.569 -14.876 -25.387  0.00  0.00    +0.100 C 
ATOM     12  H   UNL     1      34.686 -18.724 -25.834  0.00  0.00    +0.154 HD
BRANCH  10  14
ATOM     13 CL   UNL     1      32.137  -8.824 -22.710  0.00  0.00    -0.082 Cl
ATOM     14  C   UNL     1      33.284 -13.062 -23.746  0.00  0.00    +0.002 C 
ATOM     15  C   UNL     1      33.865 -11.995 -24.431  0.00  0.00    +0.001 C 
ATOM     16  C   UNL     1      32.350 -12.819 -22.739  0.00  0.00    +0.001 C 
ATOM     17  C   UNL     1      33.510 -10.684 -24.111  0.00  0.00    +0.011 C 
ATOM     18  C   UNL     1      31.995 -11.509 -22.419  0.00  0.00    +0.011 C 
ATOM     19  C   UNL     1      32.575 -10.441 -23.105  0.00  0.00    +0.058 C 
ENDBRANCH  10  14
ENDBRANCH   2   6
BRANCH   2  22
ATOM     20  F   UNL     1      33.040 -19.485 -20.435  0.00  0.00    -0.203 F 
ATOM     21  F   UNL     1      37.726 -19.166 -21.106  0.00  0.00    -0.204 F 
ATOM     22  C   UNL     1      35.377 -19.296 -20.785  0.00  0.00    +0.095 C 
ATOM     23  C   UNL     1      34.443 -21.257 -19.727  0.00  0.00    +0.092 C 
ATOM     24  C   UNL     1      34.270 -20.005 -20.317  0.00  0.00    +0.160 C 
ATOM     25  C   UNL     1      36.656 -19.839 -20.661  0.00  0.00    +0.145 C 
ATOM     26  C   UNL     1      35.723 -21.800 -19.604  0.00  0.00    +0.020 C 
ATOM     27  C   UNL     1      36.828 -21.091 -20.071  0.00  0.00    +0.031 C 
BRANCH  23  28
ATOM     28  N   UNL     1      33.312 -21.986 -19.248  0.00  0.00    -0.217 N 
ATOM     29  H   UNL     1      32.412 -21.818 -19.611  0.00  0.00    +0.173 HD
BRANCH  28  30
ATOM     30  S   UNL     1      33.566 -23.166 -18.020  0.00  0.00    +0.054 S 
ATOM     31  O   UNL     1      33.564 -24.479 -18.639  0.00  0.00    -0.154 OA
ATOM     32  O   UNL     1      34.644 -22.771 -17.136  0.00  0.00    -0.154 OA
BRANCH  30  33
ATOM     33  C   UNL     1      32.040 -23.017 -17.121  0.00  0.00    +0.172 C 
BRANCH  33  34
ATOM     34  C   UNL     1      32.195 -23.487 -15.684  0.00  0.00    +0.027 C 
ATOM     35  C   UNL     1      31.262 -22.736 -14.749  0.00  0.00    +0.002 C 
ENDBRANCH  33  34
ENDBRANCH  30  33
ENDBRANCH  28  30
ENDBRANCH  23  28
ENDBRANCH   2  22
TORSDOF 7
ENDMDL
MODEL 2
REMARK VINA RESULT:     -12.5      1.090      1.303
REMARK  Name = 42611257
REMARK  7 active torsions:
REMARK  status: ('A' for Active; 'I' for Inactive)
REMARK    1  A    between atoms: C_2  and  C_6
REMARK    2  A    between atoms: C_2  and  C_22
REMARK    3  A    between atoms: C_10  and  C_14
REMARK    4  A    between atoms: C_23  and  N_28
REMARK    5  A    between atoms: N_28  and  S_30
REMARK    6  A    between atoms: S_30  and  C_33
REMARK    7  A    between atoms: C_33  and  C_34
REMARK                            x       y       z     vdW  Elec       q    Type
REMARK                         _______ _______ _______ _____ _____    ______ ____
ROOT
ATOM      1  O   UNL     1      35.316 -16.903 -20.674  0.00  0.00    -0.286 OA
ATOM      2  C   UNL     1      35.170 -17.875 -21.446  0.00  0.00    +0.201 C 
ENDROOT
BRANCH   2   6
ATOM      3  N   UNL     1      34.698 -18.105 -25.015  0.00  0.00    -0.297 N 
ATOM      4  N   UNL     1      33.892 -15.983 -25.820  0.00  0.00    -0.229 NA
ATOM      5  C   UNL     1      34.417 -16.505 -23.483  0.00  0.00    +0.036 C 
ATOM      6  C   UNL     1      34.893 -17.678 -22.840  0.00  0.00    +0.056 C 
ATOM      7  C   UNL     1      34.307 -16.805 -24.838  0.00  0.00    +0.132 C 
ATOM      8  C   UNL     1      34.062 -15.208 -23.077  0.00  0.00    +0.004 C 
ATOM      9  C   UNL     1      35.057 -18.646 -23.807  0.00  0.00    +0.066 C 
ATOM     10  C   UNL     1      33.626 -14.317 -24.055  0.00  0.00    +0.019 C 
ATOM     11  C   UNL     1      33.563 -14.749 -25.373  0.00  0.00    +0.100 C 
ATOM     12  H   UNL     1      34.718 -18.579 -25.878  0.00  0.00    +0.154 HD
BRANCH  10  14
ATOM     13 CL   UNL     1      32.050  -8.760 -22.602  0.00  0.00    -0.082 Cl
ATOM     14  C   UNL     1      33.245 -12.968 -23.702  0.00  0.00    +0.002 C 
ATOM     15  C   UNL     1      33.795 -11.885 -24.388  0.00  0.00    +0.001 C 
ATOM     16  C   UNL     1      32.326 -12.750 -22.676  0.00  0.00    +0.001 C 
ATOM     17  C   UNL     1      33.425 -10.583 -24.048  0.00  0.00    +0.011 C 
ATOM     18  C   UNL     1      31.957 -11.449 -22.335  0.00  0.00    +0.011 C 
ATOM     19  C   UNL     1      32.506 -10.365 -23.021  0.00  0.00    +0.058 C 
ENDBRANCH  10  14
ENDBRANCH   2   6
BRANCH   2  22
ATOM     20  F   UNL     1      32.953 -19.362 -20.530  0.00  0.00    -0.203 F 
ATOM     21  F   UNL     1      37.662 -19.173 -21.085  0.00  0.00    -0.204 F 
ATOM     22  C   UNL     1      35.303 -19.238 -20.821  0.00  0.00    +0.095 C 
ATOM     23  C   UNL     1      34.287 -21.182 -19.808  0.00  0.00    +0.092 C 
ATOM     24  C   UNL     1      34.165 -19.919 -20.389  0.00  0.00    +0.160 C 
ATOM     25  C   UNL     1      36.563 -19.819 -20.673  0.00  0.00    +0.145 C 
ATOM     26  C   UNL     1      35.548 -21.763 -19.661  0.00  0.00    +0.020 C 
ATOM     27  C   UNL     1      36.684 -21.081 -20.093  0.00  0.00    +0.031 C 
BRANCH  23  28
ATOM     28  N   UNL     1      33.125 -21.882 -19.365  0.00  0.00    -0.217 N 
ATOM     29  H   UNL     1      32.239 -21.688 -19.750  0.00  0.00    +0.173 HD
BRANCH  28  30
ATOM     30  S   UNL     1      33.314 -23.078 -18.140  0.00  0.00    +0.054 S 
ATOM     31  O   UNL     1      32.212 -22.953 -17.203  0.00  0.00    -0.154 OA
ATOM     32  O   UNL     1      33.647 -24.364 -18.717  0.00  0.00    -0.154 OA
BRANCH  30  33
ATOM     33  C   UNL     1      34.763 -22.457 -17.316  0.00  0.00    +0.172 C 
BRANCH  33  34
ATOM     34  C   UNL     1      34.977 -23.144 -15.978  0.00  0.00    +0.027 C 
ATOM     35  C   UNL     1      36.431 -23.076 -15.544  0.00  0.00    +0.002 C 
ENDBRANCH  33  34
ENDBRANCH  30  33
ENDBRANCH  28  30
ENDBRANCH  23  28
ENDBRANCH   2  22
TORSDOF 7
ENDMDL
MODEL 3
REMARK VINA RESULT:     -11.9      1.923      2.573
REMARK  Name = 42611257
REMARK  7 active torsions:
REMARK  status: ('A' for Active; 'I' for Inactive)
REMARK    1  A    between atoms: C_2  and  C_6
REMARK    2  A    between atoms: C_2  and  C_22
REMARK    3  A    between atoms: C_10  and  C_14
REMARK    4  A    between atoms: C_23  and  N_28
REMARK    5  A    between atoms: N_28  and  S_30
REMARK    6  A    between atoms: S_30  and  C_33
REMARK    7  A    between atoms: C_33  and  C_34
REMARK                            x       y       z     vdW  Elec       q    Type
REMARK                         _______ _______ _______ _____ _____    ______ ____
ROOT
ATOM      1  O   UNL     1      35.584 -17.515 -20.637  0.00  0.00    -0.286 OA
ATOM      2  C   UNL     1      35.116 -18.452 -21.319  0.00  0.00    +0.201 C 
ENDROOT
BRANCH   2   6
ATOM      3  N   UNL     1      34.702 -18.784 -24.887  0.00  0.00    -0.297 N 
ATOM      4  N   UNL     1      33.959 -16.672 -25.773  0.00  0.00    -0.229 NA
ATOM      5  C   UNL     1      34.431 -17.130 -23.411  0.00  0.00    +0.036 C 
ATOM      6  C   UNL     1      34.868 -18.293 -22.723  0.00  0.00    +0.056 C 
ATOM      7  C   UNL     1      34.338 -17.471 -24.758  0.00  0.00    +0.132 C 
ATOM      8  C   UNL     1      34.098 -15.813 -23.053  0.00  0.00    +0.004 C 
ATOM      9  C   UNL     1      35.027 -19.294 -23.656  0.00  0.00    +0.066 C 
ATOM     10  C   UNL     1      33.700 -14.945 -24.067  0.00  0.00    +0.019 C 
ATOM     11  C   UNL     1      33.651 -15.418 -25.372  0.00  0.00    +0.100 C 
ATOM     12  H   UNL     1      34.727 -19.286 -25.734  0.00  0.00    +0.154 HD
BRANCH  10  14
ATOM     13 CL   UNL     1      32.239  -9.307 -22.816  0.00  0.00    -0.082 Cl
ATOM     14  C   UNL     1      33.344 -13.577 -23.764  0.00  0.00    +0.002 C 
ATOM     15  C   UNL     1      32.427 -13.303 -22.749  0.00  0.00    +0.001 C 
ATOM     16  C   UNL     1      33.919 -12.531 -24.486  0.00  0.00    +0.001 C 
ATOM     17  C   UNL     1      32.085 -11.983 -22.456  0.00  0.00    +0.011 C 
ATOM     18  C   UNL     1      33.577 -11.211 -24.193  0.00  0.00    +0.011 C 
ATOM     19  C   UNL     1      32.661 -10.936 -23.178  0.00  0.00    +0.058 C 
ENDBRANCH  10  14
ENDBRANCH   2   6
BRANCH   2  22
ATOM     20  F   UNL     1      37.132 -19.946 -20.027  0.00  0.00    -0.203 F 
ATOM     21  F   UNL     1      32.523 -19.571 -21.094  0.00  0.00    -0.204 F 
ATOM     22  C   UNL     1      34.836 -19.730 -20.576  0.00  0.00    +0.095 C 
ATOM     23  C   UNL     1      35.621 -21.606 -19.271  0.00  0.00    +0.092 C 
ATOM     24  C   UNL     1      35.879 -20.420 -19.959  0.00  0.00    +0.160 C 
ATOM     25  C   UNL     1      33.534 -20.226 -20.505  0.00  0.00    +0.145 C 
ATOM     26  C   UNL     1      34.318 -22.101 -19.199  0.00  0.00    +0.020 C 
ATOM     27  C   UNL     1      33.275 -21.411 -19.816  0.00  0.00    +0.031 C 
BRANCH  23  28
ATOM     28  N   UNL     1      36.687 -22.314 -18.638  0.00  0.00    -0.217 N 
ATOM     29  H   UNL     1      37.171 -23.030 -19.112  0.00  0.00    +0.173 HD
BRANCH  28  30
ATOM     30  S   UNL     1      37.104 -21.884 -17.024  0.00  0.00    +0.054 S 
ATOM     31  O   UNL     1      38.120 -22.806 -16.551  0.00  0.00    -0.154 OA
ATOM     32  O   UNL     1      37.294 -20.453 -16.902  0.00  0.00    -0.154 OA
BRANCH  30  33
ATOM     33  C   UNL     1      35.593 -22.306 -16.187  0.00  0.00    +0.172 C 
BRANCH  33  34
ATOM     34  C   UNL     1      35.860 -23.164 -14.961  0.00  0.00    +0.027 C 
ATOM     35  C   UNL     1      35.327 -24.575 -15.142  0.00  0.00    +0.002 C 
ENDBRANCH  33  34
ENDBRANCH  30  33
ENDBRANCH  28  30
ENDBRANCH  23  28
ENDBRANCH   2  22
TORSDOF 7
ENDMDL
MODEL 4
REMARK VINA RESULT:     -11.9      3.436      5.937
REMARK  Name = 42611257
REMARK  7 active torsions:
REMARK  status: ('A' for Active; 'I' for Inactive)
REMARK    1  A    between atoms: C_2  and  C_6
REMARK    2  A    between atoms: C_2  and  C_22
REMARK    3  A    between atoms: C_10  and  C_14
REMARK    4  A    between atoms: C_23  and  N_28
REMARK    5  A    between atoms: N_28  and  S_30
REMARK    6  A    between atoms: S_30  and  C_33
REMARK    7  A    between atoms: C_33  and  C_34
REMARK                            x       y       z     vdW  Elec       q    Type
REMARK                         _______ _______ _______ _____ _____    ______ ____
ROOT
ATOM      1  O   UNL     1      33.821 -13.092 -25.255  0.00  0.00    -0.286 OA
ATOM      2  C   UNL     1      33.548 -13.848 -24.297  0.00  0.00    +0.201 C 
ENDROOT
BRANCH   2   6
ATOM      3  N   UNL     1      31.910 -13.321 -21.127  0.00  0.00    -0.297 N 
ATOM      4  N   UNL     1      31.407 -10.976 -20.903  0.00  0.00    -0.229 NA
ATOM      5  C   UNL     1      32.521 -12.009 -22.828  0.00  0.00    +0.036 C 
ATOM      6  C   UNL     1      32.891 -13.347 -23.124  0.00  0.00    +0.056 C 
ATOM      7  C   UNL     1      31.912 -12.027 -21.576  0.00  0.00    +0.132 C 
ATOM      8  C   UNL     1      32.629 -10.768 -23.476  0.00  0.00    +0.004 C 
ATOM      9  C   UNL     1      32.502 -14.132 -22.060  0.00  0.00    +0.066 C 
ATOM     10  C   UNL     1      32.121  -9.647 -22.823  0.00  0.00    +0.019 C 
ATOM     11  C   UNL     1      31.538  -9.808 -21.573  0.00  0.00    +0.100 C 
ATOM     12  H   UNL     1      31.540 -13.622 -20.265  0.00  0.00    +0.154 HD
BRANCH  10  14
ATOM     13 CL   UNL     1      32.451  -4.266 -25.357  0.00  0.00    -0.082 Cl
ATOM     14  C   UNL     1      32.202  -8.341 -23.436  0.00  0.00    +0.002 C 
ATOM     15  C   UNL     1      33.445  -7.796 -23.758  0.00  0.00    +0.001 C 
ATOM     16  C   UNL     1      31.036  -7.625 -23.708  0.00  0.00    +0.001 C 
ATOM     17  C   UNL     1      33.522  -6.536 -24.352  0.00  0.00    +0.011 C 
ATOM     18  C   UNL     1      31.113  -6.365 -24.301  0.00  0.00    +0.011 C 
ATOM     19  C   UNL     1      32.356  -5.820 -24.624  0.00  0.00    +0.058 C 
ENDBRANCH  10  14
ENDBRANCH   2   6
BRANCH   2  22
ATOM     20  F   UNL     1      35.339 -15.145 -22.544  0.00  0.00    -0.203 F 
ATOM     21  F   UNL     1      32.579 -15.495 -26.388  0.00  0.00    -0.204 F 
ATOM     22  C   UNL     1      33.951 -15.288 -24.461  0.00  0.00    +0.095 C 
ATOM     23  C   UNL     1      35.217 -17.204 -23.709  0.00  0.00    +0.092 C 
ATOM     24  C   UNL     1      34.842 -15.869 -23.558  0.00  0.00    +0.160 C 
ATOM     25  C   UNL     1      33.436 -16.042 -25.515  0.00  0.00    +0.145 C 
ATOM     26  C   UNL     1      34.700 -17.958 -24.764  0.00  0.00    +0.020 C 
ATOM     27  C   UNL     1      33.810 -17.377 -25.666  0.00  0.00    +0.031 C 
BRANCH  23  28
ATOM     28  N   UNL     1      36.128 -17.802 -22.787  0.00  0.00    -0.217 N 
ATOM     29  H   UNL     1      37.084 -17.895 -23.008  0.00  0.00    +0.173 HD
BRANCH  28  30
ATOM     30  S   UNL     1      35.511 -18.354 -21.277  0.00  0.00    +0.054 S 
ATOM     31  O   UNL     1      36.530 -19.165 -20.634  0.00  0.00    -0.154 OA
ATOM     32  O   UNL     1      34.864 -17.277 -20.557  0.00  0.00    -0.154 OA
BRANCH  30  33
ATOM     33  C   UNL     1      34.247 -19.469 -21.844  0.00  0.00    +0.172 C 
BRANCH  33  34
ATOM     34  C   UNL     1      33.176 -19.676 -20.786  0.00  0.00    +0.027 C 
ATOM     35  C   UNL     1      33.452 -20.914 -19.950  0.00  0.00    +0.002 C 
ENDBRANCH  33  34
ENDBRANCH  30  33
ENDBRANCH  28  30
ENDBRANCH  23  28
ENDBRANCH   2  22
TORSDOF 7
ENDMDL
MODEL 5
REMARK VINA RESULT:     -11.7      4.962      8.276
REMARK  Name = 42611257
REMARK  7 active torsions:
REMARK  status: ('A' for Active; 'I' for Inactive)
REMARK    1  A    between atoms: C_2  and  C_6
REMARK    2  A    between atoms: C_2  and  C_22
REMARK    3  A    between atoms: C_10  and  C_14
REMARK    4  A    between atoms: C_23  and  N_28
REMARK    5  A    between atoms: N_28  and  S_30
REMARK    6  A    between atoms: S_30  and  C_33
REMARK    7  A    between atoms: C_33  and  C_34
REMARK                            x       y       z     vdW  Elec       q    Type
REMARK                         _______ _______ _______ _____ _____    ______ ____
ROOT
ATOM      1  O   UNL     1      30.084 -11.543 -22.033  0.00  0.00    -0.286 OA
ATOM      2  C   UNL     1      31.300 -11.370 -21.802  0.00  0.00    +0.201 C 
ENDROOT
BRANCH   2   6
ATOM      3  N   UNL     1      32.430  -9.395 -19.003  0.00  0.00    -0.297 N 
ATOM      4  N   UNL     1      32.690  -7.113 -19.728  0.00  0.00    -0.229 NA
ATOM      5  C   UNL     1      31.948  -8.974 -21.142  0.00  0.00    +0.036 C 
ATOM      6  C   UNL     1      31.742 -10.356 -20.888  0.00  0.00    +0.056 C 
ATOM      7  C   UNL     1      32.377  -8.404 -19.947  0.00  0.00    +0.132 C 
ATOM      8  C   UNL     1      31.822  -8.125 -22.254  0.00  0.00    +0.004 C 
ATOM      9  C   UNL     1      32.046 -10.586 -19.564  0.00  0.00    +0.066 C 
ATOM     10  C   UNL     1      32.134  -6.778 -22.082  0.00  0.00    +0.019 C 
ATOM     11  C   UNL     1      32.551  -6.343 -20.831  0.00  0.00    +0.100 C 
ATOM     12  H   UNL     1      32.703  -9.271 -18.065  0.00  0.00    +0.154 HD
BRANCH  10  14
ATOM     13 CL   UNL     1      31.695  -2.965 -26.637  0.00  0.00    -0.082 Cl
ATOM     14  C   UNL     1      32.025  -5.853 -23.187  0.00  0.00    +0.002 C 
ATOM     15  C   UNL     1      31.306  -4.667 -23.038  0.00  0.00    +0.001 C 
ATOM     16  C   UNL     1      32.643  -6.146 -24.404  0.00  0.00    +0.001 C 
ATOM     17  C   UNL     1      31.204  -3.774 -24.105  0.00  0.00    +0.011 C 
ATOM     18  C   UNL     1      32.540  -5.253 -25.470  0.00  0.00    +0.011 C 
ATOM     19  C   UNL     1      31.821  -4.067 -25.321  0.00  0.00    +0.058 C 
ENDBRANCH  10  14
ENDBRANCH   2   6
BRANCH   2  22
ATOM     20  F   UNL     1      31.588 -14.106 -21.175  0.00  0.00    -0.203 F 
ATOM     21  F   UNL     1      32.946 -10.493 -23.934  0.00  0.00    -0.204 F 
ATOM     22  C   UNL     1      32.245 -12.281 -22.537  0.00  0.00    +0.095 C 
ATOM     23  C   UNL     1      33.216 -14.470 -22.856  0.00  0.00    +0.092 C 
ATOM     24  C   UNL     1      32.339 -13.625 -22.176  0.00  0.00    +0.160 C 
ATOM     25  C   UNL     1      33.028 -11.782 -23.578  0.00  0.00    +0.145 C 
ATOM     26  C   UNL     1      33.999 -13.971 -23.898  0.00  0.00    +0.020 C 
ATOM     27  C   UNL     1      33.904 -12.628 -24.259  0.00  0.00    +0.031 C 
BRANCH  23  28
ATOM     28  N   UNL     1      33.314 -15.847 -22.489  0.00  0.00    -0.217 N 
ATOM     29  H   UNL     1      32.594 -16.481 -22.709  0.00  0.00    +0.173 HD
BRANCH  28  30
ATOM     30  S   UNL     1      34.727 -16.366 -21.652  0.00  0.00    +0.054 S 
ATOM     31  O   UNL     1      35.782 -16.584 -22.625  0.00  0.00    -0.154 OA
ATOM     32  O   UNL     1      34.964 -15.550 -20.479  0.00  0.00    -0.154 OA
BRANCH  30  33
ATOM     33  C   UNL     1      34.194 -17.971 -21.102  0.00  0.00    +0.172 C 
BRANCH  33  34
ATOM     34  C   UNL     1      35.065 -19.073 -21.681  0.00  0.00    +0.027 C 
ATOM     35  C   UNL     1      35.298 -20.186 -20.674  0.00  0.00    +0.002 C 
ENDBRANCH  33  34
ENDBRANCH  30  33
ENDBRANCH  28  30
ENDBRANCH  23  28
ENDBRANCH   2  22
TORSDOF 7
ENDMDL
MODEL 6
REMARK VINA RESULT:     -11.6      5.110     10.248
REMARK  Name = 42611257
REMARK  7 active torsions:
REMARK  status: ('A' for Active; 'I' for Inactive)
REMARK    1  A    between atoms: C_2  and  C_6
REMARK    2  A    between atoms: C_2  and  C_22
REMARK    3  A    between atoms: C_10  and  C_14
REMARK    4  A    between atoms: C_23  and  N_28
REMARK    5  A    between atoms: N_28  and  S_30
REMARK    6  A    between atoms: S_30  and  C_33
REMARK    7  A    between atoms: C_33  and  C_34
REMARK                            x       y       z     vdW  Elec       q    Type
REMARK                         _______ _______ _______ _____ _____    ______ ____
ROOT
ATOM      1  O   UNL     1      35.252 -14.442 -20.834  0.00  0.00    -0.286 OA
ATOM      2  C   UNL     1      34.395 -14.510 -21.741  0.00  0.00    +0.201 C 
ENDROOT
BRANCH   2   6
ATOM      3  N   UNL     1      34.634 -16.422 -24.790  0.00  0.00    -0.297 N 
ATOM      4  N   UNL     1      34.631 -18.765 -24.229  0.00  0.00    -0.229 NA
ATOM      5  C   UNL     1      34.492 -16.922 -22.618  0.00  0.00    +0.036 C 
ATOM      6  C   UNL     1      34.481 -15.510 -22.767  0.00  0.00    +0.056 C 
ATOM      7  C   UNL     1      34.588 -17.460 -23.898  0.00  0.00    +0.132 C 
ATOM      8  C   UNL     1      34.431 -17.821 -21.541  0.00  0.00    +0.004 C 
ATOM      9  C   UNL     1      34.569 -15.232 -24.114  0.00  0.00    +0.066 C 
ATOM     10  C   UNL     1      34.471 -19.184 -21.829  0.00  0.00    +0.019 C 
ATOM     11  C   UNL     1      34.569 -19.584 -23.155  0.00  0.00    +0.100 C 
ATOM     12  H   UNL     1      34.703 -16.517 -25.768  0.00  0.00    +0.154 HD
BRANCH  10  14
ATOM     13 CL   UNL     1      34.229 -23.205 -17.441  0.00  0.00    -0.082 Cl
ATOM     14  C   UNL     1      34.413 -20.161 -20.765  0.00  0.00    +0.002 C 
ATOM     15  C   UNL     1      35.590 -20.705 -20.252  0.00  0.00    +0.001 C 
ATOM     16  C   UNL     1      33.178 -20.558 -20.251  0.00  0.00    +0.001 C 
ATOM     17  C   UNL     1      35.533 -21.646 -19.224  0.00  0.00    +0.011 C 
ATOM     18  C   UNL     1      33.121 -21.499 -19.224  0.00  0.00    +0.011 C 
ATOM     19  C   UNL     1      34.299 -22.044 -18.710  0.00  0.00    +0.058 C 
ENDBRANCH  10  14
ENDBRANCH   2   6
BRANCH   2  22
ATOM     20  F   UNL     1      34.170 -12.387 -23.587  0.00  0.00    -0.203 F 
ATOM     21  F   UNL     1      32.362 -14.547 -19.768  0.00  0.00    -0.204 F 
ATOM     22  C   UNL     1      33.291 -13.489 -21.681  0.00  0.00    +0.095 C 
ATOM     23  C   UNL     1      32.216 -11.516 -22.570  0.00  0.00    +0.092 C 
ATOM     24  C   UNL     1      33.238 -12.464 -22.625  0.00  0.00    +0.160 C 
ATOM     25  C   UNL     1      32.321 -13.567 -20.681  0.00  0.00    +0.145 C 
ATOM     26  C   UNL     1      31.246 -11.595 -21.570  0.00  0.00    +0.020 C 
ATOM     27  C   UNL     1      31.299 -12.620 -20.626  0.00  0.00    +0.031 C 
BRANCH  23  28
ATOM     28  N   UNL     1      32.159 -10.466 -23.535  0.00  0.00    -0.217 N 
ATOM     29  H   UNL     1      31.865 -10.643 -24.458  0.00  0.00    +0.173 HD
BRANCH  28  30
ATOM     30  S   UNL     1      32.618  -8.882 -23.040  0.00  0.00    +0.054 S 
ATOM     31  O   UNL     1      31.838  -7.920 -23.800  0.00  0.00    -0.154 OA
ATOM     32  O   UNL     1      32.694  -8.791 -21.597  0.00  0.00    -0.154 OA
BRANCH  30  33
ATOM     33  C   UNL     1      34.276  -8.821 -23.680  0.00  0.00    +0.172 C 
BRANCH  33  34
ATOM     34  C   UNL     1      34.839  -7.410 -23.627  0.00  0.00    +0.027 C 
ATOM     35  C   UNL     1      34.569  -6.655 -24.916  0.00  0.00    +0.002 C 
ENDBRANCH  33  34
ENDBRANCH  30  33
ENDBRANCH  28  30
ENDBRANCH  23  28
ENDBRANCH   2  22
TORSDOF 7
ENDMDL
MODEL 7
REMARK VINA RESULT:     -11.5      5.643     10.516
REMARK  Name = 42611257
REMARK  7 active torsions:
REMARK  status: ('A' for Active; 'I' for Inactive)
REMARK    1  A    between atoms: C_2  and  C_6
REMARK    2  A    between atoms: C_2  and  C_22
REMARK    3  A    between atoms: C_10  and  C_14
REMARK    4  A    between atoms: C_23  and  N_28
REMARK    5  A    between atoms: N_28  and  S_30
REMARK    6  A    between atoms: S_30  and  C_33
REMARK    7  A    between atoms: C_33  and  C_34
REMARK                            x       y       z     vdW  Elec       q    Type
REMARK                         _______ _______ _______ _____ _____    ______ ____
ROOT
ATOM      1  O   UNL     1      32.375 -13.683 -22.039  0.00  0.00    -0.286 OA
ATOM      2  C   UNL     1      32.815 -13.296 -23.143  0.00  0.00    +0.201 C 
ENDROOT
BRANCH   2   6
ATOM      3  N   UNL     1      33.312 -15.102 -26.226  0.00  0.00    -0.297 N 
ATOM      4  N   UNL     1      34.266 -17.252 -25.711  0.00  0.00    -0.229 NA
ATOM      5  C   UNL     1      33.681 -15.531 -24.066  0.00  0.00    +0.036 C 
ATOM      6  C   UNL     1      33.121 -14.231 -24.187  0.00  0.00    +0.056 C 
ATOM      7  C   UNL     1      33.787 -16.045 -25.355  0.00  0.00    +0.132 C 
ATOM      8  C   UNL     1      34.116 -16.344 -23.007  0.00  0.00    +0.004 C 
ATOM      9  C   UNL     1      32.905 -13.995 -25.528  0.00  0.00    +0.066 C 
ATOM     10  C   UNL     1      34.621 -17.604 -23.320  0.00  0.00    +0.019 C 
ATOM     11  C   UNL     1      34.671 -17.992 -24.653  0.00  0.00    +0.100 C 
ATOM     12  H   UNL     1      33.271 -15.202 -27.205  0.00  0.00    +0.154 HD
BRANCH  10  14
ATOM     13 CL   UNL     1      36.543 -21.253 -19.023  0.00  0.00    -0.082 Cl
ATOM     14  C   UNL     1      35.086 -18.489 -22.277  0.00  0.00    +0.002 C 
ATOM     15  C   UNL     1      34.199 -19.373 -21.663  0.00  0.00    +0.001 C 
ATOM     16  C   UNL     1      36.425 -18.459 -21.883  0.00  0.00    +0.001 C 
ATOM     17  C   UNL     1      34.649 -20.228 -20.657  0.00  0.00    +0.011 C 
ATOM     18  C   UNL     1      36.875 -19.313 -20.877  0.00  0.00    +0.011 C 
ATOM     19  C   UNL     1      35.988 -20.198 -20.264  0.00  0.00    +0.058 C 
ENDBRANCH  10  14
ENDBRANCH   2   6
BRANCH   2  22
ATOM     20  F   UNL     1      31.272 -11.411 -21.718  0.00  0.00    -0.203 F 
ATOM     21  F   UNL     1      34.734 -12.143 -24.880  0.00  0.00    -0.204 F 
ATOM     22  C   UNL     1      32.998 -11.810 -23.294  0.00  0.00    +0.095 C 
ATOM     23  C   UNL     1      32.368  -9.554 -22.698  0.00  0.00    +0.092 C 
ATOM     24  C   UNL     1      32.200 -10.932 -22.559  0.00  0.00    +0.160 C 
ATOM     25  C   UNL     1      33.962 -11.309 -24.168  0.00  0.00    +0.145 C 
ATOM     26  C   UNL     1      33.334  -9.054 -23.573  0.00  0.00    +0.020 C 
ATOM     27  C   UNL     1      34.130  -9.932 -24.307  0.00  0.00    +0.031 C 
BRANCH  23  28
ATOM     28  N   UNL     1      31.554  -8.653 -21.947  0.00  0.00    -0.217 N 
ATOM     29  H   UNL     1      30.582  -8.603 -22.099  0.00  0.00    +0.173 HD
BRANCH  28  30
ATOM     30  S   UNL     1      32.318  -7.658 -20.768  0.00  0.00    +0.054 S 
ATOM     31  O   UNL     1      31.842  -8.054 -19.455  0.00  0.00    -0.154 OA
ATOM     32  O   UNL     1      33.738  -7.539 -21.031  0.00  0.00    -0.154 OA
BRANCH  30  33
ATOM     33  C   UNL     1      31.561  -6.093 -21.141  0.00  0.00    +0.172 C 
BRANCH  33  34
ATOM     34  C   UNL     1      30.883  -6.115 -22.500  0.00  0.00    +0.027 C 
ATOM     35  C   UNL     1      31.731  -5.429 -23.557  0.00  0.00    +0.002 C 
ENDBRANCH  33  34
ENDBRANCH  30  33
ENDBRANCH  28  30
ENDBRANCH  23  28
ENDBRANCH   2  22
TORSDOF 7
ENDMDL
MODEL 8
REMARK VINA RESULT:     -11.5      5.636     10.733
REMARK  Name = 42611257
REMARK  7 active torsions:
REMARK  status: ('A' for Active; 'I' for Inactive)
REMARK    1  A    between atoms: C_2  and  C_6
REMARK    2  A    between atoms: C_2  and  C_22
REMARK    3  A    between atoms: C_10  and  C_14
REMARK    4  A    between atoms: C_23  and  N_28
REMARK    5  A    between atoms: N_28  and  S_30
REMARK    6  A    between atoms: S_30  and  C_33
REMARK    7  A    between atoms: C_33  and  C_34
REMARK                            x       y       z     vdW  Elec       q    Type
REMARK                         _______ _______ _______ _____ _____    ______ ____
ROOT
ATOM      1  O   UNL     1      34.684 -13.343 -21.909  0.00  0.00    -0.286 OA
ATOM      2  C   UNL     1      33.859 -13.265 -22.845  0.00  0.00    +0.201 C 
ENDROOT
BRANCH   2   6
ATOM      3  N   UNL     1      33.480 -15.223 -25.851  0.00  0.00    -0.297 N 
ATOM      4  N   UNL     1      34.047 -17.510 -25.353  0.00  0.00    -0.229 NA
ATOM      5  C   UNL     1      34.094 -15.657 -23.748  0.00  0.00    +0.036 C 
ATOM      6  C   UNL     1      33.797 -14.273 -23.864  0.00  0.00    +0.056 C 
ATOM      7  C   UNL     1      33.886 -16.220 -25.004  0.00  0.00    +0.132 C 
ATOM      8  C   UNL     1      34.518 -16.513 -22.718  0.00  0.00    +0.004 C 
ATOM      9  C   UNL     1      33.422 -14.035 -25.168  0.00  0.00    +0.066 C 
ATOM     10  C   UNL     1      34.700 -17.860 -23.026  0.00  0.00    +0.019 C 
ATOM     11  C   UNL     1      34.456 -18.288 -24.325  0.00  0.00    +0.100 C 
ATOM     12  H   UNL     1      33.263 -15.341 -26.804  0.00  0.00    +0.154 HD
BRANCH  10  14
ATOM     13 CL   UNL     1      36.503 -21.704 -18.849  0.00  0.00    -0.082 Cl
ATOM     14  C   UNL     1      35.136 -18.792 -22.012  0.00  0.00    +0.002 C 
ATOM     15  C   UNL     1      34.233 -19.704 -21.466  0.00  0.00    +0.001 C 
ATOM     16  C   UNL     1      36.463 -18.780 -21.579  0.00  0.00    +0.001 C 
ATOM     17  C   UNL     1      34.656 -20.605 -20.488  0.00  0.00    +0.011 C 
ATOM     18  C   UNL     1      36.885 -19.680 -20.601  0.00  0.00    +0.011 C 
ATOM     19  C   UNL     1      35.982 -20.593 -20.055  0.00  0.00    +0.058 C 
ENDBRANCH  10  14
ENDBRANCH   2   6
BRANCH   2  22
ATOM     20  F   UNL     1      34.424 -10.903 -24.284  0.00  0.00    -0.203 F 
ATOM     21  F   UNL     1      31.445 -13.168 -21.366  0.00  0.00    -0.204 F 
ATOM     22  C   UNL     1      32.955 -12.061 -22.827  0.00  0.00    +0.095 C 
ATOM     23  C   UNL     1      32.458  -9.808 -23.544  0.00  0.00    +0.092 C 
ATOM     24  C   UNL     1      33.294 -10.925 -23.561  0.00  0.00    +0.160 C 
ATOM     25  C   UNL     1      31.780 -12.081 -22.075  0.00  0.00    +0.145 C 
ATOM     26  C   UNL     1      31.282  -9.829 -22.792  0.00  0.00    +0.020 C 
ATOM     27  C   UNL     1      30.944 -10.966 -22.059  0.00  0.00    +0.031 C 
BRANCH  23  28
ATOM     28  N   UNL     1      32.802  -8.643 -24.294  0.00  0.00    -0.217 N 
ATOM     29  H   UNL     1      32.591  -8.580 -25.254  0.00  0.00    +0.173 HD
BRANCH  28  30
ATOM     30  S   UNL     1      33.594  -7.353 -23.475  0.00  0.00    +0.054 S 
ATOM     31  O   UNL     1      33.863  -7.772 -22.111  0.00  0.00    -0.154 OA
ATOM     32  O   UNL     1      34.648  -6.788 -24.293  0.00  0.00    -0.154 OA
BRANCH  30  33
ATOM     33  C   UNL     1      32.269  -6.169 -23.398  0.00  0.00    +0.172 C 
BRANCH  33  34
ATOM     34  C   UNL     1      31.886  -5.859 -21.961  0.00  0.00    +0.027 C 
ATOM     35  C   UNL     1      30.481  -5.287 -21.870  0.00  0.00    +0.002 C 
ENDBRANCH  33  34
ENDBRANCH  30  33
ENDBRANCH  28  30
ENDBRANCH  23  28
ENDBRANCH   2  22
TORSDOF 7
ENDMDL
MODEL 9
REMARK VINA RESULT:     -11.4      5.334     10.568
REMARK  Name = 42611257
REMARK  7 active torsions:
REMARK  status: ('A' for Active; 'I' for Inactive)
REMARK    1  A    between atoms: C_2  and  C_6
REMARK    2  A    between atoms: C_2  and  C_22
REMARK    3  A    between atoms: C_10  and  C_14
REMARK    4  A    between atoms: C_23  and  N_28
REMARK    5  A    between atoms: N_28  and  S_30
REMARK    6  A    between atoms: S_30  and  C_33
REMARK    7  A    between atoms: C_33  and  C_34
REMARK                            x       y       z     vdW  Elec       q    Type
REMARK                         _______ _______ _______ _____ _____    ______ ____
ROOT
ATOM      1  O   UNL     1      35.042 -13.868 -21.639  0.00  0.00    -0.286 OA
ATOM      2  C   UNL     1      34.156 -13.881 -22.520  0.00  0.00    +0.201 C 
ENDROOT
BRANCH   2   6
ATOM      3  N   UNL     1      33.922 -15.900 -25.501  0.00  0.00    -0.297 N 
ATOM      4  N   UNL     1      34.266 -18.206 -24.895  0.00  0.00    -0.229 NA
ATOM      5  C   UNL     1      34.296 -16.312 -23.338  0.00  0.00    +0.036 C 
ATOM      6  C   UNL     1      34.117 -14.915 -23.516  0.00  0.00    +0.056 C 
ATOM      7  C   UNL     1      34.169 -16.897 -24.595  0.00  0.00    +0.132 C 
ATOM      8  C   UNL     1      34.554 -17.164 -22.251  0.00  0.00    +0.004 C 
ATOM      9  C   UNL     1      33.888 -14.691 -24.856  0.00  0.00    +0.066 C 
ATOM     10  C   UNL     1      34.663 -18.529 -22.508  0.00  0.00    +0.019 C 
ATOM     11  C   UNL     1      34.514 -18.978 -23.813  0.00  0.00    +0.100 C 
ATOM     12  H   UNL     1      33.790 -16.032 -26.468  0.00  0.00    +0.154 HD
BRANCH  10  14
ATOM     13 CL   UNL     1      35.754 -22.355 -18.074  0.00  0.00    -0.082 Cl
ATOM     14  C   UNL     1      34.929 -19.458 -21.433  0.00  0.00    +0.002 C 
ATOM     15  C   UNL     1      36.237 -19.664 -20.995  0.00  0.00    +0.001 C 
ATOM     16  C   UNL     1      33.876 -20.148 -20.833  0.00  0.00    +0.001 C 
ATOM     17  C   UNL     1      36.492 -20.560 -19.956  0.00  0.00    +0.011 C 
ATOM     18  C   UNL     1      34.131 -21.044 -19.795  0.00  0.00    +0.011 C 
ATOM     19  C   UNL     1      35.439 -21.250 -19.356  0.00  0.00    +0.058 C 
ENDBRANCH  10  14
ENDBRANCH   2   6
BRANCH   2  22
ATOM     20  F   UNL     1      34.446 -11.495 -23.998  0.00  0.00    -0.203 F 
ATOM     21  F   UNL     1      31.818 -13.976 -20.924  0.00  0.00    -0.204 F 
ATOM     22  C   UNL     1      33.155 -12.759 -22.464  0.00  0.00    +0.095 C 
ATOM     23  C   UNL     1      32.433 -10.563 -23.168  0.00  0.00    +0.092 C 
ATOM     24  C   UNL     1      33.359 -11.605 -23.220  0.00  0.00    +0.160 C 
ATOM     25  C   UNL     1      32.024 -12.872 -21.655  0.00  0.00    +0.145 C 
ATOM     26  C   UNL     1      31.301 -10.677 -22.359  0.00  0.00    +0.020 C 
ATOM     27  C   UNL     1      31.097 -11.831 -21.603  0.00  0.00    +0.031 C 
BRANCH  23  28
ATOM     28  N   UNL     1      32.638  -9.381 -23.941  0.00  0.00    -0.217 N 
ATOM     29  H   UNL     1      32.196  -9.264 -24.813  0.00  0.00    +0.173 HD
BRANCH  28  30
ATOM     30  S   UNL     1      33.680  -8.166 -23.306  0.00  0.00    +0.054 S 
ATOM     31  O   UNL     1      33.306  -7.916 -21.926  0.00  0.00    -0.154 OA
ATOM     32  O   UNL     1      35.060  -8.430 -23.659  0.00  0.00    -0.154 OA
BRANCH  30  33
ATOM     33  C   UNL     1      33.135  -6.761 -24.250  0.00  0.00    +0.172 C 
BRANCH  33  34
ATOM     34  C   UNL     1      31.977  -6.051 -23.568  0.00  0.00    +0.027 C 
ATOM     35  C   UNL     1      31.370  -4.986 -24.466  0.00  0.00    +0.002 C 
ENDBRANCH  33  34
ENDBRANCH  30  33
ENDBRANCH  28  30
ENDBRANCH  23  28
ENDBRANCH   2  22
TORSDOF 7
ENDMDL
