MODEL 1
REMARK VINA RESULT:      -4.4      0.000      0.000
REMARK  Name = 45266695
REMARK  5 active torsions:
REMARK  status: ('A' for Active; 'I' for Inactive)
REMARK    1  A    between atoms: C_1  and  N_2
REMARK    2  A    between atoms: C_1  and  C_8
REMARK    3  A    between atoms: C_1  and  C_9
REMARK    4  A    between atoms: C_9  and  S_10
REMARK    5  A    between atoms: S_10  and  S_11
REMARK                            x       y       z     vdW  Elec       q    Type
REMARK                         _______ _______ _______ _____ _____    ______ ____
ROOT
ATOM      1  C   UNK     1      38.757 -25.471 -14.503  0.00  0.00    +0.052 C 
ENDROOT
BRANCH   1   2
ATOM      2  N   UNK     1      38.214 -26.864 -14.403  0.00  0.00    +0.389 N 
ATOM      3  H   UNK     1      37.194 -26.833 -14.402  0.00  0.00    -0.088 HD
ATOM      4  H   UNK     1      38.540 -27.295 -13.539  0.00  0.00    -0.088 HD
ATOM      5  H   UNK     1      38.536 -27.414 -15.200  0.00  0.00    -0.088 HD
ENDBRANCH   1   2
BRANCH   1   8
ATOM      6  O   UNK     1      40.588 -26.124 -15.861  0.00  0.00    -0.248 OA
ATOM      7  O   UNK     1      40.956 -24.627 -14.178  0.00  0.00    -0.248 OA
ATOM      8  C   UNK     1      40.244 -25.392 -14.889  0.00  0.00    +0.346 C 
ENDBRANCH   1   8
BRANCH   1   9
ATOM      9  C   UNK     1      38.347 -24.737 -13.223  0.00  0.00    +0.058 C 
BRANCH   9  10
ATOM     10  S   UNK     1      37.021 -23.513 -13.479  0.00  0.00    -0.088 S 
BRANCH  10  11
ATOM     11  S   UNK     1      37.236 -23.108 -15.477  0.00  0.00    -0.110 S 
ATOM     12  H   UNK     1      36.017 -23.131 -16.079  0.00  0.00    +0.114 HD
ENDBRANCH  10  11
ENDBRANCH   9  10
ENDBRANCH   1   9
TORSDOF 5
ENDMDL
MODEL 2
REMARK VINA RESULT:      -4.4      1.408      1.848
REMARK  Name = 45266695
REMARK  5 active torsions:
REMARK  status: ('A' for Active; 'I' for Inactive)
REMARK    1  A    between atoms: C_1  and  N_2
REMARK    2  A    between atoms: C_1  and  C_8
REMARK    3  A    between atoms: C_1  and  C_9
REMARK    4  A    between atoms: C_9  and  S_10
REMARK    5  A    between atoms: S_10  and  S_11
REMARK                            x       y       z     vdW  Elec       q    Type
REMARK                         _______ _______ _______ _____ _____    ______ ____
ROOT
ATOM      1  C   UNK     1      38.739 -25.207 -14.504  0.00  0.00    +0.052 C 
ENDROOT
BRANCH   1   2
ATOM      2  N   UNK     1      37.813 -26.012 -15.364  0.00  0.00    +0.389 N 
ATOM      3  H   UNK     1      37.192 -26.564 -14.771  0.00  0.00    -0.088 HD
ATOM      4  H   UNK     1      38.358 -26.637 -15.958  0.00  0.00    -0.088 HD
ATOM      5  H   UNK     1      37.258 -25.386 -15.947  0.00  0.00    -0.088 HD
ENDBRANCH   1   2
BRANCH   1   8
ATOM      6  O   UNK     1      41.013 -24.607 -14.200  0.00  0.00    -0.248 OA
ATOM      7  O   UNK     1      40.485 -26.075 -15.865  0.00  0.00    -0.248 OA
ATOM      8  C   UNK     1      40.225 -25.315 -14.890  0.00  0.00    +0.346 C 
ENDBRANCH   1   8
BRANCH   1   9
ATOM      9  C   UNK     1      38.390 -25.527 -13.048  0.00  0.00    +0.058 C 
BRANCH   9  10
ATOM     10  S   UNK     1      37.985 -24.052 -12.056  0.00  0.00    -0.088 S 
BRANCH  10  11
ATOM     11  S   UNK     1      35.989 -23.832 -12.471  0.00  0.00    -0.110 S 
ATOM     12  H   UNK     1      35.430 -22.981 -11.571  0.00  0.00    +0.114 HD
ENDBRANCH  10  11
ENDBRANCH   9  10
ENDBRANCH   1   9
TORSDOF 5
ENDMDL
MODEL 3
REMARK VINA RESULT:      -4.4      4.342      4.892
REMARK  Name = 45266695
REMARK  5 active torsions:
REMARK  status: ('A' for Active; 'I' for Inactive)
REMARK    1  A    between atoms: C_1  and  N_2
REMARK    2  A    between atoms: C_1  and  C_8
REMARK    3  A    between atoms: C_1  and  C_9
REMARK    4  A    between atoms: C_9  and  S_10
REMARK    5  A    between atoms: S_10  and  S_11
REMARK                            x       y       z     vdW  Elec       q    Type
REMARK                         _______ _______ _______ _____ _____    ______ ____
ROOT
ATOM      1  C   UNK     1      36.811 -23.465 -11.932  0.00  0.00    +0.052 C 
ENDROOT
BRANCH   1   2
ATOM      2  N   UNK     1      38.268 -23.721 -11.691  0.00  0.00    +0.389 N 
ATOM      3  H   UNK     1      38.471 -23.620 -10.697  0.00  0.00    -0.088 HD
ATOM      4  H   UNK     1      38.823 -23.048 -12.219  0.00  0.00    -0.088 HD
ATOM      5  H   UNK     1      38.503 -24.666 -11.992  0.00  0.00    -0.088 HD
ENDBRANCH   1   2
BRANCH   1   8
ATOM      6  O   UNK     1      36.138 -24.155  -9.766  0.00  0.00    -0.248 OA
ATOM      7  O   UNK     1      34.941 -24.888 -11.565  0.00  0.00    -0.248 OA
ATOM      8  C   UNK     1      35.865 -24.239 -10.998  0.00  0.00    +0.346 C 
ENDBRANCH   1   8
BRANCH   1   9
ATOM      9  C   UNK     1      36.569 -23.633 -13.435  0.00  0.00    +0.058 C 
BRANCH   9  10
ATOM     10  S   UNK     1      37.902 -24.535 -14.290  0.00  0.00    -0.088 S 
BRANCH  10  11
ATOM     11  S   UNK     1      37.285 -26.475 -14.051  0.00  0.00    -0.110 S 
ATOM     12  H   UNK     1      36.383 -26.542 -13.037  0.00  0.00    +0.114 HD
ENDBRANCH  10  11
ENDBRANCH   9  10
ENDBRANCH   1   9
TORSDOF 5
ENDMDL
MODEL 4
REMARK VINA RESULT:      -4.2      2.491      3.046
REMARK  Name = 45266695
REMARK  5 active torsions:
REMARK  status: ('A' for Active; 'I' for Inactive)
REMARK    1  A    between atoms: C_1  and  N_2
REMARK    2  A    between atoms: C_1  and  C_8
REMARK    3  A    between atoms: C_1  and  C_9
REMARK    4  A    between atoms: C_9  and  S_10
REMARK    5  A    between atoms: S_10  and  S_11
REMARK                            x       y       z     vdW  Elec       q    Type
REMARK                         _______ _______ _______ _____ _____    ______ ____
ROOT
ATOM      1  C   UNK     1      36.658 -25.394 -14.631  0.00  0.00    +0.052 C 
ENDROOT
BRANCH   1   2
ATOM      2  N   UNK     1      36.074 -25.490 -13.254  0.00  0.00    +0.389 N 
ATOM      3  H   UNK     1      35.056 -25.486 -13.316  0.00  0.00    -0.088 HD
ATOM      4  H   UNK     1      36.383 -24.695 -12.697  0.00  0.00    -0.088 HD
ATOM      5  H   UNK     1      36.384 -26.356 -12.813  0.00  0.00    -0.088 HD
ENDBRANCH   1   2
BRANCH   1   8
ATOM      6  O   UNK     1      38.252 -27.149 -14.612  0.00  0.00    -0.248 OA
ATOM      7  O   UNK     1      36.579 -27.211 -16.162  0.00  0.00    -0.248 OA
ATOM      8  C   UNK     1      37.210 -26.719 -15.185  0.00  0.00    +0.346 C 
ENDBRANCH   1   8
BRANCH   1   9
ATOM      9  C   UNK     1      37.624 -24.205 -14.626  0.00  0.00    +0.058 C 
BRANCH   9  10
ATOM     10  S   UNK     1      37.138 -22.868 -15.765  0.00  0.00    -0.088 S 
BRANCH  10  11
ATOM     11  S   UNK     1      35.107 -23.134 -15.845  0.00  0.00    -0.110 S 
ATOM     12  H   UNK     1      34.595 -22.417 -16.880  0.00  0.00    +0.114 HD
ENDBRANCH  10  11
ENDBRANCH   9  10
ENDBRANCH   1   9
TORSDOF 5
ENDMDL
MODEL 5
REMARK VINA RESULT:      -4.2      2.816      3.216
REMARK  Name = 45266695
REMARK  5 active torsions:
REMARK  status: ('A' for Active; 'I' for Inactive)
REMARK    1  A    between atoms: C_1  and  N_2
REMARK    2  A    between atoms: C_1  and  C_8
REMARK    3  A    between atoms: C_1  and  C_9
REMARK    4  A    between atoms: C_9  and  S_10
REMARK    5  A    between atoms: S_10  and  S_11
REMARK                            x       y       z     vdW  Elec       q    Type
REMARK                         _______ _______ _______ _____ _____    ______ ____
ROOT
ATOM      1  C   UNK     1      37.105 -24.975 -14.684  0.00  0.00    +0.052 C 
ENDROOT
BRANCH   1   2
ATOM      2  N   UNK     1      37.943 -24.051 -15.514  0.00  0.00    +0.389 N 
ATOM      3  H   UNK     1      37.336 -23.470 -16.093  0.00  0.00    -0.088 HD
ATOM      4  H   UNK     1      38.560 -24.598 -16.114  0.00  0.00    -0.088 HD
ATOM      5  H   UNK     1      38.501 -23.456 -14.904  0.00  0.00    -0.088 HD
ENDBRANCH   1   2
BRANCH   1   8
ATOM      6  O   UNK     1      36.244 -26.860 -15.836  0.00  0.00    -0.248 OA
ATOM      7  O   UNK     1      38.166 -27.103 -14.631  0.00  0.00    -0.248 OA
ATOM      8  C   UNK     1      37.186 -26.455 -15.097  0.00  0.00    +0.346 C 
ENDBRANCH   1   8
BRANCH   1   9
ATOM      9  C   UNK     1      35.702 -24.366 -14.612  0.00  0.00    +0.058 C 
BRANCH   9  10
ATOM     10  S   UNK     1      35.064 -24.206 -12.913  0.00  0.00    -0.088 S 
BRANCH  10  11
ATOM     11  S   UNK     1      36.681 -23.383 -11.958  0.00  0.00    -0.110 S 
ATOM     12  H   UNK     1      36.903 -22.131 -12.439  0.00  0.00    +0.114 HD
ENDBRANCH  10  11
ENDBRANCH   9  10
ENDBRANCH   1   9
TORSDOF 5
ENDMDL
MODEL 6
REMARK VINA RESULT:      -4.1      4.203      4.808
REMARK  Name = 45266695
REMARK  5 active torsions:
REMARK  status: ('A' for Active; 'I' for Inactive)
REMARK    1  A    between atoms: C_1  and  N_2
REMARK    2  A    between atoms: C_1  and  C_8
REMARK    3  A    between atoms: C_1  and  C_9
REMARK    4  A    between atoms: C_9  and  S_10
REMARK    5  A    between atoms: S_10  and  S_11
REMARK                            x       y       z     vdW  Elec       q    Type
REMARK                         _______ _______ _______ _____ _____    ______ ____
ROOT
ATOM      1  C   UNK     1      35.781 -24.310 -12.197  0.00  0.00    +0.052 C 
ENDROOT
BRANCH   1   2
ATOM      2  N   UNK     1      34.582 -23.551 -12.679  0.00  0.00    +0.389 N 
ATOM      3  H   UNK     1      34.582 -22.618 -12.266  0.00  0.00    -0.088 HD
ATOM      4  H   UNK     1      33.734 -24.044 -12.401  0.00  0.00    -0.088 HD
ATOM      5  H   UNK     1      34.613 -23.473 -13.695  0.00  0.00    -0.088 HD
ENDBRANCH   1   2
BRANCH   1   8
ATOM      6  O   UNK     1      37.312 -22.826 -11.161  0.00  0.00    -0.248 OA
ATOM      7  O   UNK     1      36.075 -24.215  -9.840  0.00  0.00    -0.248 OA
ATOM      8  C   UNK     1      36.447 -23.721 -10.941  0.00  0.00    +0.346 C 
ENDBRANCH   1   8
BRANCH   1   9
ATOM      9  C   UNK     1      36.691 -24.527 -13.410  0.00  0.00    +0.058 C 
BRANCH   9  10
ATOM     10  S   UNK     1      37.596 -26.108 -13.365  0.00  0.00    -0.088 S 
BRANCH  10  11
ATOM     11  S   UNK     1      39.467 -25.509 -13.954  0.00  0.00    -0.110 S 
ATOM     12  H   UNK     1      40.294 -26.587 -14.001  0.00  0.00    +0.114 HD
ENDBRANCH  10  11
ENDBRANCH   9  10
ENDBRANCH   1   9
TORSDOF 5
ENDMDL
MODEL 7
REMARK VINA RESULT:      -4.1      4.216      4.646
REMARK  Name = 45266695
REMARK  5 active torsions:
REMARK  status: ('A' for Active; 'I' for Inactive)
REMARK    1  A    between atoms: C_1  and  N_2
REMARK    2  A    between atoms: C_1  and  C_8
REMARK    3  A    between atoms: C_1  and  C_9
REMARK    4  A    between atoms: C_9  and  S_10
REMARK    5  A    between atoms: S_10  and  S_11
REMARK                            x       y       z     vdW  Elec       q    Type
REMARK                         _______ _______ _______ _____ _____    ______ ____
ROOT
ATOM      1  C   UNK     1      35.826 -24.071 -12.533  0.00  0.00    +0.052 C 
ENDROOT
BRANCH   1   2
ATOM      2  N   UNK     1      34.456 -23.595 -12.906  0.00  0.00    +0.389 N 
ATOM      3  H   UNK     1      33.872 -24.396 -13.150  0.00  0.00    -0.088 HD
ATOM      4  H   UNK     1      34.520 -22.967 -13.707  0.00  0.00    -0.088 HD
ATOM      5  H   UNK     1      34.040 -23.100 -12.118  0.00  0.00    -0.088 HD
ENDBRANCH   1   2
BRANCH   1   8
ATOM      6  O   UNK     1      35.377 -24.917 -10.364  0.00  0.00    -0.248 OA
ATOM      7  O   UNK     1      36.987 -23.318 -10.599  0.00  0.00    -0.248 OA
ATOM      8  C   UNK     1      36.098 -24.111 -11.019  0.00  0.00    +0.346 C 
ENDBRANCH   1   8
BRANCH   1   9
ATOM      9  C   UNK     1      36.824 -23.277 -13.381  0.00  0.00    +0.058 C 
BRANCH   9  10
ATOM     10  S   UNK     1      37.095 -23.985 -15.038  0.00  0.00    -0.088 S 
BRANCH  10  11
ATOM     11  S   UNK     1      37.244 -22.286 -16.176  0.00  0.00    -0.110 S 
ATOM     12  H   UNK     1      38.351 -21.589 -15.807  0.00  0.00    +0.114 HD
ENDBRANCH  10  11
ENDBRANCH   9  10
ENDBRANCH   1   9
TORSDOF 5
ENDMDL
MODEL 8
REMARK VINA RESULT:      -4.1      1.906      2.109
REMARK  Name = 45266695
REMARK  5 active torsions:
REMARK  status: ('A' for Active; 'I' for Inactive)
REMARK    1  A    between atoms: C_1  and  N_2
REMARK    2  A    between atoms: C_1  and  C_8
REMARK    3  A    between atoms: C_1  and  C_9
REMARK    4  A    between atoms: C_9  and  S_10
REMARK    5  A    between atoms: S_10  and  S_11
REMARK                            x       y       z     vdW  Elec       q    Type
REMARK                         _______ _______ _______ _____ _____    ______ ____
ROOT
ATOM      1  C   UNK     1      36.918 -25.422 -15.037  0.00  0.00    +0.052 C 
ENDROOT
BRANCH   1   2
ATOM      2  N   UNK     1      36.055 -26.646 -15.092  0.00  0.00    +0.389 N 
ATOM      3  H   UNK     1      35.236 -26.459 -15.670  0.00  0.00    -0.088 HD
ATOM      4  H   UNK     1      35.755 -26.893 -14.150  0.00  0.00    -0.088 HD
ATOM      5  H   UNK     1      36.585 -27.419 -15.494  0.00  0.00    -0.088 HD
ENDBRANCH   1   2
BRANCH   1   8
ATOM      6  O   UNK     1      38.744 -26.879 -14.635  0.00  0.00    -0.248 OA
ATOM      7  O   UNK     1      38.982 -24.666 -14.130  0.00  0.00    -0.248 OA
ATOM      8  C   UNK     1      38.359 -25.677 -14.562  0.00  0.00    +0.346 C 
ENDBRANCH   1   8
BRANCH   1   9
ATOM      9  C   UNK     1      36.130 -24.353 -14.275  0.00  0.00    +0.058 C 
BRANCH   9  10
ATOM     10  S   UNK     1      35.433 -23.058 -15.352  0.00  0.00    -0.088 S 
BRANCH  10  11
ATOM     11  S   UNK     1      37.135 -22.281 -16.190  0.00  0.00    -0.110 S 
ATOM     12  H   UNK     1      37.536 -23.072 -17.220  0.00  0.00    +0.114 HD
ENDBRANCH  10  11
ENDBRANCH   9  10
ENDBRANCH   1   9
TORSDOF 5
ENDMDL
MODEL 9
REMARK VINA RESULT:      -4.1      9.730     10.027
REMARK  Name = 45266695
REMARK  5 active torsions:
REMARK  status: ('A' for Active; 'I' for Inactive)
REMARK    1  A    between atoms: C_1  and  N_2
REMARK    2  A    between atoms: C_1  and  C_8
REMARK    3  A    between atoms: C_1  and  C_9
REMARK    4  A    between atoms: C_9  and  S_10
REMARK    5  A    between atoms: S_10  and  S_11
REMARK                            x       y       z     vdW  Elec       q    Type
REMARK                         _______ _______ _______ _____ _____    ______ ____
ROOT
ATOM      1  C   UNK     1      29.396 -23.355 -16.020  0.00  0.00    +0.052 C 
ENDROOT
BRANCH   1   2
ATOM      2  N   UNK     1      29.574 -24.817 -15.742  0.00  0.00    +0.389 N 
ATOM      3  H   UNK     1      29.054 -25.360 -16.433  0.00  0.00    -0.088 HD
ATOM      4  H   UNK     1      29.222 -25.031 -14.810  0.00  0.00    -0.088 HD
ATOM      5  H   UNK     1      30.563 -25.057 -15.796  0.00  0.00    -0.088 HD
ENDBRANCH   1   2
BRANCH   1   8
ATOM      6  O   UNK     1      27.700 -24.003 -17.545  0.00  0.00    -0.248 OA
ATOM      7  O   UNK     1      27.874 -21.799 -16.978  0.00  0.00    -0.248 OA
ATOM      8  C   UNK     1      28.201 -23.019 -16.929  0.00  0.00    +0.346 C 
ENDBRANCH   1   8
BRANCH   1   9
ATOM      9  C   UNK     1      30.759 -22.814 -16.461  0.00  0.00    +0.058 C 
BRANCH   9  10
ATOM     10  S   UNK     1      32.152 -23.470 -15.488  0.00  0.00    -0.088 S 
BRANCH  10  11
ATOM     11  S   UNK     1      33.686 -23.322 -16.841  0.00  0.00    -0.110 S 
ATOM     12  H   UNK     1      33.438 -24.140 -17.898  0.00  0.00    +0.114 HD
ENDBRANCH  10  11
ENDBRANCH   9  10
ENDBRANCH   1   9
TORSDOF 5
ENDMDL
