MODEL 1
REMARK VINA RESULT:      -8.6      0.000      0.000
REMARK  Name = 5280883
REMARK  15 active torsions:
REMARK  status: ('A' for Active; 'I' for Inactive)
REMARK    1  A    between atoms: C_3  and  C_19
REMARK    2  A    between atoms: C_4  and  C_8
REMARK    3  A    between atoms: C_9  and  C_10
REMARK    4  A    between atoms: C_10  and  O_11
REMARK    5  A    between atoms: C_10  and  C_14
REMARK    6  A    between atoms: O_11  and  O_12
REMARK    7  A    between atoms: C_14  and  C_15
REMARK    8  A    between atoms: C_15  and  C_16
REMARK    9  A    between atoms: C_16  and  C_17
REMARK   10  A    between atoms: C_19  and  C_20
REMARK   11  A    between atoms: C_21  and  C_22
REMARK   12  A    between atoms: C_22  and  C_23
REMARK   13  A    between atoms: C_23  and  C_24
REMARK   14  A    between atoms: C_24  and  C_26
REMARK   15  A    between atoms: C_26  and  O_27
REMARK                            x       y       z     vdW  Elec       q    Type
REMARK                         _______ _______ _______ _____ _____    ______ ____
ROOT
ATOM      1  O   UNL     1      33.929 -15.356 -24.149  0.00  0.00    -0.223 OA
ATOM      2  O   UNL     1      32.678 -14.628 -24.472  0.00  0.00    -0.223 OA
ATOM      3  C   UNL     1      33.778 -14.694 -21.825  0.00  0.00    +0.041 C 
ATOM      4  C   UNL     1      32.423 -14.019 -22.176  0.00  0.00    +0.055 C 
ATOM      5  C   UNL     1      34.555 -14.538 -23.146  0.00  0.00    +0.155 C 
ATOM      6  C   UNL     1      32.714 -13.486 -23.593  0.00  0.00    +0.159 C 
ATOM      7  C   UNL     1      34.187 -13.146 -23.604  0.00  0.00    +0.066 C 
ENDROOT
BRANCH   4   8
ATOM      8  C   UNL     1      32.051 -12.941 -21.214  0.00  0.00    -0.026 C 
ATOM      9  C   UNL     1      31.601 -11.733 -21.586  0.00  0.00    +0.002 C 
BRANCH   9  10
ATOM     10  C   UNL     1      31.229 -10.648 -20.613  0.00  0.00    +0.173 C 
BRANCH  10  11
ATOM     11  O   UNL     1      31.702 -11.023 -19.318  0.00  0.00    -0.222 OA
BRANCH  11  12
ATOM     12  O   UNL     1      32.319  -9.822 -18.786  0.00  0.00    -0.249 OA
ATOM     13  H   UNL     1      33.159  -9.659 -19.244  0.00  0.00    +0.253 HD
ENDBRANCH  11  12
ENDBRANCH  10  11
BRANCH  10  14
ATOM     14  C   UNL     1      31.861  -9.293 -20.960  0.00  0.00    +0.037 C 
BRANCH  14  15
ATOM     15  C   UNL     1      32.581  -9.290 -22.311  0.00  0.00    +0.003 C 
BRANCH  15  16
ATOM     16  C   UNL     1      33.428  -8.034 -22.545  0.00  0.00    +0.000 C 
BRANCH  16  17
ATOM     17  C   UNL     1      34.376  -8.153 -23.739  0.00  0.00    +0.000 C 
ATOM     18  C   UNL     1      34.571  -9.606 -24.149  0.00  0.00    +0.000 C 
ENDBRANCH  16  17
ENDBRANCH  15  16
ENDBRANCH  14  15
ENDBRANCH  10  14
ENDBRANCH   9  10
ENDBRANCH   4   8
BRANCH   3  19
ATOM     19  C   UNL     1      33.621 -16.138 -21.370  0.00  0.00    +0.029 C 
BRANCH  19  20
ATOM     20  C   UNL     1      34.881 -16.879 -21.018  0.00  0.00    -0.031 C 
ATOM     21  C   UNL     1      35.113 -18.194 -21.152  0.00  0.00    -0.031 C 
BRANCH  21  22
ATOM     22  C   UNL     1      34.105 -19.164 -21.696  0.00  0.00    +0.026 C 
BRANCH  22  23
ATOM     23  C   UNL     1      33.417 -20.010 -20.616  0.00  0.00    +0.016 C 
BRANCH  23  24
ATOM     24  C   UNL     1      34.364 -20.955 -19.870  0.00  0.00    +0.110 C 
BRANCH  24  26
ATOM     25  O   UNL     1      34.115 -23.348 -19.497  0.00  0.00    -0.250 OA
ATOM     26  C   UNL     1      33.692 -22.209 -19.354  0.00  0.00    +0.314 C 
BRANCH  26  27
ATOM     27  O   UNL     1      32.517 -21.930 -18.734  0.00  0.00    -0.480 OA
ATOM     28  H   UNL     1      32.471 -21.240 -18.103  0.00  0.00    +0.295 HD
ENDBRANCH  26  27
ENDBRANCH  24  26
ENDBRANCH  23  24
ENDBRANCH  22  23
ENDBRANCH  21  22
ENDBRANCH  19  20
ENDBRANCH   3  19
TORSDOF 15
ENDMDL
MODEL 2
REMARK VINA RESULT:      -8.6      7.094     11.381
REMARK  Name = 5280883
REMARK  15 active torsions:
REMARK  status: ('A' for Active; 'I' for Inactive)
REMARK    1  A    between atoms: C_3  and  C_19
REMARK    2  A    between atoms: C_4  and  C_8
REMARK    3  A    between atoms: C_9  and  C_10
REMARK    4  A    between atoms: C_10  and  O_11
REMARK    5  A    between atoms: C_10  and  C_14
REMARK    6  A    between atoms: O_11  and  O_12
REMARK    7  A    between atoms: C_14  and  C_15
REMARK    8  A    between atoms: C_15  and  C_16
REMARK    9  A    between atoms: C_16  and  C_17
REMARK   10  A    between atoms: C_19  and  C_20
REMARK   11  A    between atoms: C_21  and  C_22
REMARK   12  A    between atoms: C_22  and  C_23
REMARK   13  A    between atoms: C_23  and  C_24
REMARK   14  A    between atoms: C_24  and  C_26
REMARK   15  A    between atoms: C_26  and  O_27
REMARK                            x       y       z     vdW  Elec       q    Type
REMARK                         _______ _______ _______ _____ _____    ______ ____
ROOT
ATOM      1  O   UNL     1      35.950 -24.894 -12.890  0.00  0.00    -0.223 OA
ATOM      2  O   UNL     1      36.360 -25.578 -14.141  0.00  0.00    -0.223 OA
ATOM      3  C   UNL     1      34.522 -23.377 -14.125  0.00  0.00    +0.041 C 
ATOM      4  C   UNL     1      34.898 -24.173 -15.405  0.00  0.00    +0.055 C 
ATOM      5  C   UNL     1      35.803 -23.518 -13.282  0.00  0.00    +0.155 C 
ATOM      6  C   UNL     1      36.373 -24.519 -15.118  0.00  0.00    +0.159 C 
ATOM      7  C   UNL     1      36.908 -23.364 -14.300  0.00  0.00    +0.066 C 
ENDROOT
BRANCH   4   8
ATOM      8  C   UNL     1      34.721 -23.374 -16.653  0.00  0.00    -0.026 C 
ATOM      9  C   UNL     1      33.636 -23.450 -17.438  0.00  0.00    +0.002 C 
BRANCH   9  10
ATOM     10  C   UNL     1      33.461 -22.643 -18.696  0.00  0.00    +0.173 C 
BRANCH  10  11
ATOM     11  O   UNL     1      32.379 -21.732 -18.499  0.00  0.00    -0.222 OA
BRANCH  11  12
ATOM     12  O   UNL     1      31.527 -22.373 -17.514  0.00  0.00    -0.249 OA
ATOM     13  H   UNL     1      31.690 -21.981 -16.642  0.00  0.00    +0.253 HD
ENDBRANCH  11  12
ENDBRANCH  10  11
BRANCH  10  14
ATOM     14  C   UNL     1      34.702 -21.814 -19.050  0.00  0.00    +0.037 C 
BRANCH  14  15
ATOM     15  C   UNL     1      34.426 -20.731 -20.097  0.00  0.00    +0.003 C 
BRANCH  15  16
ATOM     16  C   UNL     1      35.699 -20.074 -20.643  0.00  0.00    +0.000 C 
BRANCH  16  17
ATOM     17  C   UNL     1      35.439 -18.755 -21.373  0.00  0.00    +0.000 C 
ATOM     18  C   UNL     1      34.764 -18.989 -22.717  0.00  0.00    +0.000 C 
ENDBRANCH  16  17
ENDBRANCH  15  16
ENDBRANCH  14  15
ENDBRANCH  10  14
ENDBRANCH   9  10
ENDBRANCH   4   8
BRANCH   3  19
ATOM     19  C   UNL     1      33.273 -23.913 -13.440  0.00  0.00    +0.029 C 
BRANCH  19  20
ATOM     20  C   UNL     1      32.009 -23.116 -13.612  0.00  0.00    -0.031 C 
ATOM     21  C   UNL     1      30.876 -23.511 -14.212  0.00  0.00    -0.031 C 
BRANCH  21  22
ATOM     22  C   UNL     1      30.692 -24.867 -14.828  0.00  0.00    +0.026 C 
BRANCH  22  23
ATOM     23  C   UNL     1      29.606 -24.909 -15.913  0.00  0.00    +0.016 C 
BRANCH  23  24
ATOM     24  C   UNL     1      28.477 -23.897 -15.701  0.00  0.00    +0.110 C 
BRANCH  24  26
ATOM     25  O   UNL     1      27.335 -23.547 -17.823  0.00  0.00    -0.250 OA
ATOM     26  C   UNL     1      28.094 -23.139 -16.953  0.00  0.00    +0.314 C 
BRANCH  26  27
ATOM     27  O   UNL     1      28.732 -21.943 -17.031  0.00  0.00    -0.480 OA
ATOM     28  H   UNL     1      28.304 -21.208 -17.423  0.00  0.00    +0.295 HD
ENDBRANCH  26  27
ENDBRANCH  24  26
ENDBRANCH  23  24
ENDBRANCH  22  23
ENDBRANCH  21  22
ENDBRANCH  19  20
ENDBRANCH   3  19
TORSDOF 15
ENDMDL
MODEL 3
REMARK VINA RESULT:      -8.5      8.747     12.949
REMARK  Name = 5280883
REMARK  15 active torsions:
REMARK  status: ('A' for Active; 'I' for Inactive)
REMARK    1  A    between atoms: C_3  and  C_19
REMARK    2  A    between atoms: C_4  and  C_8
REMARK    3  A    between atoms: C_9  and  C_10
REMARK    4  A    between atoms: C_10  and  O_11
REMARK    5  A    between atoms: C_10  and  C_14
REMARK    6  A    between atoms: O_11  and  O_12
REMARK    7  A    between atoms: C_14  and  C_15
REMARK    8  A    between atoms: C_15  and  C_16
REMARK    9  A    between atoms: C_16  and  C_17
REMARK   10  A    between atoms: C_19  and  C_20
REMARK   11  A    between atoms: C_21  and  C_22
REMARK   12  A    between atoms: C_22  and  C_23
REMARK   13  A    between atoms: C_23  and  C_24
REMARK   14  A    between atoms: C_24  and  C_26
REMARK   15  A    between atoms: C_26  and  O_27
REMARK                            x       y       z     vdW  Elec       q    Type
REMARK                         _______ _______ _______ _____ _____    ______ ____
ROOT
ATOM      1  O   UNL     1      39.344 -24.622 -13.327  0.00  0.00    -0.223 OA
ATOM      2  O   UNL     1      38.713 -23.893 -12.199  0.00  0.00    -0.223 OA
ATOM      3  C   UNL     1      37.274 -24.579 -14.583  0.00  0.00    +0.041 C 
ATOM      4  C   UNL     1      36.669 -23.736 -13.427  0.00  0.00    +0.055 C 
ATOM      5  C   UNL     1      38.289 -25.459 -13.829  0.00  0.00    +0.155 C 
ATOM      6  C   UNL     1      37.355 -24.375 -12.202  0.00  0.00    +0.159 C 
ATOM      7  C   UNL     1      37.554 -25.830 -12.562  0.00  0.00    +0.066 C 
ENDROOT
BRANCH   4   8
ATOM      8  C   UNL     1      35.180 -23.822 -13.370  0.00  0.00    -0.026 C 
ATOM      9  C   UNL     1      34.411 -24.139 -14.423  0.00  0.00    +0.002 C 
BRANCH   9  10
ATOM     10  C   UNL     1      32.912 -24.224 -14.363  0.00  0.00    +0.173 C 
BRANCH  10  11
ATOM     11  O   UNL     1      32.518 -24.274 -12.990  0.00  0.00    -0.222 OA
BRANCH  11  12
ATOM     12  O   UNL     1      31.967 -22.961 -12.713  0.00  0.00    -0.249 OA
ATOM     13  H   UNL     1      31.615 -22.942 -11.809  0.00  0.00    +0.253 HD
ENDBRANCH  11  12
ENDBRANCH  10  11
BRANCH  10  14
ATOM     14  C   UNL     1      32.219 -23.010 -14.996  0.00  0.00    +0.037 C 
BRANCH  14  15
ATOM     15  C   UNL     1      31.237 -23.387 -16.108  0.00  0.00    +0.003 C 
BRANCH  15  16
ATOM     16  C   UNL     1      30.275 -24.513 -15.715  0.00  0.00    +0.000 C 
BRANCH  16  17
ATOM     17  C   UNL     1      28.846 -24.033 -15.461  0.00  0.00    +0.000 C 
ATOM     18  C   UNL     1      28.664 -22.584 -15.888  0.00  0.00    +0.000 C 
ENDBRANCH  16  17
ENDBRANCH  15  16
ENDBRANCH  14  15
ENDBRANCH  10  14
ENDBRANCH   9  10
ENDBRANCH   4   8
BRANCH   3  19
ATOM     19  C   UNL     1      37.896 -23.724 -15.678  0.00  0.00    +0.029 C 
BRANCH  19  20
ATOM     20  C   UNL     1      37.566 -22.256 -15.662  0.00  0.00    -0.031 C 
ATOM     21  C   UNL     1      36.806 -21.587 -16.542  0.00  0.00    -0.031 C 
BRANCH  21  22
ATOM     22  C   UNL     1      36.142 -22.230 -17.725  0.00  0.00    +0.026 C 
BRANCH  22  23
ATOM     23  C   UNL     1      36.154 -21.357 -18.988  0.00  0.00    +0.016 C 
BRANCH  23  24
ATOM     24  C   UNL     1      34.802 -21.283 -19.704  0.00  0.00    +0.110 C 
BRANCH  24  26
ATOM     25  O   UNL     1      34.077 -23.603 -19.566  0.00  0.00    -0.250 OA
ATOM     26  C   UNL     1      33.863 -22.417 -19.355  0.00  0.00    +0.314 C 
BRANCH  26  27
ATOM     27  O   UNL     1      32.708 -21.961 -18.806  0.00  0.00    -0.480 OA
ATOM     28  H   UNL     1      31.939 -21.877 -19.334  0.00  0.00    +0.295 HD
ENDBRANCH  26  27
ENDBRANCH  24  26
ENDBRANCH  23  24
ENDBRANCH  22  23
ENDBRANCH  21  22
ENDBRANCH  19  20
ENDBRANCH   3  19
TORSDOF 15
ENDMDL
MODEL 4
REMARK VINA RESULT:      -8.5      2.579      2.984
REMARK  Name = 5280883
REMARK  15 active torsions:
REMARK  status: ('A' for Active; 'I' for Inactive)
REMARK    1  A    between atoms: C_3  and  C_19
REMARK    2  A    between atoms: C_4  and  C_8
REMARK    3  A    between atoms: C_9  and  C_10
REMARK    4  A    between atoms: C_10  and  O_11
REMARK    5  A    between atoms: C_10  and  C_14
REMARK    6  A    between atoms: O_11  and  O_12
REMARK    7  A    between atoms: C_14  and  C_15
REMARK    8  A    between atoms: C_15  and  C_16
REMARK    9  A    between atoms: C_16  and  C_17
REMARK   10  A    between atoms: C_19  and  C_20
REMARK   11  A    between atoms: C_21  and  C_22
REMARK   12  A    between atoms: C_22  and  C_23
REMARK   13  A    between atoms: C_23  and  C_24
REMARK   14  A    between atoms: C_24  and  C_26
REMARK   15  A    between atoms: C_26  and  O_27
REMARK                            x       y       z     vdW  Elec       q    Type
REMARK                         _______ _______ _______ _____ _____    ______ ____
ROOT
ATOM      1  O   UNL     1      33.552 -14.868 -24.364  0.00  0.00    -0.223 OA
ATOM      2  O   UNL     1      32.278 -14.123 -24.514  0.00  0.00    -0.223 OA
ATOM      3  C   UNL     1      33.688 -14.269 -22.022  0.00  0.00    +0.041 C 
ATOM      4  C   UNL     1      32.307 -13.577 -22.188  0.00  0.00    +0.055 C 
ATOM      5  C   UNL     1      34.301 -14.082 -23.422  0.00  0.00    +0.155 C 
ATOM      6  C   UNL     1      32.430 -13.007 -23.616  0.00  0.00    +0.159 C 
ATOM      7  C   UNL     1      33.895 -12.676 -23.795  0.00  0.00    +0.066 C 
ENDROOT
BRANCH   4   8
ATOM      8  C   UNL     1      32.064 -12.523 -21.160  0.00  0.00    -0.026 C 
ATOM      9  C   UNL     1      31.485 -11.342 -21.425  0.00  0.00    +0.002 C 
BRANCH   9  10
ATOM     10  C   UNL     1      31.243 -10.282 -20.387  0.00  0.00    +0.173 C 
BRANCH  10  11
ATOM     11  O   UNL     1      31.703 -10.773 -19.127  0.00  0.00    -0.222 OA
BRANCH  11  12
ATOM     12  O   UNL     1      32.758  -9.858 -18.733  0.00  0.00    -0.249 OA
ATOM     13  H   UNL     1      32.580  -8.980 -19.105  0.00  0.00    +0.253 HD
ENDBRANCH  11  12
ENDBRANCH  10  11
BRANCH  10  14
ATOM     14  C   UNL     1      32.000  -8.979 -20.677  0.00  0.00    +0.037 C 
BRANCH  14  15
ATOM     15  C   UNL     1      32.378  -8.815 -22.151  0.00  0.00    +0.003 C 
BRANCH  15  16
ATOM     16  C   UNL     1      33.111  -7.502 -22.448  0.00  0.00    +0.000 C 
BRANCH  16  17
ATOM     17  C   UNL     1      34.455  -7.700 -23.150  0.00  0.00    +0.000 C 
ATOM     18  C   UNL     1      34.524  -6.911 -24.449  0.00  0.00    +0.000 C 
ENDBRANCH  16  17
ENDBRANCH  15  16
ENDBRANCH  14  15
ENDBRANCH  10  14
ENDBRANCH   9  10
ENDBRANCH   4   8
BRANCH   3  19
ATOM     19  C   UNL     1      33.573 -15.724 -21.589  0.00  0.00    +0.029 C 
BRANCH  19  20
ATOM     20  C   UNL     1      34.759 -16.317 -20.878  0.00  0.00    -0.031 C 
ATOM     21  C   UNL     1      35.167 -17.594 -20.908  0.00  0.00    -0.031 C 
BRANCH  21  22
ATOM     22  C   UNL     1      34.472 -18.671 -21.690  0.00  0.00    +0.026 C 
BRANCH  22  23
ATOM     23  C   UNL     1      35.302 -19.216 -22.861  0.00  0.00    +0.016 C 
BRANCH  23  24
ATOM     24  C   UNL     1      34.539 -19.276 -24.188  0.00  0.00    +0.110 C 
BRANCH  24  26
ATOM     25  O   UNL     1      33.705 -17.672 -25.818  0.00  0.00    -0.250 OA
ATOM     26  C   UNL     1      34.493 -17.956 -24.926  0.00  0.00    +0.314 C 
BRANCH  26  27
ATOM     27  O   UNL     1      35.474 -17.114 -24.511  0.00  0.00    -0.480 OA
ATOM     28  H   UNL     1      35.604 -16.960 -23.596  0.00  0.00    +0.295 HD
ENDBRANCH  26  27
ENDBRANCH  24  26
ENDBRANCH  23  24
ENDBRANCH  22  23
ENDBRANCH  21  22
ENDBRANCH  19  20
ENDBRANCH   3  19
TORSDOF 15
ENDMDL
MODEL 5
REMARK VINA RESULT:      -8.3      7.652     11.960
REMARK  Name = 5280883
REMARK  15 active torsions:
REMARK  status: ('A' for Active; 'I' for Inactive)
REMARK    1  A    between atoms: C_3  and  C_19
REMARK    2  A    between atoms: C_4  and  C_8
REMARK    3  A    between atoms: C_9  and  C_10
REMARK    4  A    between atoms: C_10  and  O_11
REMARK    5  A    between atoms: C_10  and  C_14
REMARK    6  A    between atoms: O_11  and  O_12
REMARK    7  A    between atoms: C_14  and  C_15
REMARK    8  A    between atoms: C_15  and  C_16
REMARK    9  A    between atoms: C_16  and  C_17
REMARK   10  A    between atoms: C_19  and  C_20
REMARK   11  A    between atoms: C_21  and  C_22
REMARK   12  A    between atoms: C_22  and  C_23
REMARK   13  A    between atoms: C_23  and  C_24
REMARK   14  A    between atoms: C_24  and  C_26
REMARK   15  A    between atoms: C_26  and  O_27
REMARK                            x       y       z     vdW  Elec       q    Type
REMARK                         _______ _______ _______ _____ _____    ______ ____
ROOT
ATOM      1  O   UNL     1      35.640 -25.164 -11.699  0.00  0.00    -0.223 OA
ATOM      2  O   UNL     1      36.598 -25.815 -12.626  0.00  0.00    -0.223 OA
ATOM      3  C   UNL     1      34.703 -23.851 -13.504  0.00  0.00    +0.041 C 
ATOM      4  C   UNL     1      35.653 -24.617 -14.465  0.00  0.00    +0.055 C 
ATOM      5  C   UNL     1      35.528 -23.823 -12.205  0.00  0.00    +0.155 C 
ATOM      6  C   UNL     1      36.905 -24.778 -13.579  0.00  0.00    +0.159 C 
ATOM      7  C   UNL     1      36.933 -23.555 -12.691  0.00  0.00    +0.066 C 
ENDROOT
BRANCH   4   8
ATOM      8  C   UNL     1      35.926 -23.866 -15.725  0.00  0.00    -0.026 C 
ATOM      9  C   UNL     1      35.255 -22.765 -16.096  0.00  0.00    +0.002 C 
BRANCH   9  10
ATOM     10  C   UNL     1      35.532 -22.011 -17.368  0.00  0.00    +0.173 C 
BRANCH  10  11
ATOM     11  O   UNL     1      36.943 -22.009 -17.592  0.00  0.00    -0.222 OA
BRANCH  11  12
ATOM     12  O   UNL     1      37.402 -20.738 -17.061  0.00  0.00    -0.249 OA
ATOM     13  H   UNL     1      38.072 -20.364 -17.654  0.00  0.00    +0.253 HD
ENDBRANCH  11  12
ENDBRANCH  10  11
BRANCH  10  14
ATOM     14  C   UNL     1      34.873 -22.651 -18.597  0.00  0.00    +0.037 C 
BRANCH  14  15
ATOM     15  C   UNL     1      34.118 -21.644 -19.470  0.00  0.00    +0.003 C 
BRANCH  15  16
ATOM     16  C   UNL     1      35.043 -20.683 -20.226  0.00  0.00    +0.000 C 
BRANCH  16  17
ATOM     17  C   UNL     1      34.310 -19.488 -20.837  0.00  0.00    +0.000 C 
ATOM     18  C   UNL     1      32.805 -19.709 -20.853  0.00  0.00    +0.000 C 
ENDBRANCH  16  17
ENDBRANCH  15  16
ENDBRANCH  14  15
ENDBRANCH  10  14
ENDBRANCH   9  10
ENDBRANCH   4   8
BRANCH   3  19
ATOM     19  C   UNL     1      33.344 -24.521 -13.356  0.00  0.00    +0.029 C 
BRANCH  19  20
ATOM     20  C   UNL     1      32.155 -23.616 -13.184  0.00  0.00    -0.031 C 
ATOM     21  C   UNL     1      31.384 -23.097 -14.151  0.00  0.00    -0.031 C 
BRANCH  21  22
ATOM     22  C   UNL     1      31.602 -23.353 -15.614  0.00  0.00    +0.026 C 
BRANCH  22  23
ATOM     23  C   UNL     1      30.500 -22.774 -16.512  0.00  0.00    +0.016 C 
BRANCH  23  24
ATOM     24  C   UNL     1      29.087 -22.939 -15.947  0.00  0.00    +0.110 C 
BRANCH  24  26
ATOM     25  O   UNL     1      27.458 -21.633 -17.199  0.00  0.00    -0.250 OA
ATOM     26  C   UNL     1      27.991 -22.709 -16.964  0.00  0.00    +0.314 C 
BRANCH  26  27
ATOM     27  O   UNL     1      27.624 -23.865 -17.576  0.00  0.00    -0.480 OA
ATOM     28  H   UNL     1      27.648 -23.929 -18.510  0.00  0.00    +0.295 HD
ENDBRANCH  26  27
ENDBRANCH  24  26
ENDBRANCH  23  24
ENDBRANCH  22  23
ENDBRANCH  21  22
ENDBRANCH  19  20
ENDBRANCH   3  19
TORSDOF 15
ENDMDL
MODEL 6
REMARK VINA RESULT:      -8.2      1.890      2.630
REMARK  Name = 5280883
REMARK  15 active torsions:
REMARK  status: ('A' for Active; 'I' for Inactive)
REMARK    1  A    between atoms: C_3  and  C_19
REMARK    2  A    between atoms: C_4  and  C_8
REMARK    3  A    between atoms: C_9  and  C_10
REMARK    4  A    between atoms: C_10  and  O_11
REMARK    5  A    between atoms: C_10  and  C_14
REMARK    6  A    between atoms: O_11  and  O_12
REMARK    7  A    between atoms: C_14  and  C_15
REMARK    8  A    between atoms: C_15  and  C_16
REMARK    9  A    between atoms: C_16  and  C_17
REMARK   10  A    between atoms: C_19  and  C_20
REMARK   11  A    between atoms: C_21  and  C_22
REMARK   12  A    between atoms: C_22  and  C_23
REMARK   13  A    between atoms: C_23  and  C_24
REMARK   14  A    between atoms: C_24  and  C_26
REMARK   15  A    between atoms: C_26  and  O_27
REMARK                            x       y       z     vdW  Elec       q    Type
REMARK                         _______ _______ _______ _____ _____    ______ ____
ROOT
ATOM      1  O   UNL     1      34.840 -16.402 -21.037  0.00  0.00    -0.223 OA
ATOM      2  O   UNL     1      34.894 -15.118 -20.296  0.00  0.00    -0.223 OA
ATOM      3  C   UNL     1      33.552 -15.383 -22.816  0.00  0.00    +0.041 C 
ATOM      4  C   UNL     1      33.706 -14.033 -22.062  0.00  0.00    +0.055 C 
ATOM      5  C   UNL     1      33.541 -16.391 -21.652  0.00  0.00    +0.155 C 
ATOM      6  C   UNL     1      33.626 -14.501 -20.595  0.00  0.00    +0.159 C 
ATOM      7  C   UNL     1      32.704 -15.700 -20.602  0.00  0.00    +0.066 C 
ENDROOT
BRANCH   4   8
ATOM      8  C   UNL     1      32.639 -13.051 -22.418  0.00  0.00    -0.026 C 
ATOM      9  C   UNL     1      32.203 -12.092 -21.588  0.00  0.00    +0.002 C 
BRANCH   9  10
ATOM     10  C   UNL     1      31.128 -11.105 -21.949  0.00  0.00    +0.173 C 
BRANCH  10  11
ATOM     11  O   UNL     1      30.113 -11.157 -20.944  0.00  0.00    -0.222 OA
BRANCH  11  12
ATOM     12  O   UNL     1      30.758 -10.672 -19.738  0.00  0.00    -0.249 OA
ATOM     13  H   UNL     1      30.477 -11.211 -18.982  0.00  0.00    +0.253 HD
ENDBRANCH  11  12
ENDBRANCH  10  11
BRANCH  10  14
ATOM     14  C   UNL     1      31.639  -9.659 -22.010  0.00  0.00    +0.037 C 
BRANCH  14  15
ATOM     15  C   UNL     1      31.985  -9.201 -23.429  0.00  0.00    +0.003 C 
BRANCH  15  16
ATOM     16  C   UNL     1      33.493  -9.087 -23.681  0.00  0.00    +0.000 C 
BRANCH  16  17
ATOM     17  C   UNL     1      34.109 -10.355 -24.274  0.00  0.00    +0.000 C 
ATOM     18  C   UNL     1      35.285 -10.027 -25.182  0.00  0.00    +0.000 C 
ENDBRANCH  16  17
ENDBRANCH  15  16
ENDBRANCH  14  15
ENDBRANCH  10  14
ENDBRANCH   9  10
ENDBRANCH   4   8
BRANCH   3  19
ATOM     19  C   UNL     1      34.663 -15.625 -23.829  0.00  0.00    +0.029 C 
BRANCH  19  20
ATOM     20  C   UNL     1      34.391 -16.639 -24.905  0.00  0.00    -0.031 C 
ATOM     21  C   UNL     1      34.727 -17.938 -24.900  0.00  0.00    -0.031 C 
BRANCH  21  22
ATOM     22  C   UNL     1      35.458 -18.602 -23.770  0.00  0.00    +0.026 C 
BRANCH  22  23
ATOM     23  C   UNL     1      34.575 -19.531 -22.926  0.00  0.00    +0.016 C 
BRANCH  23  24
ATOM     24  C   UNL     1      35.066 -19.719 -21.488  0.00  0.00    +0.110 C 
BRANCH  24  26
ATOM     25  O   UNL     1      32.830 -19.797 -20.529  0.00  0.00    -0.250 OA
ATOM     26  C   UNL     1      33.991 -20.184 -20.531  0.00  0.00    +0.314 C 
BRANCH  26  27
ATOM     27  O   UNL     1      34.476 -21.069 -19.622  0.00  0.00    -0.480 OA
ATOM     28  H   UNL     1      34.170 -21.954 -19.620  0.00  0.00    +0.295 HD
ENDBRANCH  26  27
ENDBRANCH  24  26
ENDBRANCH  23  24
ENDBRANCH  22  23
ENDBRANCH  21  22
ENDBRANCH  19  20
ENDBRANCH   3  19
TORSDOF 15
ENDMDL
MODEL 7
REMARK VINA RESULT:      -8.0      2.309      8.776
REMARK  Name = 5280883
REMARK  15 active torsions:
REMARK  status: ('A' for Active; 'I' for Inactive)
REMARK    1  A    between atoms: C_3  and  C_19
REMARK    2  A    between atoms: C_4  and  C_8
REMARK    3  A    between atoms: C_9  and  C_10
REMARK    4  A    between atoms: C_10  and  O_11
REMARK    5  A    between atoms: C_10  and  C_14
REMARK    6  A    between atoms: O_11  and  O_12
REMARK    7  A    between atoms: C_14  and  C_15
REMARK    8  A    between atoms: C_15  and  C_16
REMARK    9  A    between atoms: C_16  and  C_17
REMARK   10  A    between atoms: C_19  and  C_20
REMARK   11  A    between atoms: C_21  and  C_22
REMARK   12  A    between atoms: C_22  and  C_23
REMARK   13  A    between atoms: C_23  and  C_24
REMARK   14  A    between atoms: C_24  and  C_26
REMARK   15  A    between atoms: C_26  and  O_27
REMARK                            x       y       z     vdW  Elec       q    Type
REMARK                         _______ _______ _______ _____ _____    ______ ____
ROOT
ATOM      1  O   UNL     1      33.057 -12.098 -23.328  0.00  0.00    -0.223 OA
ATOM      2  O   UNL     1      34.370 -12.774 -23.474  0.00  0.00    -0.223 OA
ATOM      3  C   UNL     1      32.368 -13.684 -21.634  0.00  0.00    +0.041 C 
ATOM      4  C   UNL     1      33.784 -14.313 -21.742  0.00  0.00    +0.055 C 
ATOM      5  C   UNL     1      32.142 -13.175 -23.070  0.00  0.00    +0.155 C 
ATOM      6  C   UNL     1      34.061 -14.164 -23.252  0.00  0.00    +0.159 C 
ATOM      7  C   UNL     1      32.712 -14.282 -23.925  0.00  0.00    +0.066 C 
ENDROOT
BRANCH   4   8
ATOM      8  C   UNL     1      33.821 -15.732 -21.282  0.00  0.00    -0.026 C 
ATOM      9  C   UNL     1      34.896 -16.526 -21.397  0.00  0.00    +0.002 C 
BRANCH   9  10
ATOM     10  C   UNL     1      34.928 -17.956 -20.933  0.00  0.00    +0.173 C 
BRANCH  10  11
ATOM     11  O   UNL     1      33.605 -18.488 -21.021  0.00  0.00    -0.222 OA
BRANCH  11  12
ATOM     12  O   UNL     1      33.760 -19.911 -20.784  0.00  0.00    -0.249 OA
ATOM     13  H   UNL     1      33.332 -20.406 -21.501  0.00  0.00    +0.253 HD
ENDBRANCH  11  12
ENDBRANCH  10  11
BRANCH  10  14
ATOM     14  C   UNL     1      35.838 -18.843 -21.794  0.00  0.00    +0.037 C 
BRANCH  14  15
ATOM     15  C   UNL     1      35.860 -18.433 -23.269  0.00  0.00    +0.003 C 
BRANCH  15  16
ATOM     16  C   UNL     1      34.891 -19.242 -24.139  0.00  0.00    +0.000 C 
BRANCH  16  17
ATOM     17  C   UNL     1      34.129 -18.391 -25.155  0.00  0.00    +0.000 C 
ATOM     18  C   UNL     1      34.762 -17.016 -25.312  0.00  0.00    +0.000 C 
ENDBRANCH  16  17
ENDBRANCH  15  16
ENDBRANCH  14  15
ENDBRANCH  10  14
ENDBRANCH   9  10
ENDBRANCH   4   8
BRANCH   3  19
ATOM     19  C   UNL     1      32.283 -12.594 -20.575  0.00  0.00    +0.029 C 
BRANCH  19  20
ATOM     20  C   UNL     1      31.077 -11.697 -20.619  0.00  0.00    -0.031 C 
ATOM     21  C   UNL     1      30.999 -10.422 -20.209  0.00  0.00    -0.031 C 
BRANCH  21  22
ATOM     22  C   UNL     1      32.155  -9.667 -19.618  0.00  0.00    +0.026 C 
BRANCH  22  23
ATOM     23  C   UNL     1      32.281  -8.228 -20.137  0.00  0.00    +0.016 C 
BRANCH  23  24
ATOM     24  C   UNL     1      31.927  -8.069 -21.618  0.00  0.00    +0.110 C 
BRANCH  24  26
ATOM     25  O   UNL     1      34.120  -7.686 -22.604  0.00  0.00    -0.250 OA
ATOM     26  C   UNL     1      33.084  -8.336 -22.555  0.00  0.00    +0.314 C 
BRANCH  26  27
ATOM     27  O   UNL     1      32.826  -9.377 -23.388  0.00  0.00    -0.480 OA
ATOM     28  H   UNL     1      32.632 -10.223 -23.036  0.00  0.00    +0.295 HD
ENDBRANCH  26  27
ENDBRANCH  24  26
ENDBRANCH  23  24
ENDBRANCH  22  23
ENDBRANCH  21  22
ENDBRANCH  19  20
ENDBRANCH   3  19
TORSDOF 15
ENDMDL
MODEL 8
REMARK VINA RESULT:      -8.0      2.567      9.334
REMARK  Name = 5280883
REMARK  15 active torsions:
REMARK  status: ('A' for Active; 'I' for Inactive)
REMARK    1  A    between atoms: C_3  and  C_19
REMARK    2  A    between atoms: C_4  and  C_8
REMARK    3  A    between atoms: C_9  and  C_10
REMARK    4  A    between atoms: C_10  and  O_11
REMARK    5  A    between atoms: C_10  and  C_14
REMARK    6  A    between atoms: O_11  and  O_12
REMARK    7  A    between atoms: C_14  and  C_15
REMARK    8  A    between atoms: C_15  and  C_16
REMARK    9  A    between atoms: C_16  and  C_17
REMARK   10  A    between atoms: C_19  and  C_20
REMARK   11  A    between atoms: C_21  and  C_22
REMARK   12  A    between atoms: C_22  and  C_23
REMARK   13  A    between atoms: C_23  and  C_24
REMARK   14  A    between atoms: C_24  and  C_26
REMARK   15  A    between atoms: C_26  and  O_27
REMARK                            x       y       z     vdW  Elec       q    Type
REMARK                         _______ _______ _______ _____ _____    ______ ____
ROOT
ATOM      1  O   UNL     1      32.932 -11.823 -23.324  0.00  0.00    -0.223 OA
ATOM      2  O   UNL     1      34.261 -12.384 -23.672  0.00  0.00    -0.223 OA
ATOM      3  C   UNL     1      32.450 -13.713 -21.890  0.00  0.00    +0.041 C 
ATOM      4  C   UNL     1      33.883 -14.228 -22.200  0.00  0.00    +0.055 C 
ATOM      5  C   UNL     1      32.091 -12.981 -23.197  0.00  0.00    +0.155 C 
ATOM      6  C   UNL     1      34.036 -13.808 -23.677  0.00  0.00    +0.159 C 
ATOM      7  C   UNL     1      32.647 -13.890 -24.268  0.00  0.00    +0.066 C 
ENDROOT
BRANCH   4   8
ATOM      8  C   UNL     1      34.022 -15.700 -21.998  0.00  0.00    -0.026 C 
ATOM      9  C   UNL     1      34.701 -16.506 -22.828  0.00  0.00    +0.002 C 
BRANCH   9  10
ATOM     10  C   UNL     1      34.838 -17.989 -22.621  0.00  0.00    +0.173 C 
BRANCH  10  11
ATOM     11  O   UNL     1      35.619 -18.522 -23.692  0.00  0.00    -0.222 OA
BRANCH  11  12
ATOM     12  O   UNL     1      34.798 -18.345 -24.875  0.00  0.00    -0.249 OA
ATOM     13  H   UNL     1      34.691 -17.398 -25.056  0.00  0.00    +0.253 HD
ENDBRANCH  11  12
ENDBRANCH  10  11
BRANCH  10  14
ATOM     14  C   UNL     1      35.551 -18.345 -21.310  0.00  0.00    +0.037 C 
BRANCH  14  15
ATOM     15  C   UNL     1      35.221 -19.753 -20.806  0.00  0.00    +0.003 C 
BRANCH  15  16
ATOM     16  C   UNL     1      33.724 -19.975 -20.561  0.00  0.00    +0.000 C 
BRANCH  16  17
ATOM     17  C   UNL     1      33.418 -21.245 -19.766  0.00  0.00    +0.000 C 
ATOM     18  C   UNL     1      34.688 -21.863 -19.200  0.00  0.00    +0.000 C 
ENDBRANCH  16  17
ENDBRANCH  15  16
ENDBRANCH  14  15
ENDBRANCH  10  14
ENDBRANCH   9  10
ENDBRANCH   4   8
BRANCH   3  19
ATOM     19  C   UNL     1      32.394 -12.827 -20.653  0.00  0.00    +0.029 C 
BRANCH  19  20
ATOM     20  C   UNL     1      31.146 -12.010 -20.459  0.00  0.00    -0.031 C 
ATOM     21  C   UNL     1      31.065 -10.744 -20.024  0.00  0.00    -0.031 C 
BRANCH  21  22
ATOM     22  C   UNL     1      32.260  -9.916 -19.649  0.00  0.00    +0.026 C 
BRANCH  22  23
ATOM     23  C   UNL     1      32.324  -8.564 -20.374  0.00  0.00    +0.016 C 
BRANCH  23  24
ATOM     24  C   UNL     1      32.080  -8.655 -21.882  0.00  0.00    +0.110 C 
BRANCH  24  26
ATOM     25  O   UNL     1      33.679  -7.076 -22.818  0.00  0.00    -0.250 OA
ATOM     26  C   UNL     1      33.264  -8.222 -22.719  0.00  0.00    +0.314 C 
BRANCH  26  27
ATOM     27  O   UNL     1      33.804  -9.265 -23.402  0.00  0.00    -0.480 OA
ATOM     28  H   UNL     1      34.418  -9.107 -24.090  0.00  0.00    +0.295 HD
ENDBRANCH  26  27
ENDBRANCH  24  26
ENDBRANCH  23  24
ENDBRANCH  22  23
ENDBRANCH  21  22
ENDBRANCH  19  20
ENDBRANCH   3  19
TORSDOF 15
ENDMDL
MODEL 9
REMARK VINA RESULT:      -7.9      3.669      9.742
REMARK  Name = 5280883
REMARK  15 active torsions:
REMARK  status: ('A' for Active; 'I' for Inactive)
REMARK    1  A    between atoms: C_3  and  C_19
REMARK    2  A    between atoms: C_4  and  C_8
REMARK    3  A    between atoms: C_9  and  C_10
REMARK    4  A    between atoms: C_10  and  O_11
REMARK    5  A    between atoms: C_10  and  C_14
REMARK    6  A    between atoms: O_11  and  O_12
REMARK    7  A    between atoms: C_14  and  C_15
REMARK    8  A    between atoms: C_15  and  C_16
REMARK    9  A    between atoms: C_16  and  C_17
REMARK   10  A    between atoms: C_19  and  C_20
REMARK   11  A    between atoms: C_21  and  C_22
REMARK   12  A    between atoms: C_22  and  C_23
REMARK   13  A    between atoms: C_23  and  C_24
REMARK   14  A    between atoms: C_24  and  C_26
REMARK   15  A    between atoms: C_26  and  O_27
REMARK                            x       y       z     vdW  Elec       q    Type
REMARK                         _______ _______ _______ _____ _____    ______ ____
ROOT
ATOM      1  O   UNL     1      35.457 -16.903 -23.227  0.00  0.00    -0.223 OA
ATOM      2  O   UNL     1      36.492 -17.932 -22.962  0.00  0.00    -0.223 OA
ATOM      3  C   UNL     1      33.992 -17.869 -21.560  0.00  0.00    +0.041 C 
ATOM      4  C   UNL     1      35.131 -18.876 -21.239  0.00  0.00    +0.055 C 
ATOM      5  C   UNL     1      34.217 -17.610 -23.061  0.00  0.00    +0.155 C 
ATOM      6  C   UNL     1      35.724 -19.110 -22.644  0.00  0.00    +0.159 C 
ATOM      7  C   UNL     1      34.561 -18.977 -23.602  0.00  0.00    +0.066 C 
ENDROOT
BRANCH   4   8
ATOM      8  C   UNL     1      34.630 -20.129 -20.604  0.00  0.00    -0.026 C 
ATOM      9  C   UNL     1      35.388 -20.936 -19.847  0.00  0.00    +0.002 C 
BRANCH   9  10
ATOM     10  C   UNL     1      34.880 -22.199 -19.209  0.00  0.00    +0.173 C 
BRANCH  10  11
ATOM     11  O   UNL     1      35.648 -22.449 -18.031  0.00  0.00    -0.222 OA
BRANCH  11  12
ATOM     12  O   UNL     1      36.798 -21.570 -18.143  0.00  0.00    -0.249 OA
ATOM     13  H   UNL     1      36.562 -20.797 -18.679  0.00  0.00    +0.253 HD
ENDBRANCH  11  12
ENDBRANCH  10  11
BRANCH  10  14
ATOM     14  C   UNL     1      33.408 -22.104 -18.786  0.00  0.00    +0.037 C 
BRANCH  14  15
ATOM     15  C   UNL     1      33.063 -23.000 -17.593  0.00  0.00    +0.003 C 
BRANCH  15  16
ATOM     16  C   UNL     1      31.665 -22.738 -17.020  0.00  0.00    +0.000 C 
BRANCH  16  17
ATOM     17  C   UNL     1      31.541 -23.083 -15.535  0.00  0.00    +0.000 C 
ATOM     18  C   UNL     1      32.897 -23.414 -14.928  0.00  0.00    +0.000 C 
ENDBRANCH  16  17
ENDBRANCH  15  16
ENDBRANCH  14  15
ENDBRANCH  10  14
ENDBRANCH   9  10
ENDBRANCH   4   8
BRANCH   3  19
ATOM     19  C   UNL     1      34.053 -16.612 -20.702  0.00  0.00    +0.029 C 
BRANCH  19  20
ATOM     20  C   UNL     1      32.794 -15.796 -20.603  0.00  0.00    -0.031 C 
ATOM     21  C   UNL     1      32.489 -14.688 -21.295  0.00  0.00    -0.031 C 
BRANCH  21  22
ATOM     22  C   UNL     1      33.399 -14.070 -22.317  0.00  0.00    +0.026 C 
BRANCH  22  23
ATOM     23  C   UNL     1      32.713 -13.785 -23.661  0.00  0.00    +0.016 C 
BRANCH  23  24
ATOM     24  C   UNL     1      33.649 -13.883 -24.869  0.00  0.00    +0.110 C 
BRANCH  24  26
ATOM     25  O   UNL     1      33.906 -15.975 -26.087  0.00  0.00    -0.250 OA
ATOM     26  C   UNL     1      33.260 -14.961 -25.856  0.00  0.00    +0.314 C 
BRANCH  26  27
ATOM     27  O   UNL     1      32.109 -14.655 -26.507  0.00  0.00    -0.480 OA
ATOM     28  H   UNL     1      31.665 -13.852 -26.322  0.00  0.00    +0.295 HD
ENDBRANCH  26  27
ENDBRANCH  24  26
ENDBRANCH  23  24
ENDBRANCH  22  23
ENDBRANCH  21  22
ENDBRANCH  19  20
ENDBRANCH   3  19
TORSDOF 15
ENDMDL
