MODEL 1
REMARK VINA RESULT:      -7.2      0.000      0.000
REMARK  Name = 8778
REMARK  12 active torsions:
REMARK  status: ('A' for Active; 'I' for Inactive)
REMARK    1  A    between atoms: C_1  and  C_2
REMARK    2  A    between atoms: C_1  and  C_10
REMARK    3  A    between atoms: C_2  and  C_3
REMARK    4  A    between atoms: C_3  and  C_4
REMARK    5  A    between atoms: C_4  and  C_5
REMARK    6  A    between atoms: C_5  and  C_6
REMARK    7  A    between atoms: C_6  and  C_7
REMARK    8  A    between atoms: C_7  and  C_8
REMARK    9  A    between atoms: C_10  and  C_11
REMARK   10  A    between atoms: C_11  and  C_12
REMARK   11  A    between atoms: C_12  and  O_13
REMARK   12  A    between atoms: O_13  and  S_14
REMARK                            x       y       z     vdW  Elec       q    Type
REMARK                         _______ _______ _______ _____ _____    ______ ____
ROOT
ATOM      1  C   UNL     1      32.092 -23.155 -16.598  0.00  0.00    +0.000 C 
ENDROOT
BRANCH   1   2
ATOM      2  C   UNL     1      33.472 -23.257 -17.256  0.00  0.00    +0.000 C 
BRANCH   2   3
ATOM      3  C   UNL     1      33.555 -22.540 -18.605  0.00  0.00    +0.000 C 
BRANCH   3   4
ATOM      4  C   UNL     1      34.967 -22.052 -18.947  0.00  0.00    +0.000 C 
BRANCH   4   5
ATOM      5  C   UNL     1      35.059 -20.968 -20.027  0.00  0.00    +0.000 C 
BRANCH   5   6
ATOM      6  C   UNL     1      33.712 -20.323 -20.359  0.00  0.00    +0.000 C 
BRANCH   6   7
ATOM      7  C   UNL     1      33.818 -19.184 -21.379  0.00  0.00    +0.000 C 
BRANCH   7   8
ATOM      8  C   UNL     1      35.011 -19.323 -22.326  0.00  0.00    +0.000 C 
ATOM      9  C   UNL     1      34.953 -18.293 -23.444  0.00  0.00    +0.000 C 
ENDBRANCH   7   8
ENDBRANCH   6   7
ENDBRANCH   5   6
ENDBRANCH   4   5
ENDBRANCH   3   4
ENDBRANCH   2   3
ENDBRANCH   1   2
BRANCH   1  10
ATOM     10  C   UNL     1      32.123 -23.383 -15.085  0.00  0.00    +0.003 C 
BRANCH  10  11
ATOM     11  C   UNL     1      30.707 -23.565 -14.525  0.00  0.00    +0.035 C 
BRANCH  11  12
ATOM     12  C   UNL     1      29.788 -24.280 -15.508  0.00  0.00    +0.177 C 
BRANCH  12  13
ATOM     13  O   UNL     1      28.454 -23.816 -15.350  0.00  0.00    -0.200 OA
BRANCH  13  14
ATOM     14  S   UNL     1      27.785 -22.860 -16.495  0.00  0.00    +0.239 S 
ATOM     15  O   UNL     1      27.458 -23.896 -17.714  0.00  0.00    -0.116 OA
ATOM     16  O   UNL     1      26.518 -22.378 -15.980  0.00  0.00    -0.022 OA
ATOM     17  O   UNL     1      28.785 -21.920 -16.966  0.00  0.00    -0.116 OA
ENDBRANCH  13  14
ENDBRANCH  12  13
ENDBRANCH  11  12
ENDBRANCH  10  11
ENDBRANCH   1  10
TORSDOF 12
ENDMDL
MODEL 2
REMARK VINA RESULT:      -7.2      0.904      1.459
REMARK  Name = 8778
REMARK  12 active torsions:
REMARK  status: ('A' for Active; 'I' for Inactive)
REMARK    1  A    between atoms: C_1  and  C_2
REMARK    2  A    between atoms: C_1  and  C_10
REMARK    3  A    between atoms: C_2  and  C_3
REMARK    4  A    between atoms: C_3  and  C_4
REMARK    5  A    between atoms: C_4  and  C_5
REMARK    6  A    between atoms: C_5  and  C_6
REMARK    7  A    between atoms: C_6  and  C_7
REMARK    8  A    between atoms: C_7  and  C_8
REMARK    9  A    between atoms: C_10  and  C_11
REMARK   10  A    between atoms: C_11  and  C_12
REMARK   11  A    between atoms: C_12  and  O_13
REMARK   12  A    between atoms: O_13  and  S_14
REMARK                            x       y       z     vdW  Elec       q    Type
REMARK                         _______ _______ _______ _____ _____    ______ ____
ROOT
ATOM      1  C   UNL     1      33.703 -23.249 -17.004  0.00  0.00    +0.000 C 
ENDROOT
BRANCH   1   2
ATOM      2  C   UNL     1      33.111 -22.572 -18.245  0.00  0.00    +0.000 C 
BRANCH   2   3
ATOM      3  C   UNL     1      34.110 -22.434 -19.395  0.00  0.00    +0.000 C 
BRANCH   3   4
ATOM      4  C   UNL     1      34.464 -20.979 -19.722  0.00  0.00    +0.000 C 
BRANCH   4   5
ATOM      5  C   UNL     1      33.421 -20.201 -20.531  0.00  0.00    +0.000 C 
BRANCH   5   6
ATOM      6  C   UNL     1      33.989 -18.961 -21.224  0.00  0.00    +0.000 C 
BRANCH   6   7
ATOM      7  C   UNL     1      35.365 -19.194 -21.856  0.00  0.00    +0.000 C 
BRANCH   7   8
ATOM      8  C   UNL     1      35.565 -18.449 -23.177  0.00  0.00    +0.000 C 
ATOM      9  C   UNL     1      34.626 -18.970 -24.254  0.00  0.00    +0.000 C 
ENDBRANCH   7   8
ENDBRANCH   6   7
ENDBRANCH   5   6
ENDBRANCH   4   5
ENDBRANCH   3   4
ENDBRANCH   2   3
ENDBRANCH   1   2
BRANCH   1  10
ATOM     10  C   UNL     1      32.732 -23.306 -15.822  0.00  0.00    +0.003 C 
BRANCH  10  11
ATOM     11  C   UNL     1      31.329 -23.722 -16.280  0.00  0.00    +0.035 C 
BRANCH  11  12
ATOM     12  C   UNL     1      30.251 -22.783 -15.753  0.00  0.00    +0.177 C 
BRANCH  12  13
ATOM     13  O   UNL     1      29.435 -22.331 -16.825  0.00  0.00    -0.200 OA
BRANCH  13  14
ATOM     14  S   UNL     1      27.820 -22.578 -16.777  0.00  0.00    +0.239 S 
ATOM     15  O   UNL     1      27.608 -23.903 -17.706  0.00  0.00    -0.116 OA
ATOM     16  O   UNL     1      27.472 -22.939 -15.416  0.00  0.00    -0.022 OA
ATOM     17  O   UNL     1      27.154 -21.466 -17.429  0.00  0.00    -0.116 OA
ENDBRANCH  13  14
ENDBRANCH  12  13
ENDBRANCH  11  12
ENDBRANCH  10  11
ENDBRANCH   1  10
TORSDOF 12
ENDMDL
MODEL 3
REMARK VINA RESULT:      -7.1      6.792      7.548
REMARK  Name = 8778
REMARK  12 active torsions:
REMARK  status: ('A' for Active; 'I' for Inactive)
REMARK    1  A    between atoms: C_1  and  C_2
REMARK    2  A    between atoms: C_1  and  C_10
REMARK    3  A    between atoms: C_2  and  C_3
REMARK    4  A    between atoms: C_3  and  C_4
REMARK    5  A    between atoms: C_4  and  C_5
REMARK    6  A    between atoms: C_5  and  C_6
REMARK    7  A    between atoms: C_6  and  C_7
REMARK    8  A    between atoms: C_7  and  C_8
REMARK    9  A    between atoms: C_10  and  C_11
REMARK   10  A    between atoms: C_11  and  C_12
REMARK   11  A    between atoms: C_12  and  O_13
REMARK   12  A    between atoms: O_13  and  S_14
REMARK                            x       y       z     vdW  Elec       q    Type
REMARK                         _______ _______ _______ _____ _____    ______ ____
ROOT
ATOM      1  C   UNL     1      36.797 -21.431 -17.636  0.00  0.00    +0.000 C 
ENDROOT
BRANCH   1   2
ATOM      2  C   UNL     1      35.521 -22.196 -17.998  0.00  0.00    +0.000 C 
BRANCH   2   3
ATOM      3  C   UNL     1      34.994 -21.868 -19.396  0.00  0.00    +0.000 C 
BRANCH   3   4
ATOM      4  C   UNL     1      33.494 -21.554 -19.422  0.00  0.00    +0.000 C 
BRANCH   4   5
ATOM      5  C   UNL     1      33.085 -20.298 -20.200  0.00  0.00    +0.000 C 
BRANCH   5   6
ATOM      6  C   UNL     1      34.055 -19.936 -21.327  0.00  0.00    +0.000 C 
BRANCH   6   7
ATOM      7  C   UNL     1      34.803 -18.621 -21.085  0.00  0.00    +0.000 C 
BRANCH   7   8
ATOM      8  C   UNL     1      35.744 -18.236 -22.227  0.00  0.00    +0.000 C 
ATOM      9  C   UNL     1      35.203 -18.699 -23.571  0.00  0.00    +0.000 C 
ENDBRANCH   7   8
ENDBRANCH   6   7
ENDBRANCH   5   6
ENDBRANCH   4   5
ENDBRANCH   3   4
ENDBRANCH   2   3
ENDBRANCH   1   2
BRANCH   1  10
ATOM     10  C   UNL     1      37.612 -22.101 -16.527  0.00  0.00    +0.003 C 
BRANCH  10  11
ATOM     11  C   UNL     1      36.782 -23.162 -15.796  0.00  0.00    +0.035 C 
BRANCH  11  12
ATOM     12  C   UNL     1      37.619 -23.963 -14.805  0.00  0.00    +0.177 C 
BRANCH  12  13
ATOM     13  O   UNL     1      38.885 -24.266 -15.373  0.00  0.00    -0.200 OA
BRANCH  13  14
ATOM     14  S   UNL     1      39.784 -25.483 -14.754  0.00  0.00    +0.239 S 
ATOM     15  O   UNL     1      40.622 -26.033 -16.042  0.00  0.00    -0.116 OA
ATOM     16  O   UNL     1      40.737 -24.898 -13.830  0.00  0.00    -0.022 OA
ATOM     17  O   UNL     1      38.899 -26.544 -14.313  0.00  0.00    -0.116 OA
ENDBRANCH  13  14
ENDBRANCH  12  13
ENDBRANCH  11  12
ENDBRANCH  10  11
ENDBRANCH   1  10
TORSDOF 12
ENDMDL
MODEL 4
REMARK VINA RESULT:      -7.1      1.028      2.252
REMARK  Name = 8778
REMARK  12 active torsions:
REMARK  status: ('A' for Active; 'I' for Inactive)
REMARK    1  A    between atoms: C_1  and  C_2
REMARK    2  A    between atoms: C_1  and  C_10
REMARK    3  A    between atoms: C_2  and  C_3
REMARK    4  A    between atoms: C_3  and  C_4
REMARK    5  A    between atoms: C_4  and  C_5
REMARK    6  A    between atoms: C_5  and  C_6
REMARK    7  A    between atoms: C_6  and  C_7
REMARK    8  A    between atoms: C_7  and  C_8
REMARK    9  A    between atoms: C_10  and  C_11
REMARK   10  A    between atoms: C_11  and  C_12
REMARK   11  A    between atoms: C_12  and  O_13
REMARK   12  A    between atoms: O_13  and  S_14
REMARK                            x       y       z     vdW  Elec       q    Type
REMARK                         _______ _______ _______ _____ _____    ______ ____
ROOT
ATOM      1  C   UNL     1      31.893 -23.106 -14.972  0.00  0.00    +0.000 C 
ENDROOT
BRANCH   1   2
ATOM      2  C   UNL     1      33.401 -23.371 -14.939  0.00  0.00    +0.000 C 
BRANCH   2   3
ATOM      3  C   UNL     1      34.061 -23.291 -16.317  0.00  0.00    +0.000 C 
BRANCH   3   4
ATOM      4  C   UNL     1      33.061 -23.081 -17.459  0.00  0.00    +0.000 C 
BRANCH   4   5
ATOM      5  C   UNL     1      33.665 -22.872 -18.852  0.00  0.00    +0.000 C 
BRANCH   5   6
ATOM      6  C   UNL     1      34.983 -22.095 -18.833  0.00  0.00    +0.000 C 
BRANCH   6   7
ATOM      7  C   UNL     1      35.028 -20.951 -19.851  0.00  0.00    +0.000 C 
BRANCH   7   8
ATOM      8  C   UNL     1      33.644 -20.472 -20.293  0.00  0.00    +0.000 C 
ATOM      9  C   UNL     1      33.736 -19.201 -21.122  0.00  0.00    +0.000 C 
ENDBRANCH   7   8
ENDBRANCH   6   7
ENDBRANCH   5   6
ENDBRANCH   4   5
ENDBRANCH   3   4
ENDBRANCH   2   3
ENDBRANCH   1   2
BRANCH   1  10
ATOM     10  C   UNL     1      31.135 -23.769 -13.820  0.00  0.00    +0.003 C 
BRANCH  10  11
ATOM     11  C   UNL     1      30.247 -24.911 -14.328  0.00  0.00    +0.035 C 
BRANCH  11  12
ATOM     12  C   UNL     1      29.911 -24.763 -15.807  0.00  0.00    +0.177 C 
BRANCH  12  13
ATOM     13  O   UNL     1      28.578 -24.295 -15.957  0.00  0.00    -0.200 OA
BRANCH  13  14
ATOM     14  S   UNL     1      28.288 -22.927 -16.805  0.00  0.00    +0.239 S 
ATOM     15  O   UNL     1      27.582 -21.942 -15.712  0.00  0.00    -0.116 OA
ATOM     16  O   UNL     1      29.571 -22.346 -17.152  0.00  0.00    -0.022 OA
ATOM     17  O   UNL     1      27.314 -23.214 -17.842  0.00  0.00    -0.116 OA
ENDBRANCH  13  14
ENDBRANCH  12  13
ENDBRANCH  11  12
ENDBRANCH  10  11
ENDBRANCH   1  10
TORSDOF 12
ENDMDL
MODEL 5
REMARK VINA RESULT:      -7.0      1.732      2.852
REMARK  Name = 8778
REMARK  12 active torsions:
REMARK  status: ('A' for Active; 'I' for Inactive)
REMARK    1  A    between atoms: C_1  and  C_2
REMARK    2  A    between atoms: C_1  and  C_10
REMARK    3  A    between atoms: C_2  and  C_3
REMARK    4  A    between atoms: C_3  and  C_4
REMARK    5  A    between atoms: C_4  and  C_5
REMARK    6  A    between atoms: C_5  and  C_6
REMARK    7  A    between atoms: C_6  and  C_7
REMARK    8  A    between atoms: C_7  and  C_8
REMARK    9  A    between atoms: C_10  and  C_11
REMARK   10  A    between atoms: C_11  and  C_12
REMARK   11  A    between atoms: C_12  and  O_13
REMARK   12  A    between atoms: O_13  and  S_14
REMARK                            x       y       z     vdW  Elec       q    Type
REMARK                         _______ _______ _______ _____ _____    ______ ____
ROOT
ATOM      1  C   UNL     1      33.957 -22.608 -18.780  0.00  0.00    +0.000 C 
ENDROOT
BRANCH   1   2
ATOM      2  C   UNL     1      34.383 -21.369 -19.573  0.00  0.00    +0.000 C 
BRANCH   2   3
ATOM      3  C   UNL     1      33.203 -20.529 -20.066  0.00  0.00    +0.000 C 
BRANCH   3   4
ATOM      4  C   UNL     1      33.574 -19.563 -21.196  0.00  0.00    +0.000 C 
BRANCH   4   5
ATOM      5  C   UNL     1      35.072 -19.396 -21.472  0.00  0.00    +0.000 C 
BRANCH   5   6
ATOM      6  C   UNL     1      35.550 -17.945 -21.387  0.00  0.00    +0.000 C 
BRANCH   6   7
ATOM      7  C   UNL     1      34.434 -16.923 -21.629  0.00  0.00    +0.000 C 
BRANCH   7   8
ATOM      8  C   UNL     1      34.483 -15.729 -20.675  0.00  0.00    +0.000 C 
ATOM      9  C   UNL     1      33.110 -15.097 -20.507  0.00  0.00    +0.000 C 
ENDBRANCH   7   8
ENDBRANCH   6   7
ENDBRANCH   5   6
ENDBRANCH   4   5
ENDBRANCH   3   4
ENDBRANCH   2   3
ENDBRANCH   1   2
BRANCH   1  10
ATOM     10  C   UNL     1      32.630 -22.426 -18.038  0.00  0.00    +0.003 C 
BRANCH  10  11
ATOM     11  C   UNL     1      32.604 -23.248 -16.744  0.00  0.00    +0.035 C 
BRANCH  11  12
ATOM     12  C   UNL     1      31.260 -23.154 -16.030  0.00  0.00    +0.177 C 
BRANCH  12  13
ATOM     13  O   UNL     1      30.267 -22.680 -16.929  0.00  0.00    -0.200 OA
BRANCH  13  14
ATOM     14  S   UNL     1      28.693 -23.028 -16.656  0.00  0.00    +0.239 S 
ATOM     15  O   UNL     1      28.751 -24.404 -15.781  0.00  0.00    -0.116 OA
ATOM     16  O   UNL     1      28.156 -21.988 -15.799  0.00  0.00    -0.022 OA
ATOM     17  O   UNL     1      28.052 -23.332 -17.922  0.00  0.00    -0.116 OA
ENDBRANCH  13  14
ENDBRANCH  12  13
ENDBRANCH  11  12
ENDBRANCH  10  11
ENDBRANCH   1  10
TORSDOF 12
ENDMDL
MODEL 6
REMARK VINA RESULT:      -7.0      5.799      6.681
REMARK  Name = 8778
REMARK  12 active torsions:
REMARK  status: ('A' for Active; 'I' for Inactive)
REMARK    1  A    between atoms: C_1  and  C_2
REMARK    2  A    between atoms: C_1  and  C_10
REMARK    3  A    between atoms: C_2  and  C_3
REMARK    4  A    between atoms: C_3  and  C_4
REMARK    5  A    between atoms: C_4  and  C_5
REMARK    6  A    between atoms: C_5  and  C_6
REMARK    7  A    between atoms: C_6  and  C_7
REMARK    8  A    between atoms: C_7  and  C_8
REMARK    9  A    between atoms: C_10  and  C_11
REMARK   10  A    between atoms: C_11  and  C_12
REMARK   11  A    between atoms: C_12  and  O_13
REMARK   12  A    between atoms: O_13  and  S_14
REMARK                            x       y       z     vdW  Elec       q    Type
REMARK                         _______ _______ _______ _____ _____    ______ ____
ROOT
ATOM      1  C   UNL     1      37.435 -23.736 -14.619  0.00  0.00    +0.000 C 
ENDROOT
BRANCH   1   2
ATOM      2  C   UNL     1      36.517 -23.129 -15.685  0.00  0.00    +0.000 C 
BRANCH   2   3
ATOM      3  C   UNL     1      37.090 -21.865 -16.330  0.00  0.00    +0.000 C 
BRANCH   3   4
ATOM      4  C   UNL     1      36.807 -21.768 -17.833  0.00  0.00    +0.000 C 
BRANCH   4   5
ATOM      5  C   UNL     1      35.360 -22.038 -18.262  0.00  0.00    +0.000 C 
BRANCH   5   6
ATOM      6  C   UNL     1      34.955 -21.299 -19.538  0.00  0.00    +0.000 C 
BRANCH   6   7
ATOM      7  C   UNL     1      33.443 -21.085 -19.663  0.00  0.00    +0.000 C 
BRANCH   7   8
ATOM      8  C   UNL     1      33.047 -20.204 -20.849  0.00  0.00    +0.000 C 
ATOM      9  C   UNL     1      34.102 -19.146 -21.130  0.00  0.00    +0.000 C 
ENDBRANCH   7   8
ENDBRANCH   6   7
ENDBRANCH   5   6
ENDBRANCH   4   5
ENDBRANCH   3   4
ENDBRANCH   2   3
ENDBRANCH   1   2
BRANCH   1  10
ATOM     10  C   UNL     1      37.837 -25.182 -14.917  0.00  0.00    +0.003 C 
BRANCH  10  11
ATOM     11  C   UNL     1      37.408 -26.120 -13.783  0.00  0.00    +0.035 C 
BRANCH  11  12
ATOM     12  C   UNL     1      37.711 -25.536 -12.408  0.00  0.00    +0.177 C 
BRANCH  12  13
ATOM     13  O   UNL     1      36.545 -25.573 -11.598  0.00  0.00    -0.200 OA
BRANCH  13  14
ATOM     14  S   UNL     1      36.001 -24.202 -10.892  0.00  0.00    +0.239 S 
ATOM     15  O   UNL     1      34.844 -23.678 -11.917  0.00  0.00    -0.116 OA
ATOM     16  O   UNL     1      35.349 -24.576  -9.652  0.00  0.00    -0.022 OA
ATOM     17  O   UNL     1      37.069 -23.220 -10.887  0.00  0.00    -0.116 OA
ENDBRANCH  13  14
ENDBRANCH  12  13
ENDBRANCH  11  12
ENDBRANCH  10  11
ENDBRANCH   1  10
TORSDOF 12
ENDMDL
MODEL 7
REMARK VINA RESULT:      -7.0      4.691      7.086
REMARK  Name = 8778
REMARK  12 active torsions:
REMARK  status: ('A' for Active; 'I' for Inactive)
REMARK    1  A    between atoms: C_1  and  C_2
REMARK    2  A    between atoms: C_1  and  C_10
REMARK    3  A    between atoms: C_2  and  C_3
REMARK    4  A    between atoms: C_3  and  C_4
REMARK    5  A    between atoms: C_4  and  C_5
REMARK    6  A    between atoms: C_5  and  C_6
REMARK    7  A    between atoms: C_6  and  C_7
REMARK    8  A    between atoms: C_7  and  C_8
REMARK    9  A    between atoms: C_10  and  C_11
REMARK   10  A    between atoms: C_11  and  C_12
REMARK   11  A    between atoms: C_12  and  O_13
REMARK   12  A    between atoms: O_13  and  S_14
REMARK                            x       y       z     vdW  Elec       q    Type
REMARK                         _______ _______ _______ _____ _____    ______ ____
ROOT
ATOM      1  C   UNL     1      34.766 -18.274 -22.301  0.00  0.00    +0.000 C 
ENDROOT
BRANCH   1   2
ATOM      2  C   UNL     1      34.748 -18.857 -23.717  0.00  0.00    +0.000 C 
BRANCH   2   3
ATOM      3  C   UNL     1      34.604 -17.795 -24.808  0.00  0.00    +0.000 C 
BRANCH   3   4
ATOM      4  C   UNL     1      34.865 -16.370 -24.308  0.00  0.00    +0.000 C 
BRANCH   4   5
ATOM      5  C   UNL     1      33.672 -15.409 -24.365  0.00  0.00    +0.000 C 
BRANCH   5   6
ATOM      6  C   UNL     1      33.818 -14.202 -23.435  0.00  0.00    +0.000 C 
BRANCH   6   7
ATOM      7  C   UNL     1      32.723 -14.123 -22.367  0.00  0.00    +0.000 C 
BRANCH   7   8
ATOM      8  C   UNL     1      32.802 -15.243 -21.328  0.00  0.00    +0.000 C 
ATOM      9  C   UNL     1      34.076 -15.145 -20.503  0.00  0.00    +0.000 C 
ENDBRANCH   7   8
ENDBRANCH   6   7
ENDBRANCH   5   6
ENDBRANCH   4   5
ENDBRANCH   3   4
ENDBRANCH   2   3
ENDBRANCH   1   2
BRANCH   1  10
ATOM     10  C   UNL     1      34.557 -19.326 -21.208  0.00  0.00    +0.003 C 
BRANCH  10  11
ATOM     11  C   UNL     1      35.895 -19.908 -20.740  0.00  0.00    +0.035 C 
BRANCH  11  12
ATOM     12  C   UNL     1      35.709 -21.106 -19.816  0.00  0.00    +0.177 C 
BRANCH  12  13
ATOM     13  O   UNL     1      34.324 -21.340 -19.600  0.00  0.00    -0.200 OA
BRANCH  13  14
ATOM     14  S   UNL     1      33.848 -22.583 -18.649  0.00  0.00    +0.239 S 
ATOM     15  O   UNL     1      33.977 -23.883 -19.626  0.00  0.00    -0.116 OA
ATOM     16  O   UNL     1      34.833 -22.729 -17.594  0.00  0.00    -0.022 OA
ATOM     17  O   UNL     1      32.446 -22.412 -18.318  0.00  0.00    -0.116 OA
ENDBRANCH  13  14
ENDBRANCH  12  13
ENDBRANCH  11  12
ENDBRANCH  10  11
ENDBRANCH   1  10
TORSDOF 12
ENDMDL
MODEL 8
REMARK VINA RESULT:      -6.9      4.610      6.697
REMARK  Name = 8778
REMARK  12 active torsions:
REMARK  status: ('A' for Active; 'I' for Inactive)
REMARK    1  A    between atoms: C_1  and  C_2
REMARK    2  A    between atoms: C_1  and  C_10
REMARK    3  A    between atoms: C_2  and  C_3
REMARK    4  A    between atoms: C_3  and  C_4
REMARK    5  A    between atoms: C_4  and  C_5
REMARK    6  A    between atoms: C_5  and  C_6
REMARK    7  A    between atoms: C_6  and  C_7
REMARK    8  A    between atoms: C_7  and  C_8
REMARK    9  A    between atoms: C_10  and  C_11
REMARK   10  A    between atoms: C_11  and  C_12
REMARK   11  A    between atoms: C_12  and  O_13
REMARK   12  A    between atoms: O_13  and  S_14
REMARK                            x       y       z     vdW  Elec       q    Type
REMARK                         _______ _______ _______ _____ _____    ______ ____
ROOT
ATOM      1  C   UNL     1      34.020 -18.290 -21.187  0.00  0.00    +0.000 C 
ENDROOT
BRANCH   1   2
ATOM      2  C   UNL     1      35.108 -17.224 -21.028  0.00  0.00    +0.000 C 
BRANCH   2   3
ATOM      3  C   UNL     1      34.555 -15.841 -20.678  0.00  0.00    +0.000 C 
BRANCH   3   4
ATOM      4  C   UNL     1      33.241 -15.513 -21.395  0.00  0.00    +0.000 C 
BRANCH   4   5
ATOM      5  C   UNL     1      33.259 -14.273 -22.296  0.00  0.00    +0.000 C 
BRANCH   5   6
ATOM      6  C   UNL     1      34.103 -14.451 -23.559  0.00  0.00    +0.000 C 
BRANCH   6   7
ATOM      7  C   UNL     1      33.731 -15.697 -24.369  0.00  0.00    +0.000 C 
BRANCH   7   8
ATOM      8  C   UNL     1      34.916 -16.626 -24.638  0.00  0.00    +0.000 C 
ATOM      9  C   UNL     1      34.450 -18.009 -25.067  0.00  0.00    +0.000 C 
ENDBRANCH   7   8
ENDBRANCH   6   7
ENDBRANCH   5   6
ENDBRANCH   4   5
ENDBRANCH   3   4
ENDBRANCH   2   3
ENDBRANCH   1   2
BRANCH   1  10
ATOM     10  C   UNL     1      34.575 -19.676 -21.527  0.00  0.00    +0.003 C 
BRANCH  10  11
ATOM     11  C   UNL     1      35.768 -20.028 -20.632  0.00  0.00    +0.035 C 
BRANCH  11  12
ATOM     12  C   UNL     1      35.568 -21.351 -19.902  0.00  0.00    +0.177 C 
BRANCH  12  13
ATOM     13  O   UNL     1      34.343 -21.327 -19.182  0.00  0.00    -0.200 OA
BRANCH  13  14
ATOM     14  S   UNL     1      33.801 -22.686 -18.454  0.00  0.00    +0.239 S 
ATOM     15  O   UNL     1      33.968 -23.829 -19.607  0.00  0.00    -0.116 OA
ATOM     16  O   UNL     1      34.724 -23.008 -17.383  0.00  0.00    -0.022 OA
ATOM     17  O   UNL     1      32.385 -22.538 -18.175  0.00  0.00    -0.116 OA
ENDBRANCH  13  14
ENDBRANCH  12  13
ENDBRANCH  11  12
ENDBRANCH  10  11
ENDBRANCH   1  10
TORSDOF 12
ENDMDL
MODEL 9
REMARK VINA RESULT:      -6.9      5.671      6.475
REMARK  Name = 8778
REMARK  12 active torsions:
REMARK  status: ('A' for Active; 'I' for Inactive)
REMARK    1  A    between atoms: C_1  and  C_2
REMARK    2  A    between atoms: C_1  and  C_10
REMARK    3  A    between atoms: C_2  and  C_3
REMARK    4  A    between atoms: C_3  and  C_4
REMARK    5  A    between atoms: C_4  and  C_5
REMARK    6  A    between atoms: C_5  and  C_6
REMARK    7  A    between atoms: C_6  and  C_7
REMARK    8  A    between atoms: C_7  and  C_8
REMARK    9  A    between atoms: C_10  and  C_11
REMARK   10  A    between atoms: C_11  and  C_12
REMARK   11  A    between atoms: C_12  and  O_13
REMARK   12  A    between atoms: O_13  and  S_14
REMARK                            x       y       z     vdW  Elec       q    Type
REMARK                         _______ _______ _______ _____ _____    ______ ____
ROOT
ATOM      1  C   UNL     1      36.883 -21.683 -17.807  0.00  0.00    +0.000 C 
ENDROOT
BRANCH   1   2
ATOM      2  C   UNL     1      35.455 -22.052 -18.221  0.00  0.00    +0.000 C 
BRANCH   2   3
ATOM      3  C   UNL     1      35.029 -21.424 -19.550  0.00  0.00    +0.000 C 
BRANCH   3   4
ATOM      4  C   UNL     1      33.513 -21.244 -19.678  0.00  0.00    +0.000 C 
BRANCH   4   5
ATOM      5  C   UNL     1      33.047 -20.073 -20.550  0.00  0.00    +0.000 C 
BRANCH   5   6
ATOM      6  C   UNL     1      34.191 -19.176 -21.027  0.00  0.00    +0.000 C 
BRANCH   6   7
ATOM      7  C   UNL     1      34.546 -19.377 -22.503  0.00  0.00    +0.000 C 
BRANCH   7   8
ATOM      8  C   UNL     1      35.584 -18.380 -23.022  0.00  0.00    +0.000 C 
ATOM      9  C   UNL     1      34.948 -17.342 -23.934  0.00  0.00    +0.000 C 
ENDBRANCH   7   8
ENDBRANCH   6   7
ENDBRANCH   5   6
ENDBRANCH   4   5
ENDBRANCH   3   4
ENDBRANCH   2   3
ENDBRANCH   1   2
BRANCH   1  10
ATOM     10  C   UNL     1      37.155 -21.892 -16.315  0.00  0.00    +0.003 C 
BRANCH  10  11
ATOM     11  C   UNL     1      36.315 -23.046 -15.756  0.00  0.00    +0.035 C 
BRANCH  11  12
ATOM     12  C   UNL     1      37.103 -23.911 -14.779  0.00  0.00    +0.177 C 
BRANCH  12  13
ATOM     13  O   UNL     1      37.520 -23.129 -13.668  0.00  0.00    -0.200 OA
BRANCH  13  14
ATOM     14  S   UNL     1      36.982 -23.496 -12.169  0.00  0.00    +0.239 S 
ATOM     15  O   UNL     1      37.617 -24.973 -11.886  0.00  0.00    -0.116 OA
ATOM     16  O   UNL     1      37.602 -22.569 -11.241  0.00  0.00    -0.022 OA
ATOM     17  O   UNL     1      35.538 -23.632 -12.207  0.00  0.00    -0.116 OA
ENDBRANCH  13  14
ENDBRANCH  12  13
ENDBRANCH  11  12
ENDBRANCH  10  11
ENDBRANCH   1  10
TORSDOF 12
ENDMDL
