MODEL 1
REMARK VINA RESULT:      -7.8      0.000      0.000
REMARK  Name = 9952884
REMARK  4 active torsions:
REMARK  status: ('A' for Active; 'I' for Inactive)
REMARK    1  A    between atoms: C_7  and  N_22
REMARK    2  A    between atoms: C_8  and  O_26
REMARK    3  A    between atoms: C_18  and  C_29
REMARK    4  A    between atoms: C_29  and  O_30
REMARK                            x       y       z     vdW  Elec       q    Type
REMARK                         _______ _______ _______ _____ _____    ______ ____
ROOT
ATOM      1  S   UNL     1      31.166 -24.026 -16.877  0.00  0.00    -0.050 S 
ATOM      2  O   UNL     1      36.121 -20.947 -19.679  0.00  0.00    -0.290 OA
ATOM      3  N   UNL     1      37.198 -23.958 -14.252  0.00  0.00    -0.283 N 
ATOM      4  N   UNL     1      35.400 -23.364 -15.642  0.00  0.00    -0.375 NA
ATOM      5  N   UNL     1      33.523 -22.753 -17.076  0.00  0.00    -0.222 N 
ATOM      6  N   UNL     1      32.788 -23.513 -14.930  0.00  0.00    -0.222 NA
ATOM      7  C   UNL     1      37.264 -24.862 -12.060  0.00  0.00    -0.012 C 
ATOM      8  C   UNL     1      38.636 -25.019 -12.714  0.00  0.00    +0.117 C 
ATOM      9  C   UNL     1      36.340 -24.615 -13.265  0.00  0.00    +0.074 C 
ATOM     10  C   UNL     1      38.614 -24.037 -13.887  0.00  0.00    +0.120 C 
ATOM     11  C   UNL     1      36.731 -23.356 -15.402  0.00  0.00    +0.184 C 
ATOM     12  C   UNL     1      37.664 -22.778 -16.236  0.00  0.00    +0.044 C 
ATOM     13  C   UNL     1      34.935 -22.776 -16.779  0.00  0.00    +0.182 C 
ATOM     14  C   UNL     1      35.831 -22.156 -17.666  0.00  0.00    +0.151 C 
ATOM     15  C   UNL     1      37.202 -22.163 -17.390  0.00  0.00    -0.006 C 
ATOM     16  C   UNL     1      35.347 -21.476 -18.890  0.00  0.00    +0.192 C 
ATOM     17  C   UNL     1      33.106 -22.076 -18.219  0.00  0.00    +0.083 C 
ATOM     18  C   UNL     1      33.884 -21.458 -19.113  0.00  0.00    +0.126 C 
ATOM     19  C   UNL     1      32.620 -23.375 -16.230  0.00  0.00    +0.172 C 
ATOM     20  C   UNL     1      30.718 -24.539 -15.303  0.00  0.00    +0.059 C 
ATOM     21  C   UNL     1      31.699 -24.178 -14.403  0.00  0.00    +0.108 C 
ENDROOT
BRANCH   7  22
ATOM     22  N   UNL     1      37.248 -23.721 -11.144  0.00  0.00    +0.386 N 
ATOM     23  C   UNL     1      35.937 -23.568 -10.534  0.00  0.00    -0.105 C 
ATOM     24  H   UNL     1      37.477 -22.872 -11.662  0.00  0.00    -0.084 HD
ATOM     25  H   UNL     1      37.936 -23.882 -10.408  0.00  0.00    -0.084 HD
ENDBRANCH   7  22
BRANCH   8  26
ATOM     26  O   UNL     1      38.776 -26.344 -13.225  0.00  0.00    -0.354 OA
ATOM     27  C   UNL     1      39.651 -26.375 -14.344  0.00  0.00    +0.174 C 
ENDBRANCH   8  26
BRANCH  18  29
ATOM     28  O   UNL     1      32.274 -21.248 -20.850  0.00  0.00    -0.245 OA
ATOM     29  C   UNL     1      33.249 -20.812 -20.263  0.00  0.00    +0.342 C 
BRANCH  29  30
ATOM     30  O   UNL     1      33.908 -19.673 -20.564  0.00  0.00    -0.477 OA
ATOM     31  H   UNL     1      34.655 -19.417 -20.062  0.00  0.00    +0.295 HD
ENDBRANCH  29  30
ENDBRANCH  18  29
TORSDOF 4
ENDMDL
MODEL 2
REMARK VINA RESULT:      -7.6     10.128     13.796
REMARK  Name = 9952884
REMARK  4 active torsions:
REMARK  status: ('A' for Active; 'I' for Inactive)
REMARK    1  A    between atoms: C_7  and  N_22
REMARK    2  A    between atoms: C_8  and  O_26
REMARK    3  A    between atoms: C_18  and  C_29
REMARK    4  A    between atoms: C_29  and  O_30
REMARK                            x       y       z     vdW  Elec       q    Type
REMARK                         _______ _______ _______ _____ _____    ______ ____
ROOT
ATOM      1  S   UNL     1      35.145  -9.370 -25.286  0.00  0.00    -0.050 S 
ATOM      2  O   UNL     1      30.973 -10.469 -20.462  0.00  0.00    -0.290 OA
ATOM      3  N   UNL     1      33.955 -15.415 -22.979  0.00  0.00    -0.283 N 
ATOM      4  N   UNL     1      33.680 -13.112 -23.351  0.00  0.00    -0.375 NA
ATOM      5  N   UNL     1      33.403 -10.721 -23.752  0.00  0.00    -0.222 N 
ATOM      6  N   UNL     1      34.402 -11.822 -25.625  0.00  0.00    -0.222 NA
ATOM      7  C   UNL     1      34.930 -17.120 -24.306  0.00  0.00    -0.012 C 
ATOM      8  C   UNL     1      34.768 -17.625 -22.873  0.00  0.00    +0.117 C 
ATOM      9  C   UNL     1      34.822 -15.595 -24.143  0.00  0.00    +0.074 C 
ATOM     10  C   UNL     1      33.755 -16.665 -22.244  0.00  0.00    +0.120 C 
ATOM     11  C   UNL     1      33.407 -14.205 -22.603  0.00  0.00    +0.184 C 
ATOM     12  C   UNL     1      32.608 -14.194 -21.480  0.00  0.00    +0.044 C 
ATOM     13  C   UNL     1      33.146 -11.914 -22.982  0.00  0.00    +0.182 C 
ATOM     14  C   UNL     1      32.312 -11.835 -21.854  0.00  0.00    +0.151 C 
ATOM     15  C   UNL     1      32.048 -12.984 -21.101  0.00  0.00    -0.006 C 
ATOM     16  C   UNL     1      31.688 -10.552 -21.453  0.00  0.00    +0.192 C 
ATOM     17  C   UNL     1      32.773  -9.542 -23.361  0.00  0.00    +0.083 C 
ATOM     18  C   UNL     1      31.964  -9.377 -22.309  0.00  0.00    +0.126 C 
ATOM     19  C   UNL     1      34.239 -10.765 -24.854  0.00  0.00    +0.172 C 
ATOM     20  C   UNL     1      35.816 -10.236 -26.605  0.00  0.00    +0.059 C 
ATOM     21  C   UNL     1      35.304 -11.517 -26.625  0.00  0.00    +0.108 C 
ENDROOT
BRANCH   7  22
ATOM     22  N   UNL     1      33.863 -17.634 -25.166  0.00  0.00    +0.386 N 
ATOM     23  C   UNL     1      33.909 -19.086 -25.233  0.00  0.00    -0.105 C 
ATOM     24  H   UNL     1      33.977 -17.252 -26.105  0.00  0.00    -0.084 HD
ATOM     25  H   UNL     1      32.963 -17.352 -24.776  0.00  0.00    -0.084 HD
ENDBRANCH   7  22
BRANCH   8  26
ATOM     26  O   UNL     1      36.007 -17.507 -22.177  0.00  0.00    -0.354 OA
ATOM     27  C   UNL     1      36.223 -18.615 -21.315  0.00  0.00    +0.174 C 
ENDBRANCH   8  26
BRANCH  18  29
ATOM     28  O   UNL     1      30.755  -7.406 -22.863  0.00  0.00    -0.245 OA
ATOM     29  C   UNL     1      31.409  -8.046 -22.057  0.00  0.00    +0.342 C 
BRANCH  29  30
ATOM     30  O   UNL     1      31.732  -7.648 -20.808  0.00  0.00    -0.477 OA
ATOM     31  H   UNL     1      31.258  -7.982 -20.073  0.00  0.00    +0.295 HD
ENDBRANCH  29  30
ENDBRANCH  18  29
TORSDOF 4
ENDMDL
MODEL 3
REMARK VINA RESULT:      -7.5      2.248      6.887
REMARK  Name = 9952884
REMARK  4 active torsions:
REMARK  status: ('A' for Active; 'I' for Inactive)
REMARK    1  A    between atoms: C_7  and  N_22
REMARK    2  A    between atoms: C_8  and  O_26
REMARK    3  A    between atoms: C_18  and  C_29
REMARK    4  A    between atoms: C_29  and  O_30
REMARK                            x       y       z     vdW  Elec       q    Type
REMARK                         _______ _______ _______ _____ _____    ______ ____
ROOT
ATOM      1  S   UNL     1      31.480 -23.446 -13.235  0.00  0.00    -0.050 S 
ATOM      2  O   UNL     1      37.887 -23.420 -12.324  0.00  0.00    -0.290 OA
ATOM      3  N   UNL     1      35.713 -22.090 -18.085  0.00  0.00    -0.283 N 
ATOM      4  N   UNL     1      34.923 -22.841 -16.004  0.00  0.00    -0.375 NA
ATOM      5  N   UNL     1      34.089 -23.621 -13.848  0.00  0.00    -0.222 N 
ATOM      6  N   UNL     1      32.464 -23.903 -15.581  0.00  0.00    -0.222 NA
ATOM      7  C   UNL     1      34.673 -21.963 -20.212  0.00  0.00    -0.012 C 
ATOM      8  C   UNL     1      35.941 -21.111 -20.217  0.00  0.00    +0.117 C 
ATOM      9  C   UNL     1      34.391 -22.144 -18.711  0.00  0.00    +0.074 C 
ATOM     10  C   UNL     1      36.740 -21.610 -19.011  0.00  0.00    +0.120 C 
ATOM     11  C   UNL     1      35.959 -22.429 -16.771  0.00  0.00    +0.184 C 
ATOM     12  C   UNL     1      37.259 -22.327 -16.323  0.00  0.00    +0.044 C 
ATOM     13  C   UNL     1      35.160 -23.171 -14.704  0.00  0.00    +0.182 C 
ATOM     14  C   UNL     1      36.466 -23.102 -14.188  0.00  0.00    +0.151 C 
ATOM     15  C   UNL     1      37.516 -22.674 -15.006  0.00  0.00    -0.006 C 
ATOM     16  C   UNL     1      36.756 -23.493 -12.789  0.00  0.00    +0.192 C 
ATOM     17  C   UNL     1      34.408 -24.010 -12.550  0.00  0.00    +0.083 C 
ATOM     18  C   UNL     1      35.617 -23.981 -11.980  0.00  0.00    +0.126 C 
ATOM     19  C   UNL     1      32.790 -23.678 -14.323  0.00  0.00    +0.172 C 
ATOM     20  C   UNL     1      30.385 -23.657 -14.537  0.00  0.00    +0.059 C 
ATOM     21  C   UNL     1      31.088 -23.891 -15.700  0.00  0.00    +0.108 C 
ENDROOT
BRANCH   7  22
ATOM     22  N   UNL     1      34.906 -23.253 -20.862  0.00  0.00    +0.386 N 
ATOM     23  C   UNL     1      34.136 -24.303 -20.213  0.00  0.00    -0.105 C 
ATOM     24  H   UNL     1      35.898 -23.482 -20.804  0.00  0.00    -0.084 HD
ATOM     25  H   UNL     1      34.614 -23.187 -21.837  0.00  0.00    -0.084 HD
ENDBRANCH   7  22
BRANCH   8  26
ATOM     26  O   UNL     1      35.602 -19.741 -20.010  0.00  0.00    -0.354 OA
ATOM     27  C   UNL     1      34.768 -19.252 -21.050  0.00  0.00    +0.174 C 
ENDBRANCH   8  26
BRANCH  18  29
ATOM     28  O   UNL     1      35.182 -25.394 -10.117  0.00  0.00    -0.245 OA
ATOM     29  C   UNL     1      35.744 -24.421 -10.588  0.00  0.00    +0.342 C 
BRANCH  29  30
ATOM     30  O   UNL     1      36.571 -23.587  -9.923  0.00  0.00    -0.477 OA
ATOM     31  H   UNL     1      36.447 -22.660  -9.979  0.00  0.00    +0.295 HD
ENDBRANCH  29  30
ENDBRANCH  18  29
TORSDOF 4
ENDMDL
MODEL 4
REMARK VINA RESULT:      -7.2     11.077     15.404
REMARK  Name = 9952884
REMARK  4 active torsions:
REMARK  status: ('A' for Active; 'I' for Inactive)
REMARK    1  A    between atoms: C_7  and  N_22
REMARK    2  A    between atoms: C_8  and  O_26
REMARK    3  A    between atoms: C_18  and  C_29
REMARK    4  A    between atoms: C_29  and  O_30
REMARK                            x       y       z     vdW  Elec       q    Type
REMARK                         _______ _______ _______ _____ _____    ______ ____
ROOT
ATOM      1  S   UNL     1      32.862 -14.590 -25.834  0.00  0.00    -0.050 S 
ATOM      2  O   UNL     1      32.043 -14.479 -19.415  0.00  0.00    -0.290 OA
ATOM      3  N   UNL     1      32.257  -8.971 -22.465  0.00  0.00    -0.283 N 
ATOM      4  N   UNL     1      32.586 -11.260 -22.879  0.00  0.00    -0.375 NA
ATOM      5  N   UNL     1      32.932 -13.634 -23.325  0.00  0.00    -0.222 N 
ATOM      6  N   UNL     1      33.746 -12.270 -25.113  0.00  0.00    -0.222 NA
ATOM      7  C   UNL     1      32.711  -7.051 -23.780  0.00  0.00    -0.012 C 
ATOM      8  C   UNL     1      31.770  -6.671 -22.638  0.00  0.00    +0.117 C 
ATOM      9  C   UNL     1      32.572  -8.581 -23.840  0.00  0.00    +0.074 C 
ATOM     10  C   UNL     1      31.907  -7.819 -21.634  0.00  0.00    +0.120 C 
ATOM     11  C   UNL     1      32.266 -10.274 -22.011  0.00  0.00    +0.184 C 
ATOM     12  C   UNL     1      31.946 -10.484 -20.686  0.00  0.00    +0.044 C 
ATOM     13  C   UNL     1      32.590 -12.548 -22.437  0.00  0.00    +0.182 C 
ATOM     14  C   UNL     1      32.287 -12.831 -21.095  0.00  0.00    +0.151 C 
ATOM     15  C   UNL     1      31.960 -11.790 -20.220  0.00  0.00    -0.006 C 
ATOM     16  C   UNL     1      32.322 -14.220 -20.579  0.00  0.00    +0.192 C 
ATOM     17  C   UNL     1      32.985 -14.920 -22.794  0.00  0.00    +0.083 C 
ATOM     18  C   UNL     1      32.717 -15.279 -21.534  0.00  0.00    +0.126 C 
ATOM     19  C   UNL     1      33.214 -13.387 -24.657  0.00  0.00    +0.172 C 
ATOM     20  C   UNL     1      33.463 -13.545 -27.054  0.00  0.00    +0.059 C 
ATOM     21  C   UNL     1      33.888 -12.364 -26.483  0.00  0.00    +0.108 C 
ENDROOT
BRANCH   7  22
ATOM     22  N   UNL     1      34.088  -6.660 -23.475  0.00  0.00    +0.386 N 
ATOM     23  C   UNL     1      34.999  -7.772 -23.693  0.00  0.00    -0.105 C 
ATOM     24  H   UNL     1      34.145  -6.367 -22.500  0.00  0.00    -0.084 HD
ATOM     25  H   UNL     1      34.355  -5.892 -24.091  0.00  0.00    -0.084 HD
ENDBRANCH   7  22
BRANCH   8  26
ATOM     26  O   UNL     1      30.425  -6.635 -23.113  0.00  0.00    -0.354 OA
ATOM     27  C   UNL     1      30.341  -5.983 -24.372  0.00  0.00    +0.174 C 
ENDBRANCH   8  26
BRANCH  18  29
ATOM     28  O   UNL     1      33.819 -17.374 -21.313  0.00  0.00    -0.245 OA
ATOM     29  C   UNL     1      32.817 -16.695 -21.175  0.00  0.00    +0.342 C 
BRANCH  29  30
ATOM     30  O   UNL     1      31.637 -17.120 -20.673  0.00  0.00    -0.477 OA
ATOM     31  H   UNL     1      31.021 -17.554 -21.229  0.00  0.00    +0.295 HD
ENDBRANCH  29  30
ENDBRANCH  18  29
TORSDOF 4
ENDMDL
MODEL 5
REMARK VINA RESULT:      -6.8      8.753     12.380
REMARK  Name = 9952884
REMARK  4 active torsions:
REMARK  status: ('A' for Active; 'I' for Inactive)
REMARK    1  A    between atoms: C_7  and  N_22
REMARK    2  A    between atoms: C_8  and  O_26
REMARK    3  A    between atoms: C_18  and  C_29
REMARK    4  A    between atoms: C_29  and  O_30
REMARK                            x       y       z     vdW  Elec       q    Type
REMARK                         _______ _______ _______ _____ _____    ______ ____
ROOT
ATOM      1  S   UNL     1      34.174 -11.180 -25.652  0.00  0.00    -0.050 S 
ATOM      2  O   UNL     1      31.596 -11.795 -19.748  0.00  0.00    -0.290 OA
ATOM      3  N   UNL     1      34.336 -16.850 -22.320  0.00  0.00    -0.283 N 
ATOM      4  N   UNL     1      33.712 -14.662 -22.903  0.00  0.00    -0.375 NA
ATOM      5  N   UNL     1      33.070 -12.392 -23.524  0.00  0.00    -0.222 N 
ATOM      6  N   UNL     1      33.650 -13.702 -25.439  0.00  0.00    -0.222 NA
ATOM      7  C   UNL     1      35.107 -18.671 -23.629  0.00  0.00    -0.012 C 
ATOM      8  C   UNL     1      35.393 -18.951 -22.154  0.00  0.00    +0.117 C 
ATOM      9  C   UNL     1      34.875 -17.151 -23.647  0.00  0.00    +0.074 C 
ATOM     10  C   UNL     1      34.484 -17.978 -21.399  0.00  0.00    +0.120 C 
ATOM     11  C   UNL     1      33.776 -15.639 -21.970  0.00  0.00    +0.184 C 
ATOM     12  C   UNL     1      33.310 -15.506 -20.679  0.00  0.00    +0.044 C 
ATOM     13  C   UNL     1      33.165 -13.463 -22.561  0.00  0.00    +0.182 C 
ATOM     14  C   UNL     1      32.660 -13.265 -21.265  0.00  0.00    +0.151 C 
ATOM     15  C   UNL     1      32.738 -14.295 -20.322  0.00  0.00    -0.006 C 
ATOM     16  C   UNL     1      32.025 -11.983 -20.879  0.00  0.00    +0.192 C 
ATOM     17  C   UNL     1      32.438 -11.214 -23.132  0.00  0.00    +0.083 C 
ATOM     18  C   UNL     1      31.926 -10.943 -21.927  0.00  0.00    +0.126 C 
ATOM     19  C   UNL     1      33.580 -12.551 -24.801  0.00  0.00    +0.172 C 
ATOM     20  C   UNL     1      34.560 -12.195 -26.979  0.00  0.00    +0.059 C 
ATOM     21  C   UNL     1      34.210 -13.496 -26.684  0.00  0.00    +0.108 C 
ENDROOT
BRANCH   7  22
ATOM     22  N   UNL     1      33.915 -19.390 -24.077  0.00  0.00    +0.386 N 
ATOM     23  C   UNL     1      33.584 -19.035 -25.448  0.00  0.00    -0.105 C 
ATOM     24  H   UNL     1      33.131 -19.148 -23.471  0.00  0.00    -0.084 HD
ATOM     25  H   UNL     1      34.100 -20.392 -24.034  0.00  0.00    -0.084 HD
ENDBRANCH   7  22
BRANCH   8  26
ATOM     26  O   UNL     1      36.752 -18.635 -21.857  0.00  0.00    -0.354 OA
ATOM     27  C   UNL     1      37.220 -19.371 -20.736  0.00  0.00    +0.174 C 
ENDBRANCH   8  26
BRANCH  18  29
ATOM     28  O   UNL     1      30.650  -9.032 -22.538  0.00  0.00    -0.245 OA
ATOM     29  C   UNL     1      31.312  -9.632 -21.709  0.00  0.00    +0.342 C 
BRANCH  29  30
ATOM     30  O   UNL     1      31.591  -9.201 -20.460  0.00  0.00    -0.477 OA
ATOM     31  H   UNL     1      31.249  -9.660 -19.719  0.00  0.00    +0.295 HD
ENDBRANCH  29  30
ENDBRANCH  18  29
TORSDOF 4
ENDMDL
MODEL 6
REMARK VINA RESULT:      -6.5      2.439      7.292
REMARK  Name = 9952884
REMARK  4 active torsions:
REMARK  status: ('A' for Active; 'I' for Inactive)
REMARK    1  A    between atoms: C_7  and  N_22
REMARK    2  A    between atoms: C_8  and  O_26
REMARK    3  A    between atoms: C_18  and  C_29
REMARK    4  A    between atoms: C_29  and  O_30
REMARK                            x       y       z     vdW  Elec       q    Type
REMARK                         _______ _______ _______ _____ _____    ______ ____
ROOT
ATOM      1  S   UNL     1      31.855 -23.359 -14.964  0.00  0.00    -0.050 S 
ATOM      2  O   UNL     1      38.297 -23.977 -14.864  0.00  0.00    -0.290 OA
ATOM      3  N   UNL     1      35.728 -20.519 -19.461  0.00  0.00    -0.283 N 
ATOM      4  N   UNL     1      35.071 -21.944 -17.713  0.00  0.00    -0.375 NA
ATOM      5  N   UNL     1      34.372 -23.422 -15.901  0.00  0.00    -0.222 N 
ATOM      6  N   UNL     1      32.577 -22.968 -17.415  0.00  0.00    -0.222 NA
ATOM      7  C   UNL     1      34.513 -19.569 -21.261  0.00  0.00    -0.012 C 
ATOM      8  C   UNL     1      35.845 -18.837 -21.108  0.00  0.00    +0.117 C 
ATOM      9  C   UNL     1      34.355 -20.275 -19.904  0.00  0.00    +0.074 C 
ATOM     10  C   UNL     1      36.705 -19.782 -20.265  0.00  0.00    +0.120 C 
ATOM     11  C   UNL     1      36.064 -21.329 -18.396  0.00  0.00    +0.184 C 
ATOM     12  C   UNL     1      37.403 -21.461 -18.097  0.00  0.00    +0.044 C 
ATOM     13  C   UNL     1      35.396 -22.740 -16.657  0.00  0.00    +0.182 C 
ATOM     14  C   UNL     1      36.744 -22.928 -16.308  0.00  0.00    +0.151 C 
ATOM     15  C   UNL     1      37.748 -22.280 -17.033  0.00  0.00    -0.006 C 
ATOM     16  C   UNL     1      37.126 -23.820 -15.187  0.00  0.00    +0.192 C 
ATOM     17  C   UNL     1      34.774 -24.275 -14.877  0.00  0.00    +0.083 C 
ATOM     18  C   UNL     1      36.028 -24.516 -14.481  0.00  0.00    +0.126 C 
ATOM     19  C   UNL     1      33.035 -23.237 -16.209  0.00  0.00    +0.172 C 
ATOM     20  C   UNL     1      30.631 -23.024 -16.117  0.00  0.00    +0.059 C 
ATOM     21  C   UNL     1      31.203 -22.847 -17.360  0.00  0.00    +0.108 C 
ENDROOT
BRANCH   7  22
ATOM     22  N   UNL     1      34.572 -20.539 -22.355  0.00  0.00    +0.386 N 
ATOM     23  C   UNL     1      34.890 -19.880 -23.612  0.00  0.00    -0.105 C 
ATOM     24  H   UNL     1      33.667 -21.003 -22.440  0.00  0.00    -0.084 HD
ATOM     25  H   UNL     1      35.301 -21.222 -22.149  0.00  0.00    -0.084 HD
ENDBRANCH   7  22
BRANCH   8  26
ATOM     26  O   UNL     1      35.648 -17.624 -20.382  0.00  0.00    -0.354 OA
ATOM     27  C   UNL     1      34.862 -16.702 -21.122  0.00  0.00    +0.174 C 
ENDBRANCH   8  26
BRANCH  18  29
ATOM     28  O   UNL     1      35.951 -25.208 -12.207  0.00  0.00    -0.245 OA
ATOM     29  C   UNL     1      36.243 -25.442 -13.367  0.00  0.00    +0.342 C 
BRANCH  29  30
ATOM     30  O   UNL     1      36.806 -26.580 -13.826  0.00  0.00    -0.477 OA
ATOM     31  H   UNL     1      37.318 -27.114 -13.251  0.00  0.00    +0.295 HD
ENDBRANCH  29  30
ENDBRANCH  18  29
TORSDOF 4
ENDMDL
MODEL 7
REMARK VINA RESULT:      -6.1     16.177     20.376
REMARK  Name = 9952884
REMARK  4 active torsions:
REMARK  status: ('A' for Active; 'I' for Inactive)
REMARK    1  A    between atoms: C_7  and  N_22
REMARK    2  A    between atoms: C_8  and  O_26
REMARK    3  A    between atoms: C_18  and  C_29
REMARK    4  A    between atoms: C_29  and  O_30
REMARK                            x       y       z     vdW  Elec       q    Type
REMARK                         _______ _______ _______ _____ _____    ______ ____
ROOT
ATOM      1  S   UNL     1      33.934 -10.624 -24.171  0.00  0.00    -0.050 S 
ATOM      2  O   UNL     1      30.892  -6.031 -20.773  0.00  0.00    -0.290 OA
ATOM      3  N   UNL     1      33.041  -4.537 -26.503  0.00  0.00    -0.283 N 
ATOM      4  N   UNL     1      33.137  -6.307 -24.962  0.00  0.00    -0.375 NA
ATOM      5  N   UNL     1      33.246  -8.154 -23.371  0.00  0.00    -0.222 N 
ATOM      6  N   UNL     1      34.849  -8.403 -25.128  0.00  0.00    -0.222 NA
ATOM      7  C   UNL     1      34.229  -4.134 -28.515  0.00  0.00    -0.012 C 
ATOM      8  C   UNL     1      33.012  -3.213 -28.453  0.00  0.00    +0.117 C 
ATOM      9  C   UNL     1      33.885  -5.221 -27.484  0.00  0.00    +0.074 C 
ATOM     10  C   UNL     1      32.600  -3.225 -26.979  0.00  0.00    +0.120 C 
ATOM     11  C   UNL     1      32.683  -5.074 -25.284  0.00  0.00    +0.184 C 
ATOM     12  C   UNL     1      31.880  -4.307 -24.466  0.00  0.00    +0.044 C 
ATOM     13  C   UNL     1      32.781  -6.844 -23.762  0.00  0.00    +0.182 C 
ATOM     14  C   UNL     1      31.976  -6.110 -22.875  0.00  0.00    +0.151 C 
ATOM     15  C   UNL     1      31.523  -4.837 -23.235  0.00  0.00    -0.006 C 
ATOM     16  C   UNL     1      31.607  -6.655 -21.547  0.00  0.00    +0.192 C 
ATOM     17  C   UNL     1      32.904  -8.617 -22.103  0.00  0.00    +0.083 C 
ATOM     18  C   UNL     1      32.149  -7.987 -21.196  0.00  0.00    +0.126 C 
ATOM     19  C   UNL     1      34.022  -8.908 -24.234  0.00  0.00    +0.172 C 
ATOM     20  C   UNL     1      35.087 -10.710 -25.437  0.00  0.00    +0.059 C 
ATOM     21  C   UNL     1      35.457  -9.436 -25.814  0.00  0.00    +0.108 C 
ENDROOT
BRANCH   7  22
ATOM     22  N   UNL     1      35.448  -3.417 -28.137  0.00  0.00    +0.386 N 
ATOM     23  C   UNL     1      36.533  -4.350 -27.874  0.00  0.00    -0.105 C 
ATOM     24  H   UNL     1      35.266  -2.870 -27.296  0.00  0.00    -0.084 HD
ATOM     25  H   UNL     1      35.721  -2.805 -28.906  0.00  0.00    -0.084 HD
ENDBRANCH   7  22
BRANCH   8  26
ATOM     26  O   UNL     1      31.951  -3.763 -29.232  0.00  0.00    -0.354 OA
ATOM     27  C   UNL     1      31.150  -2.741 -29.808  0.00  0.00    +0.174 C 
ENDBRANCH   8  26
BRANCH  18  29
ATOM     28  O   UNL     1      31.701  -9.850 -19.788  0.00  0.00    -0.245 OA
ATOM     29  C   UNL     1      31.892  -8.653 -19.918  0.00  0.00    +0.342 C 
BRANCH  29  30
ATOM     30  O   UNL     1      31.901  -7.742 -18.922  0.00  0.00    -0.477 OA
ATOM     31  H   UNL     1      31.694  -8.003 -18.047  0.00  0.00    +0.295 HD
ENDBRANCH  29  30
ENDBRANCH  18  29
TORSDOF 4
ENDMDL
MODEL 8
REMARK VINA RESULT:      -5.4      3.347      7.771
REMARK  Name = 9952884
REMARK  4 active torsions:
REMARK  status: ('A' for Active; 'I' for Inactive)
REMARK    1  A    between atoms: C_7  and  N_22
REMARK    2  A    between atoms: C_8  and  O_26
REMARK    3  A    between atoms: C_18  and  C_29
REMARK    4  A    between atoms: C_29  and  O_30
REMARK                            x       y       z     vdW  Elec       q    Type
REMARK                         _______ _______ _______ _____ _____    ______ ____
ROOT
ATOM      1  S   UNL     1      37.064 -24.300 -15.417  0.00  0.00    -0.050 S 
ATOM      2  O   UNL     1      30.651 -23.795 -16.125  0.00  0.00    -0.290 OA
ATOM      3  N   UNL     1      34.328 -20.509 -20.045  0.00  0.00    -0.283 N 
ATOM      4  N   UNL     1      34.506 -21.838 -18.116  0.00  0.00    -0.375 NA
ATOM      5  N   UNL     1      34.707 -23.216 -16.113  0.00  0.00    -0.222 N 
ATOM      6  N   UNL     1      36.722 -22.008 -16.563  0.00  0.00    -0.222 NA
ATOM      7  C   UNL     1      35.900 -19.124 -21.155  0.00  0.00    -0.012 C 
ATOM      8  C   UNL     1      34.712 -19.383 -22.080  0.00  0.00    +0.117 C 
ATOM      9  C   UNL     1      35.765 -20.242 -20.108  0.00  0.00    +0.074 C 
ATOM     10  C   UNL     1      33.602 -19.874 -21.147  0.00  0.00    +0.120 C 
ATOM     11  C   UNL     1      33.728 -21.285 -19.075  0.00  0.00    +0.184 C 
ATOM     12  C   UNL     1      32.360 -21.445 -19.148  0.00  0.00    +0.044 C 
ATOM     13  C   UNL     1      33.920 -22.610 -17.160  0.00  0.00    +0.182 C 
ATOM     14  C   UNL     1      32.528 -22.803 -17.169  0.00  0.00    +0.151 C 
ATOM     15  C   UNL     1      31.750 -22.218 -18.172  0.00  0.00    -0.006 C 
ATOM     16  C   UNL     1      31.861 -23.607 -16.117  0.00  0.00    +0.192 C 
ATOM     17  C   UNL     1      34.039 -23.936 -15.126  0.00  0.00    +0.083 C 
ATOM     18  C   UNL     1      32.724 -24.166 -15.054  0.00  0.00    +0.126 C 
ATOM     19  C   UNL     1      36.082 -23.061 -16.092  0.00  0.00    +0.172 C 
ATOM     20  C   UNL     1      38.457 -23.368 -15.778  0.00  0.00    +0.059 C 
ATOM     21  C   UNL     1      38.080 -22.187 -16.381  0.00  0.00    +0.108 C 
ENDROOT
BRANCH   7  22
ATOM     22  N   UNL     1      35.799 -17.804 -20.531  0.00  0.00    +0.386 N 
ATOM     23  C   UNL     1      35.154 -16.858 -21.428  0.00  0.00    -0.105 C 
ATOM     24  H   UNL     1      36.736 -17.467 -20.308  0.00  0.00    -0.084 HD
ATOM     25  H   UNL     1      35.241 -17.885 -19.682  0.00  0.00    -0.084 HD
ENDBRANCH   7  22
BRANCH   8  26
ATOM     26  O   UNL     1      35.035 -20.425 -22.999  0.00  0.00    -0.354 OA
ATOM     27  C   UNL     1      34.993 -19.962 -24.341  0.00  0.00    +0.174 C 
ENDBRANCH   8  26
BRANCH  18  29
ATOM     28  O   UNL     1      31.158 -25.572 -13.946  0.00  0.00    -0.245 OA
ATOM     29  C   UNL     1      32.216 -24.966 -13.937  0.00  0.00    +0.342 C 
BRANCH  29  30
ATOM     30  O   UNL     1      33.094 -24.925 -12.913  0.00  0.00    -0.477 OA
ATOM     31  H   UNL     1      33.913 -24.482 -13.016  0.00  0.00    +0.295 HD
ENDBRANCH  29  30
ENDBRANCH  18  29
TORSDOF 4
ENDMDL
