MODEL 1
REMARK VINA RESULT:      -9.3      0.000      0.000
REMARK  Name = 3052762
REMARK  7 active torsions:
REMARK  status: ('A' for Active; 'I' for Inactive)
REMARK    1  A    between atoms: N_2  and  C_19
REMARK    2  A    between atoms: C_3  and  C_7
REMARK    3  A    between atoms: C_13  and  N_15
REMARK    4  A    between atoms: N_18  and  C_25
REMARK    5  A    between atoms: C_25  and  C_26
REMARK    6  A    between atoms: C_26  and  C_27
REMARK    7  A    between atoms: C_27  and  O_28
REMARK                            x       y       z     vdW  Elec       q    Type
REMARK                         _______ _______ _______ _____ _____    ______ ____
ROOT
ATOM      1  O   UNL     1      33.783 -23.746 -12.186  0.00  0.00    -0.270 OA
ATOM      2  N   UNL     1      32.851 -24.630 -14.117  0.00  0.00    -0.303 N 
ATOM      3  C   UNL     1      33.891 -24.131 -13.347  0.00  0.00    +0.249 C 
ATOM      4  H   UNL     1      33.040 -24.914 -15.041  0.00  0.00    +0.150 HD
ENDROOT
BRANCH   3   7
ATOM      5 CL   UNL     1      36.773 -22.114 -17.138  0.00  0.00    -0.081 Cl
ATOM      6  O   UNL     1      36.270 -25.606 -12.473  0.00  0.00    -0.475 OA
ATOM      7  C   UNL     1      35.194 -24.048 -14.009  0.00  0.00    +0.088 C 
ATOM      8  C   UNL     1      36.283 -24.769 -13.561  0.00  0.00    +0.140 C 
ATOM      9  C   UNL     1      37.522 -24.690 -14.179  0.00  0.00    +0.029 C 
ATOM     10  C   UNL     1      38.498 -25.514 -13.431  0.00  0.00    +0.078 C 
ATOM     11  C   UNL     1      37.522 -26.325 -12.578  0.00  0.00    +0.210 C 
ATOM     12  C   UNL     1      35.372 -23.233 -15.128  0.00  0.00    +0.020 C 
ATOM     13  C   UNL     1      37.715 -23.878 -15.282  0.00  0.00    +0.051 C 
ATOM     14  C   UNL     1      36.623 -23.149 -15.761  0.00  0.00    +0.071 C 
BRANCH  13  15
ATOM     15  N   UNL     1      38.984 -23.796 -15.886  0.00  0.00    -0.357 N 
ATOM     16  H   UNL     1      39.466 -22.938 -15.904  0.00  0.00    +0.142 HD
ATOM     17  H   UNL     1      39.389 -24.597 -16.291  0.00  0.00    +0.142 HD
ENDBRANCH  13  15
ENDBRANCH   3   7
BRANCH   2  19
ATOM     18  N   UNL     1      29.653 -23.417 -15.470  0.00  0.00    +0.387 N 
ATOM     19  C   UNL     1      31.502 -24.749 -13.614  0.00  0.00    +0.068 C 
ATOM     20  C   UNL     1      30.895 -23.374 -13.328  0.00  0.00    -0.003 C 
ATOM     21  C   UNL     1      30.614 -25.522 -14.592  0.00  0.00    -0.003 C 
ATOM     22  C   UNL     1      30.543 -22.620 -14.615  0.00  0.00    -0.076 C 
ATOM     23  C   UNL     1      30.272 -24.698 -15.837  0.00  0.00    -0.076 C 
ATOM     24  H   UNL     1      28.806 -23.619 -14.938  0.00  0.00    -0.080 HD
BRANCH  18  25
ATOM     25  C   UNL     1      29.285 -22.664 -16.669  0.00  0.00    -0.075 C 
BRANCH  25  26
ATOM     26  C   UNL     1      27.809 -22.874 -16.994  0.00  0.00    +0.009 C 
BRANCH  26  27
ATOM     27  C   UNL     1      26.910 -22.235 -15.945  0.00  0.00    +0.140 C 
BRANCH  27  28
ATOM     28  O   UNL     1      25.749 -21.723 -16.585  0.00  0.00    -0.351 OA
ATOM     29  C   UNL     1      26.047 -21.219 -17.881  0.00  0.00    +0.174 C 
ENDBRANCH  27  28
ENDBRANCH  26  27
ENDBRANCH  25  26
ENDBRANCH  18  25
ENDBRANCH   2  19
TORSDOF 7
ENDMDL
MODEL 2
REMARK VINA RESULT:      -8.9      9.888     12.484
REMARK  Name = 3052762
REMARK  7 active torsions:
REMARK  status: ('A' for Active; 'I' for Inactive)
REMARK    1  A    between atoms: N_2  and  C_19
REMARK    2  A    between atoms: C_3  and  C_7
REMARK    3  A    between atoms: C_13  and  N_15
REMARK    4  A    between atoms: N_18  and  C_25
REMARK    5  A    between atoms: C_25  and  C_26
REMARK    6  A    between atoms: C_26  and  C_27
REMARK    7  A    between atoms: C_27  and  O_28
REMARK                            x       y       z     vdW  Elec       q    Type
REMARK                         _______ _______ _______ _____ _____    ______ ____
ROOT
ATOM      1  O   UNL     1      34.340 -16.548 -25.282  0.00  0.00    -0.270 OA
ATOM      2  N   UNL     1      35.196 -16.885 -23.153  0.00  0.00    -0.303 N 
ATOM      3  C   UNL     1      34.496 -16.180 -24.120  0.00  0.00    +0.249 C 
ATOM      4  H   UNL     1      35.266 -16.505 -22.247  0.00  0.00    +0.150 HD
ENDROOT
BRANCH   3   7
ATOM      5 CL   UNL     1      33.592 -11.207 -25.212  0.00  0.00    -0.081 Cl
ATOM      6  O   UNL     1      33.171 -15.741 -21.541  0.00  0.00    -0.475 OA
ATOM      7  C   UNL     1      33.938 -14.895 -23.696  0.00  0.00    +0.088 C 
ATOM      8  C   UNL     1      33.328 -14.739 -22.466  0.00  0.00    +0.140 C 
ATOM      9  C   UNL     1      32.791 -13.527 -22.061  0.00  0.00    +0.029 C 
ATOM     10  C   UNL     1      32.148 -13.692 -20.738  0.00  0.00    +0.078 C 
ATOM     11  C   UNL     1      32.752 -15.041 -20.345  0.00  0.00    +0.210 C 
ATOM     12  C   UNL     1      34.011 -13.778 -24.530  0.00  0.00    +0.020 C 
ATOM     13  C   UNL     1      32.848 -12.416 -22.881  0.00  0.00    +0.051 C 
ATOM     14  C   UNL     1      33.471 -12.546 -24.126  0.00  0.00    +0.071 C 
BRANCH  13  15
ATOM     15  N   UNL     1      32.281 -11.197 -22.461  0.00  0.00    -0.357 N 
ATOM     16  H   UNL     1      32.498 -10.363 -22.937  0.00  0.00    +0.142 HD
ATOM     17  H   UNL     1      31.668 -11.179 -21.690  0.00  0.00    +0.142 HD
ENDBRANCH  13  15
ENDBRANCH   3   7
BRANCH   2  19
ATOM     18  N   UNL     1      35.226 -20.027 -21.238  0.00  0.00    +0.387 N 
ATOM     19  C   UNL     1      35.827 -18.157 -23.425  0.00  0.00    +0.068 C 
ATOM     20  C   UNL     1      36.846 -18.512 -22.340  0.00  0.00    -0.003 C 
ATOM     21  C   UNL     1      34.787 -19.272 -23.555  0.00  0.00    -0.003 C 
ATOM     22  C   UNL     1      36.170 -18.922 -21.027  0.00  0.00    -0.076 C 
ATOM     23  C   UNL     1      34.180 -19.656 -22.202  0.00  0.00    -0.076 C 
ATOM     24  H   UNL     1      35.745 -20.814 -21.627  0.00  0.00    -0.080 HD
BRANCH  18  25
ATOM     25  C   UNL     1      34.629 -20.440 -19.969  0.00  0.00    -0.075 C 
BRANCH  25  26
ATOM     26  C   UNL     1      35.189 -21.791 -19.535  0.00  0.00    +0.009 C 
BRANCH  26  27
ATOM     27  C   UNL     1      36.289 -21.632 -18.494  0.00  0.00    +0.140 C 
BRANCH  27  28
ATOM     28  O   UNL     1      35.969 -22.430 -17.363  0.00  0.00    -0.351 OA
ATOM     29  C   UNL     1      37.024 -22.433 -16.411  0.00  0.00    +0.174 C 
ENDBRANCH  27  28
ENDBRANCH  26  27
ENDBRANCH  25  26
ENDBRANCH  18  25
ENDBRANCH   2  19
TORSDOF 7
ENDMDL
MODEL 3
REMARK VINA RESULT:      -8.8      6.622      7.778
REMARK  Name = 3052762
REMARK  7 active torsions:
REMARK  status: ('A' for Active; 'I' for Inactive)
REMARK    1  A    between atoms: N_2  and  C_19
REMARK    2  A    between atoms: C_3  and  C_7
REMARK    3  A    between atoms: C_13  and  N_15
REMARK    4  A    between atoms: N_18  and  C_25
REMARK    5  A    between atoms: C_25  and  C_26
REMARK    6  A    between atoms: C_26  and  C_27
REMARK    7  A    between atoms: C_27  and  O_28
REMARK                            x       y       z     vdW  Elec       q    Type
REMARK                         _______ _______ _______ _____ _____    ______ ____
ROOT
ATOM      1  O   UNL     1      33.844 -23.485 -19.868  0.00  0.00    -0.270 OA
ATOM      2  N   UNL     1      34.414 -21.258 -19.556  0.00  0.00    -0.303 N 
ATOM      3  C   UNL     1      34.134 -22.548 -19.129  0.00  0.00    +0.249 C 
ATOM      4  H   UNL     1      34.636 -20.574 -18.884  0.00  0.00    +0.150 HD
ENDROOT
BRANCH   3   7
ATOM      5 CL   UNL     1      31.575 -23.749 -14.798  0.00  0.00    -0.081 Cl
ATOM      6  O   UNL     1      36.559 -22.307 -17.498  0.00  0.00    -0.475 OA
ATOM      7  C   UNL     1      34.171 -22.763 -17.682  0.00  0.00    +0.088 C 
ATOM      8  C   UNL     1      35.340 -22.631 -16.958  0.00  0.00    +0.140 C 
ATOM      9  C   UNL     1      35.384 -22.841 -15.588  0.00  0.00    +0.029 C 
ATOM     10  C   UNL     1      36.778 -22.698 -15.113  0.00  0.00    +0.078 C 
ATOM     11  C   UNL     1      37.381 -22.016 -16.342  0.00  0.00    +0.210 C 
ATOM     12  C   UNL     1      33.012 -23.107 -16.985  0.00  0.00    +0.020 C 
ATOM     13  C   UNL     1      34.245 -23.192 -14.887  0.00  0.00    +0.051 C 
ATOM     14  C   UNL     1      33.047 -23.319 -15.597  0.00  0.00    +0.071 C 
BRANCH  13  15
ATOM     15  N   UNL     1      34.312 -23.419 -13.499  0.00  0.00    -0.357 N 
ATOM     16  H   UNL     1      34.070 -24.300 -13.131  0.00  0.00    +0.142 HD
ATOM     17  H   UNL     1      34.599 -22.696 -12.895  0.00  0.00    +0.142 HD
ENDBRANCH  13  15
ENDBRANCH   3   7
BRANCH   2  19
ATOM     18  N   UNL     1      34.673 -17.965 -21.175  0.00  0.00    +0.387 N 
ATOM     19  C   UNL     1      34.392 -20.882 -20.952  0.00  0.00    +0.068 C 
ATOM     20  C   UNL     1      33.210 -19.960 -21.257  0.00  0.00    -0.003 C 
ATOM     21  C   UNL     1      35.703 -20.208 -21.362  0.00  0.00    -0.003 C 
ATOM     22  C   UNL     1      33.416 -18.551 -20.692  0.00  0.00    -0.076 C 
ATOM     23  C   UNL     1      35.827 -18.791 -20.794  0.00  0.00    -0.076 C 
ATOM     24  H   UNL     1      34.634 -17.934 -22.194  0.00  0.00    -0.080 HD
BRANCH  18  25
ATOM     25  C   UNL     1      34.831 -16.602 -20.670  0.00  0.00    -0.075 C 
BRANCH  25  26
ATOM     26  C   UNL     1      33.837 -15.666 -21.351  0.00  0.00    +0.009 C 
BRANCH  26  27
ATOM     27  C   UNL     1      34.480 -14.914 -22.507  0.00  0.00    +0.140 C 
BRANCH  27  28
ATOM     28  O   UNL     1      35.283 -15.818 -23.254  0.00  0.00    -0.351 OA
ATOM     29  C   UNL     1      34.585 -16.325 -24.383  0.00  0.00    +0.174 C 
ENDBRANCH  27  28
ENDBRANCH  26  27
ENDBRANCH  25  26
ENDBRANCH  18  25
ENDBRANCH   2  19
TORSDOF 7
ENDMDL
MODEL 4
REMARK VINA RESULT:      -8.5      6.515      7.898
REMARK  Name = 3052762
REMARK  7 active torsions:
REMARK  status: ('A' for Active; 'I' for Inactive)
REMARK    1  A    between atoms: N_2  and  C_19
REMARK    2  A    between atoms: C_3  and  C_7
REMARK    3  A    between atoms: C_13  and  N_15
REMARK    4  A    between atoms: N_18  and  C_25
REMARK    5  A    between atoms: C_25  and  C_26
REMARK    6  A    between atoms: C_26  and  C_27
REMARK    7  A    between atoms: C_27  and  O_28
REMARK                            x       y       z     vdW  Elec       q    Type
REMARK                         _______ _______ _______ _____ _____    ______ ____
ROOT
ATOM      1  O   UNL     1      33.999 -23.481 -19.817  0.00  0.00    -0.270 OA
ATOM      2  N   UNL     1      34.420 -21.220 -19.520  0.00  0.00    -0.303 N 
ATOM      3  C   UNL     1      34.240 -22.525 -19.086  0.00  0.00    +0.249 C 
ATOM      4  H   UNL     1      34.610 -20.521 -18.853  0.00  0.00    +0.150 HD
ENDROOT
BRANCH   3   7
ATOM      5 CL   UNL     1      37.218 -22.968 -14.881  0.00  0.00    -0.081 Cl
ATOM      6  O   UNL     1      31.914 -22.912 -17.344  0.00  0.00    -0.475 OA
ATOM      7  C   UNL     1      34.327 -22.734 -17.640  0.00  0.00    +0.088 C 
ATOM      8  C   UNL     1      33.199 -22.919 -16.864  0.00  0.00    +0.140 C 
ATOM      9  C   UNL     1      33.274 -23.110 -15.493  0.00  0.00    +0.029 C 
ATOM     10  C   UNL     1      31.906 -23.204 -14.935  0.00  0.00    +0.078 C 
ATOM     11  C   UNL     1      31.131 -23.417 -16.235  0.00  0.00    +0.210 C 
ATOM     12  C   UNL     1      35.567 -22.759 -16.999  0.00  0.00    +0.020 C 
ATOM     13  C   UNL     1      34.494 -23.127 -14.843  0.00  0.00    +0.051 C 
ATOM     14  C   UNL     1      35.651 -22.955 -15.610  0.00  0.00    +0.071 C 
BRANCH  13  15
ATOM     15  N   UNL     1      34.551 -23.305 -13.448  0.00  0.00    -0.357 N 
ATOM     16  H   UNL     1      34.855 -22.568 -12.869  0.00  0.00    +0.142 HD
ATOM     17  H   UNL     1      34.286 -24.166 -13.050  0.00  0.00    +0.142 HD
ENDBRANCH  13  15
ENDBRANCH   3   7
BRANCH   2  19
ATOM     18  N   UNL     1      34.646 -17.937 -21.165  0.00  0.00    +0.387 N 
ATOM     19  C   UNL     1      34.338 -20.849 -20.915  0.00  0.00    +0.068 C 
ATOM     20  C   UNL     1      33.155 -19.913 -21.170  0.00  0.00    -0.003 C 
ATOM     21  C   UNL     1      35.638 -20.194 -21.389  0.00  0.00    -0.003 C 
ATOM     22  C   UNL     1      33.405 -18.504 -20.622  0.00  0.00    -0.076 C 
ATOM     23  C   UNL     1      35.806 -18.776 -20.833  0.00  0.00    -0.076 C 
ATOM     24  H   UNL     1      34.561 -17.909 -22.181  0.00  0.00    -0.080 HD
BRANCH  18  25
ATOM     25  C   UNL     1      34.844 -16.573 -20.673  0.00  0.00    -0.075 C 
BRANCH  25  26
ATOM     26  C   UNL     1      33.836 -15.626 -21.317  0.00  0.00    +0.009 C 
BRANCH  26  27
ATOM     27  C   UNL     1      34.451 -14.864 -22.482  0.00  0.00    +0.140 C 
BRANCH  27  28
ATOM     28  O   UNL     1      35.262 -15.755 -23.236  0.00  0.00    -0.351 OA
ATOM     29  C   UNL     1      34.563 -16.276 -24.358  0.00  0.00    +0.174 C 
ENDBRANCH  27  28
ENDBRANCH  26  27
ENDBRANCH  25  26
ENDBRANCH  18  25
ENDBRANCH   2  19
TORSDOF 7
ENDMDL
MODEL 5
REMARK VINA RESULT:      -8.3     13.121     14.897
REMARK  Name = 3052762
REMARK  7 active torsions:
REMARK  status: ('A' for Active; 'I' for Inactive)
REMARK    1  A    between atoms: N_2  and  C_19
REMARK    2  A    between atoms: C_3  and  C_7
REMARK    3  A    between atoms: C_13  and  N_15
REMARK    4  A    between atoms: N_18  and  C_25
REMARK    5  A    between atoms: C_25  and  C_26
REMARK    6  A    between atoms: C_26  and  C_27
REMARK    7  A    between atoms: C_27  and  O_28
REMARK                            x       y       z     vdW  Elec       q    Type
REMARK                         _______ _______ _______ _____ _____    ______ ____
ROOT
ATOM      1  O   UNL     1      33.053 -13.934 -25.780  0.00  0.00    -0.270 OA
ATOM      2  N   UNL     1      34.159 -12.368 -24.475  0.00  0.00    -0.303 N 
ATOM      3  C   UNL     1      33.683 -13.637 -24.769  0.00  0.00    +0.249 C 
ATOM      4  H   UNL     1      34.655 -12.231 -23.635  0.00  0.00    +0.150 HD
ENDROOT
BRANCH   3   7
ATOM      5 CL   UNL     1      35.680 -18.275 -23.651  0.00  0.00    -0.081 Cl
ATOM      6  O   UNL     1      32.919 -13.408 -21.947  0.00  0.00    -0.475 OA
ATOM      7  C   UNL     1      33.948 -14.668 -23.764  0.00  0.00    +0.088 C 
ATOM      8  C   UNL     1      33.561 -14.513 -22.447  0.00  0.00    +0.140 C 
ATOM      9  C   UNL     1      33.815 -15.483 -21.488  0.00  0.00    +0.029 C 
ATOM     10  C   UNL     1      33.351 -15.001 -20.168  0.00  0.00    +0.078 C 
ATOM     11  C   UNL     1      32.485 -13.829 -20.631  0.00  0.00    +0.210 C 
ATOM     12  C   UNL     1      34.601 -15.850 -24.114  0.00  0.00    +0.020 C 
ATOM     13  C   UNL     1      34.471 -16.654 -21.818  0.00  0.00    +0.051 C 
ATOM     14  C   UNL     1      34.860 -16.837 -23.149  0.00  0.00    +0.071 C 
BRANCH  13  15
ATOM     15  N   UNL     1      34.737 -17.619 -20.829  0.00  0.00    -0.357 N 
ATOM     16  H   UNL     1      35.660 -17.763 -20.516  0.00  0.00    +0.142 HD
ATOM     17  H   UNL     1      34.000 -18.151 -20.449  0.00  0.00    +0.142 HD
ENDBRANCH  13  15
ENDBRANCH   3   7
BRANCH   2  19
ATOM     18  N   UNL     1      33.881  -8.769 -23.766  0.00  0.00    +0.387 N 
ATOM     19  C   UNL     1      33.954 -11.240 -25.356  0.00  0.00    +0.068 C 
ATOM     20  C   UNL     1      32.651 -10.510 -25.025  0.00  0.00    -0.003 C 
ATOM     21  C   UNL     1      35.134 -10.267 -25.288  0.00  0.00    -0.003 C 
ATOM     22  C   UNL     1      32.753  -9.708 -23.723  0.00  0.00    -0.076 C 
ATOM     23  C   UNL     1      35.153  -9.474 -23.978  0.00  0.00    -0.076 C 
ATOM     24  H   UNL     1      33.737  -8.140 -24.556  0.00  0.00    -0.080 HD
BRANCH  18  25
ATOM     25  C   UNL     1      33.934  -7.975 -22.539  0.00  0.00    -0.075 C 
BRANCH  25  26
ATOM     26  C   UNL     1      32.672  -8.195 -21.711  0.00  0.00    +0.009 C 
BRANCH  26  27
ATOM     27  C   UNL     1      32.768  -7.512 -20.354  0.00  0.00    +0.140 C 
BRANCH  27  28
ATOM     28  O   UNL     1      32.025  -8.266 -19.406  0.00  0.00    -0.351 OA
ATOM     29  C   UNL     1      31.937  -9.634 -19.780  0.00  0.00    +0.174 C 
ENDBRANCH  27  28
ENDBRANCH  26  27
ENDBRANCH  25  26
ENDBRANCH  18  25
ENDBRANCH   2  19
TORSDOF 7
ENDMDL
MODEL 6
REMARK VINA RESULT:      -8.0     14.040     15.840
REMARK  Name = 3052762
REMARK  7 active torsions:
REMARK  status: ('A' for Active; 'I' for Inactive)
REMARK    1  A    between atoms: N_2  and  C_19
REMARK    2  A    between atoms: C_3  and  C_7
REMARK    3  A    between atoms: C_13  and  N_15
REMARK    4  A    between atoms: N_18  and  C_25
REMARK    5  A    between atoms: C_25  and  C_26
REMARK    6  A    between atoms: C_26  and  C_27
REMARK    7  A    between atoms: C_27  and  O_28
REMARK                            x       y       z     vdW  Elec       q    Type
REMARK                         _______ _______ _______ _____ _____    ______ ____
ROOT
ATOM      1  O   UNL     1      31.553 -12.525 -20.968  0.00  0.00    -0.270 OA
ATOM      2  N   UNL     1      32.203 -10.982 -22.573  0.00  0.00    -0.303 N 
ATOM      3  C   UNL     1      32.110 -12.254 -22.028  0.00  0.00    +0.249 C 
ATOM      4  H   UNL     1      32.672 -10.868 -23.432  0.00  0.00    +0.150 HD
ENDROOT
BRANCH   3   7
ATOM      5 CL   UNL     1      33.017 -14.450 -26.622  0.00  0.00    -0.081 Cl
ATOM      6  O   UNL     1      33.768 -14.351 -20.823  0.00  0.00    -0.475 OA
ATOM      7  C   UNL     1      32.757 -13.324 -22.790  0.00  0.00    +0.088 C 
ATOM      8  C   UNL     1      33.524 -14.293 -22.172  0.00  0.00    +0.140 C 
ATOM      9  C   UNL     1      34.146 -15.305 -22.888  0.00  0.00    +0.029 C 
ATOM     10  C   UNL     1      34.948 -16.138 -21.965  0.00  0.00    +0.078 C 
ATOM     11  C   UNL     1      34.359 -15.660 -20.637  0.00  0.00    +0.210 C 
ATOM     12  C   UNL     1      32.611 -13.399 -24.176  0.00  0.00    +0.020 C 
ATOM     13  C   UNL     1      34.018 -15.384 -24.262  0.00  0.00    +0.051 C 
ATOM     14  C   UNL     1      33.236 -14.422 -24.908  0.00  0.00    +0.071 C 
BRANCH  13  15
ATOM     15  N   UNL     1      34.671 -16.408 -24.975  0.00  0.00    -0.357 N 
ATOM     16  H   UNL     1      34.808 -16.322 -25.946  0.00  0.00    +0.142 HD
ATOM     17  H   UNL     1      34.989 -17.211 -24.502  0.00  0.00    +0.142 HD
ENDBRANCH  13  15
ENDBRANCH   3   7
BRANCH   2  19
ATOM     18  N   UNL     1      32.525  -7.398 -23.339  0.00  0.00    +0.387 N 
ATOM     19  C   UNL     1      31.638  -9.819 -21.927  0.00  0.00    +0.068 C 
ATOM     20  C   UNL     1      32.734  -8.902 -21.383  0.00  0.00    -0.003 C 
ATOM     21  C   UNL     1      30.731  -9.043 -22.885  0.00  0.00    -0.003 C 
ATOM     22  C   UNL     1      33.467  -8.151 -22.500  0.00  0.00    -0.076 C 
ATOM     23  C   UNL     1      31.529  -8.288 -23.952  0.00  0.00    -0.076 C 
ATOM     24  H   UNL     1      32.028  -6.739 -22.739  0.00  0.00    -0.080 HD
BRANCH  18  25
ATOM     25  C   UNL     1      33.243  -6.647 -24.368  0.00  0.00    -0.075 C 
BRANCH  25  26
ATOM     26  C   UNL     1      32.350  -5.553 -24.945  0.00  0.00    +0.009 C 
BRANCH  26  27
ATOM     27  C   UNL     1      31.867  -4.597 -23.863  0.00  0.00    +0.140 C 
BRANCH  27  28
ATOM     28  O   UNL     1      30.566  -4.993 -23.448  0.00  0.00    -0.351 OA
ATOM     29  C   UNL     1      30.479  -5.100 -22.034  0.00  0.00    +0.174 C 
ENDBRANCH  27  28
ENDBRANCH  26  27
ENDBRANCH  25  26
ENDBRANCH  18  25
ENDBRANCH   2  19
TORSDOF 7
ENDMDL
MODEL 7
REMARK VINA RESULT:      -8.0     13.518     15.237
REMARK  Name = 3052762
REMARK  7 active torsions:
REMARK  status: ('A' for Active; 'I' for Inactive)
REMARK    1  A    between atoms: N_2  and  C_19
REMARK    2  A    between atoms: C_3  and  C_7
REMARK    3  A    between atoms: C_13  and  N_15
REMARK    4  A    between atoms: N_18  and  C_25
REMARK    5  A    between atoms: C_25  and  C_26
REMARK    6  A    between atoms: C_26  and  C_27
REMARK    7  A    between atoms: C_27  and  O_28
REMARK                            x       y       z     vdW  Elec       q    Type
REMARK                         _______ _______ _______ _____ _____    ______ ____
ROOT
ATOM      1  O   UNL     1      32.947 -14.115 -25.721  0.00  0.00    -0.270 OA
ATOM      2  N   UNL     1      34.146 -12.522 -24.536  0.00  0.00    -0.303 N 
ATOM      3  C   UNL     1      33.644 -13.795 -24.762  0.00  0.00    +0.249 C 
ATOM      4  H   UNL     1      34.697 -12.365 -23.734  0.00  0.00    +0.150 HD
ENDROOT
BRANCH   3   7
ATOM      5 CL   UNL     1      35.789 -18.363 -23.630  0.00  0.00    -0.081 Cl
ATOM      6  O   UNL     1      32.977 -13.528 -21.919  0.00  0.00    -0.475 OA
ATOM      7  C   UNL     1      33.969 -14.799 -23.747  0.00  0.00    +0.088 C 
ATOM      8  C   UNL     1      33.627 -14.628 -22.420  0.00  0.00    +0.140 C 
ATOM      9  C   UNL     1      33.938 -15.572 -21.453  0.00  0.00    +0.029 C 
ATOM     10  C   UNL     1      33.510 -15.075 -20.127  0.00  0.00    +0.078 C 
ATOM     11  C   UNL     1      32.601 -13.933 -20.581  0.00  0.00    +0.210 C 
ATOM     12  C   UNL     1      34.637 -15.973 -24.099  0.00  0.00    +0.020 C 
ATOM     13  C   UNL     1      34.609 -16.734 -21.786  0.00  0.00    +0.051 C 
ATOM     14  C   UNL     1      34.954 -16.935 -23.126  0.00  0.00    +0.071 C 
BRANCH  13  15
ATOM     15  N   UNL     1      34.933 -17.673 -20.788  0.00  0.00    -0.357 N 
ATOM     16  H   UNL     1      35.302 -17.370 -19.927  0.00  0.00    +0.142 HD
ATOM     17  H   UNL     1      34.791 -18.634 -20.952  0.00  0.00    +0.142 HD
ENDBRANCH  13  15
ENDBRANCH   3   7
BRANCH   2  19
ATOM     18  N   UNL     1      34.093  -8.892 -23.943  0.00  0.00    +0.387 N 
ATOM     19  C   UNL     1      33.890 -11.417 -25.432  0.00  0.00    +0.068 C 
ATOM     20  C   UNL     1      32.662 -10.620 -24.990  0.00  0.00    -0.003 C 
ATOM     21  C   UNL     1      35.107 -10.495 -25.533  0.00  0.00    -0.003 C 
ATOM     22  C   UNL     1      32.940  -9.778 -23.740  0.00  0.00    -0.076 C 
ATOM     23  C   UNL     1      35.305  -9.659 -24.265  0.00  0.00    -0.076 C 
ATOM     24  H   UNL     1      33.887  -8.285 -24.737  0.00  0.00    -0.080 HD
BRANCH  18  25
ATOM     25  C   UNL     1      34.314  -8.059 -22.761  0.00  0.00    -0.075 C 
BRANCH  25  26
ATOM     26  C   UNL     1      33.012  -7.884 -21.985  0.00  0.00    +0.009 C 
BRANCH  26  27
ATOM     27  C   UNL     1      32.344  -6.554 -22.308  0.00  0.00    +0.140 C 
BRANCH  27  28
ATOM     28  O   UNL     1      32.686  -6.179 -23.636  0.00  0.00    -0.351 OA
ATOM     29  C   UNL     1      31.533  -6.053 -24.456  0.00  0.00    +0.174 C 
ENDBRANCH  27  28
ENDBRANCH  26  27
ENDBRANCH  25  26
ENDBRANCH  18  25
ENDBRANCH   2  19
TORSDOF 7
ENDMDL
MODEL 8
REMARK VINA RESULT:      -7.9     13.146     14.815
REMARK  Name = 3052762
REMARK  7 active torsions:
REMARK  status: ('A' for Active; 'I' for Inactive)
REMARK    1  A    between atoms: N_2  and  C_19
REMARK    2  A    between atoms: C_3  and  C_7
REMARK    3  A    between atoms: C_13  and  N_15
REMARK    4  A    between atoms: N_18  and  C_25
REMARK    5  A    between atoms: C_25  and  C_26
REMARK    6  A    between atoms: C_26  and  C_27
REMARK    7  A    between atoms: C_27  and  O_28
REMARK                            x       y       z     vdW  Elec       q    Type
REMARK                         _______ _______ _______ _____ _____    ______ ____
ROOT
ATOM      1  O   UNL     1      32.731 -14.044 -25.497  0.00  0.00    -0.270 OA
ATOM      2  N   UNL     1      34.227 -12.550 -24.544  0.00  0.00    -0.303 N 
ATOM      3  C   UNL     1      33.602 -13.781 -24.673  0.00  0.00    +0.249 C 
ATOM      4  H   UNL     1      34.916 -12.439 -23.849  0.00  0.00    +0.150 HD
ENDROOT
BRANCH   3   7
ATOM      5 CL   UNL     1      34.740 -15.055 -19.791  0.00  0.00    -0.081 Cl
ATOM      6  O   UNL     1      34.163 -16.563 -25.413  0.00  0.00    -0.475 OA
ATOM      7  C   UNL     1      34.020 -14.812 -23.722  0.00  0.00    +0.088 C 
ATOM      8  C   UNL     1      34.279 -16.109 -24.123  0.00  0.00    +0.140 C 
ATOM      9  C   UNL     1      34.668 -17.092 -23.226  0.00  0.00    +0.029 C 
ATOM     10  C   UNL     1      34.797 -18.383 -23.938  0.00  0.00    +0.078 C 
ATOM     11  C   UNL     1      34.797 -17.864 -25.377  0.00  0.00    +0.210 C 
ATOM     12  C   UNL     1      34.177 -14.509 -22.368  0.00  0.00    +0.020 C 
ATOM     13  C   UNL     1      34.816 -16.808 -21.881  0.00  0.00    +0.051 C 
ATOM     14  C   UNL     1      34.573 -15.499 -21.454  0.00  0.00    +0.071 C 
BRANCH  13  15
ATOM     15  N   UNL     1      35.195 -17.823 -20.982  0.00  0.00    -0.357 N 
ATOM     16  H   UNL     1      35.339 -18.741 -21.307  0.00  0.00    +0.142 HD
ATOM     17  H   UNL     1      35.314 -17.615 -20.027  0.00  0.00    +0.142 HD
ENDBRANCH  13  15
ENDBRANCH   3   7
BRANCH   2  19
ATOM     18  N   UNL     1      33.896  -8.966 -23.779  0.00  0.00    +0.387 N 
ATOM     19  C   UNL     1      33.904 -11.424 -25.391  0.00  0.00    +0.068 C 
ATOM     20  C   UNL     1      32.613 -10.741 -24.935  0.00  0.00    -0.003 C 
ATOM     21  C   UNL     1      35.051 -10.411 -25.424  0.00  0.00    -0.003 C 
ATOM     22  C   UNL     1      32.809  -9.944 -23.641  0.00  0.00    -0.076 C 
ATOM     23  C   UNL     1      35.166  -9.626 -24.115  0.00  0.00    -0.076 C 
ATOM     24  H   UNL     1      33.658  -8.338 -24.547  0.00  0.00    -0.080 HD
BRANCH  18  25
ATOM     25  C   UNL     1      34.036  -8.179 -22.555  0.00  0.00    -0.075 C 
BRANCH  25  26
ATOM     26  C   UNL     1      32.702  -8.102 -21.819  0.00  0.00    +0.009 C 
BRANCH  26  27
ATOM     27  C   UNL     1      32.841  -7.383 -20.485  0.00  0.00    +0.140 C 
BRANCH  27  28
ATOM     28  O   UNL     1      32.109  -8.099 -19.499  0.00  0.00    -0.351 OA
ATOM     29  C   UNL     1      32.000  -9.478 -19.828  0.00  0.00    +0.174 C 
ENDBRANCH  27  28
ENDBRANCH  26  27
ENDBRANCH  25  26
ENDBRANCH  18  25
ENDBRANCH   2  19
TORSDOF 7
ENDMDL
MODEL 9
REMARK VINA RESULT:      -7.8     14.983     17.105
REMARK  Name = 3052762
REMARK  7 active torsions:
REMARK  status: ('A' for Active; 'I' for Inactive)
REMARK    1  A    between atoms: N_2  and  C_19
REMARK    2  A    between atoms: C_3  and  C_7
REMARK    3  A    between atoms: C_13  and  N_15
REMARK    4  A    between atoms: N_18  and  C_25
REMARK    5  A    between atoms: C_25  and  C_26
REMARK    6  A    between atoms: C_26  and  C_27
REMARK    7  A    between atoms: C_27  and  O_28
REMARK                            x       y       z     vdW  Elec       q    Type
REMARK                         _______ _______ _______ _____ _____    ______ ____
ROOT
ATOM      1  O   UNL     1      30.618 -10.949 -21.038  0.00  0.00    -0.270 OA
ATOM      2  N   UNL     1      32.237  -9.756 -22.193  0.00  0.00    -0.303 N 
ATOM      3  C   UNL     1      31.604 -10.915 -21.769  0.00  0.00    +0.249 C 
ATOM      4  H   UNL     1      33.024  -9.833 -22.780  0.00  0.00    +0.150 HD
ENDROOT
BRANCH   3   7
ATOM      5 CL   UNL     1      32.578 -15.909 -20.842  0.00  0.00    -0.081 Cl
ATOM      6  O   UNL     1      32.987 -11.235 -24.335  0.00  0.00    -0.475 OA
ATOM      7  C   UNL     1      32.200 -12.171 -22.225  0.00  0.00    +0.088 C 
ATOM      8  C   UNL     1      32.847 -12.268 -23.442  0.00  0.00    +0.140 C 
ATOM      9  C   UNL     1      33.408 -13.457 -23.884  0.00  0.00    +0.029 C 
ATOM     10  C   UNL     1      33.960 -13.265 -25.243  0.00  0.00    +0.078 C 
ATOM     11  C   UNL     1      33.953 -11.736 -25.290  0.00  0.00    +0.210 C 
ATOM     12  C   UNL     1      32.135 -13.318 -21.432  0.00  0.00    +0.020 C 
ATOM     13  C   UNL     1      33.340 -14.603 -23.113  0.00  0.00    +0.051 C 
ATOM     14  C   UNL     1      32.701 -14.526 -21.872  0.00  0.00    +0.071 C 
BRANCH  13  15
ATOM     15  N   UNL     1      33.899 -15.806 -23.585  0.00  0.00    -0.357 N 
ATOM     16  H   UNL     1      34.272 -15.853 -24.495  0.00  0.00    +0.142 HD
ATOM     17  H   UNL     1      33.915 -16.602 -23.005  0.00  0.00    +0.142 HD
ENDBRANCH  13  15
ENDBRANCH   3   7
BRANCH   2  19
ATOM     18  N   UNL     1      32.656  -6.481 -23.817  0.00  0.00    +0.387 N 
ATOM     19  C   UNL     1      31.784  -8.439 -21.805  0.00  0.00    +0.068 C 
ATOM     20  C   UNL     1      32.964  -7.493 -21.578  0.00  0.00    -0.003 C 
ATOM     21  C   UNL     1      30.834  -7.852 -22.853  0.00  0.00    -0.003 C 
ATOM     22  C   UNL     1      33.631  -7.075 -22.893  0.00  0.00    -0.076 C 
ATOM     23  C   UNL     1      31.572  -7.423 -24.125  0.00  0.00    -0.076 C 
ATOM     24  H   UNL     1      32.244  -5.669 -23.358  0.00  0.00    -0.080 HD
BRANCH  18  25
ATOM     25  C   UNL     1      33.317  -6.041 -25.045  0.00  0.00    -0.075 C 
BRANCH  25  26
ATOM     26  C   UNL     1      32.408  -5.097 -25.826  0.00  0.00    +0.009 C 
BRANCH  26  27
ATOM     27  C   UNL     1      32.104  -3.833 -25.035  0.00  0.00    +0.140 C 
BRANCH  27  28
ATOM     28  O   UNL     1      30.898  -4.024 -24.309  0.00  0.00    -0.351 OA
ATOM     29  C   UNL     1      30.925  -3.342 -23.062  0.00  0.00    +0.174 C 
ENDBRANCH  27  28
ENDBRANCH  26  27
ENDBRANCH  25  26
ENDBRANCH  18  25
ENDBRANCH   2  19
TORSDOF 7
ENDMDL
