MODEL 1
REMARK VINA RESULT:      -8.7      0.000      0.000
REMARK  Name = 15991535
REMARK  3 active torsions:
REMARK  status: ('A' for Active; 'I' for Inactive)
REMARK    1  A    between atoms: N_1  and  C_11
REMARK    2  A    between atoms: C_13  and  O_17
REMARK    3  A    between atoms: C_14  and  C_16
REMARK                            x       y       z     vdW  Elec       q    Type
REMARK                         _______ _______ _______ _____ _____    ______ ____
ROOT
ATOM      1  N   UNL     1      34.241 -19.313 -20.941  0.00  0.00    -0.249 N 
ATOM      2  N   UNL     1      32.692 -20.759 -20.238  0.00  0.00    -0.242 NA
ATOM      3  N   UNL     1      36.214 -20.292 -19.913  0.00  0.00    -0.228 NA
ATOM      4  N   UNL     1      35.653 -22.300 -18.645  0.00  0.00    -0.229 NA
ATOM      5  C   UNL     1      34.901 -20.244 -20.186  0.00  0.00    +0.152 C 
ATOM      6  C   UNL     1      32.916 -19.668 -20.941  0.00  0.00    +0.223 C 
ATOM      7  C   UNL     1      33.924 -21.129 -19.760  0.00  0.00    +0.140 C 
ATOM      8  C   UNL     1      34.340 -22.189 -18.962  0.00  0.00    +0.143 C 
ATOM      9  C   UNL     1      36.496 -21.358 -19.134  0.00  0.00    +0.253 C 
ATOM     10  N   UNL     1      33.416 -23.137 -18.486  0.00  0.00    -0.342 N 
ATOM     11  H   UNL     1      33.723 -23.883 -17.922  0.00  0.00    +0.144 HD
ATOM     12  H   UNL     1      32.463 -23.054 -18.719  0.00  0.00    +0.144 HD
ENDROOT
BRANCH   1  14
ATOM     13  O   UNL     1      34.607 -16.972 -20.842  0.00  0.00    -0.335 OA
ATOM     14  C   UNL     1      34.824 -18.162 -21.620  0.00  0.00    +0.197 C 
ATOM     15  C   UNL     1      34.248 -17.893 -23.004  0.00  0.00    +0.083 C 
ATOM     16  C   UNL     1      34.504 -16.411 -23.157  0.00  0.00    +0.145 C 
ATOM     17  C   UNL     1      34.322 -15.878 -21.739  0.00  0.00    +0.179 C 
BRANCH  17  19
ATOM     18  F   UNL     1      32.308 -16.292 -20.633  0.00  0.00    -0.232 F 
ATOM     19  C   UNL     1      32.900 -15.405 -21.470  0.00  0.00    +0.225 C 
ENDBRANCH  17  19
BRANCH  16  20
ATOM     20  O   UNL     1      35.857 -16.228 -23.565  0.00  0.00    -0.382 OA
ATOM     21  H   UNL     1      36.344 -17.061 -23.456  0.00  0.00    +0.210 HD
ENDBRANCH  16  20
ENDBRANCH   1  14
TORSDOF 3
ENDMDL
MODEL 2
REMARK VINA RESULT:      -8.0      6.412      8.996
REMARK  Name = 15991535
REMARK  3 active torsions:
REMARK  status: ('A' for Active; 'I' for Inactive)
REMARK    1  A    between atoms: N_1  and  C_11
REMARK    2  A    between atoms: C_13  and  O_17
REMARK    3  A    between atoms: C_14  and  C_16
REMARK                            x       y       z     vdW  Elec       q    Type
REMARK                         _______ _______ _______ _____ _____    ______ ____
ROOT
ATOM      1  N   UNL     1      35.794 -23.079 -15.123  0.00  0.00    -0.249 N 
ATOM      2  N   UNL     1      33.817 -23.488 -16.074  0.00  0.00    -0.242 NA
ATOM      3  N   UNL     1      36.920 -21.974 -16.972  0.00  0.00    -0.228 NA
ATOM      4  N   UNL     1      35.470 -21.814 -18.928  0.00  0.00    -0.229 NA
ATOM      5  C   UNL     1      35.873 -22.584 -16.396  0.00  0.00    +0.152 C 
ATOM      6  C   UNL     1      34.538 -23.612 -14.980  0.00  0.00    +0.223 C 
ATOM      7  C   UNL     1      34.638 -22.847 -16.967  0.00  0.00    +0.140 C 
ATOM      8  C   UNL     1      34.454 -22.437 -18.283  0.00  0.00    +0.143 C 
ATOM      9  C   UNL     1      36.623 -21.624 -18.242  0.00  0.00    +0.253 C 
ATOM     10  N   UNL     1      33.232 -22.661 -18.941  0.00  0.00    -0.342 N 
ATOM     11  H   UNL     1      33.113 -22.366 -19.873  0.00  0.00    +0.144 HD
ATOM     12  H   UNL     1      32.495 -23.113 -18.470  0.00  0.00    +0.144 HD
ENDROOT
BRANCH   1  14
ATOM     13  O   UNL     1      37.864 -24.007 -14.429  0.00  0.00    -0.335 OA
ATOM     14  C   UNL     1      36.839 -23.051 -14.106  0.00  0.00    +0.197 C 
ATOM     15  C   UNL     1      36.355 -23.386 -12.701  0.00  0.00    +0.083 C 
ATOM     16  C   UNL     1      37.620 -23.909 -12.060  0.00  0.00    +0.145 C 
ATOM     17  C   UNL     1      38.322 -24.626 -13.208  0.00  0.00    +0.179 C 
BRANCH  17  19
ATOM     18  F   UNL     1      37.308 -26.437 -12.140  0.00  0.00    -0.232 F 
ATOM     19  C   UNL     1      37.977 -26.107 -13.272  0.00  0.00    +0.225 C 
ENDBRANCH  17  19
BRANCH  16  20
ATOM     20  O   UNL     1      38.406 -22.795 -11.642  0.00  0.00    -0.382 OA
ATOM     21  H   UNL     1      37.994 -21.973 -11.953  0.00  0.00    +0.210 HD
ENDBRANCH  16  20
ENDBRANCH   1  14
TORSDOF 3
ENDMDL
MODEL 3
REMARK VINA RESULT:      -8.0      7.109      9.161
REMARK  Name = 15991535
REMARK  3 active torsions:
REMARK  status: ('A' for Active; 'I' for Inactive)
REMARK    1  A    between atoms: N_1  and  C_11
REMARK    2  A    between atoms: C_13  and  O_17
REMARK    3  A    between atoms: C_14  and  C_16
REMARK                            x       y       z     vdW  Elec       q    Type
REMARK                         _______ _______ _______ _____ _____    ______ ____
ROOT
ATOM      1  N   UNL     1      34.487 -23.904 -14.856  0.00  0.00    -0.249 N 
ATOM      2  N   UNL     1      32.657 -23.846 -13.579  0.00  0.00    -0.242 NA
ATOM      3  N   UNL     1      33.535 -23.182 -16.973  0.00  0.00    -0.228 NA
ATOM      4  N   UNL     1      31.143 -22.743 -16.769  0.00  0.00    -0.229 NA
ATOM      5  C   UNL     1      33.466 -23.492 -15.670  0.00  0.00    +0.152 C 
ATOM      6  C   UNL     1      33.948 -24.103 -13.611  0.00  0.00    +0.223 C 
ATOM      7  C   UNL     1      32.343 -23.463 -14.859  0.00  0.00    +0.140 C 
ATOM      8  C   UNL     1      31.148 -23.070 -15.454  0.00  0.00    +0.143 C 
ATOM      9  C   UNL     1      32.320 -22.819 -17.436  0.00  0.00    +0.253 C 
ATOM     10  N   UNL     1      29.959 -23.010 -14.706  0.00  0.00    -0.342 N 
ATOM     11  H   UNL     1      29.120 -22.730 -15.138  0.00  0.00    +0.144 HD
ATOM     12  H   UNL     1      29.966 -23.247 -13.751  0.00  0.00    +0.144 HD
ENDROOT
BRANCH   1  14
ATOM     13  O   UNL     1      36.172 -25.501 -15.340  0.00  0.00    -0.335 OA
ATOM     14  C   UNL     1      35.883 -24.096 -15.231  0.00  0.00    +0.197 C 
ATOM     15  C   UNL     1      36.884 -23.518 -14.240  0.00  0.00    +0.083 C 
ATOM     16  C   UNL     1      38.099 -24.379 -14.497  0.00  0.00    +0.145 C 
ATOM     17  C   UNL     1      37.498 -25.743 -14.822  0.00  0.00    +0.179 C 
BRANCH  17  19
ATOM     18  F   UNL     1      38.219 -26.173 -12.645  0.00  0.00    -0.232 F 
ATOM     19  C   UNL     1      37.370 -26.634 -13.595  0.00  0.00    +0.225 C 
ENDBRANCH  17  19
BRANCH  16  20
ATOM     20  O   UNL     1      38.776 -23.870 -15.644  0.00  0.00    -0.382 OA
ATOM     21  H   UNL     1      39.705 -24.150 -15.623  0.00  0.00    +0.210 HD
ENDBRANCH  16  20
ENDBRANCH   1  14
TORSDOF 3
ENDMDL
MODEL 4
REMARK VINA RESULT:      -7.8      6.149      9.057
REMARK  Name = 15991535
REMARK  3 active torsions:
REMARK  status: ('A' for Active; 'I' for Inactive)
REMARK    1  A    between atoms: N_1  and  C_11
REMARK    2  A    between atoms: C_13  and  O_17
REMARK    3  A    between atoms: C_14  and  C_16
REMARK                            x       y       z     vdW  Elec       q    Type
REMARK                         _______ _______ _______ _____ _____    ______ ____
ROOT
ATOM      1  N   UNL     1      36.599 -23.184 -15.748  0.00  0.00    -0.249 N 
ATOM      2  N   UNL     1      37.159 -21.719 -17.336  0.00  0.00    -0.242 NA
ATOM      3  N   UNL     1      34.337 -23.717 -16.458  0.00  0.00    -0.228 NA
ATOM      4  N   UNL     1      33.723 -22.484 -18.472  0.00  0.00    -0.229 NA
ATOM      5  C   UNL     1      35.511 -23.077 -16.570  0.00  0.00    +0.152 C 
ATOM      6  C   UNL     1      37.562 -22.347 -16.252  0.00  0.00    +0.223 C 
ATOM      7  C   UNL     1      35.878 -22.165 -17.546  0.00  0.00    +0.140 C 
ATOM      8  C   UNL     1      34.933 -21.874 -18.524  0.00  0.00    +0.143 C 
ATOM      9  C   UNL     1      33.504 -23.354 -17.457  0.00  0.00    +0.253 C 
ATOM     10  N   UNL     1      35.221 -20.962 -19.554  0.00  0.00    -0.342 N 
ATOM     11  H   UNL     1      34.543 -20.764 -20.240  0.00  0.00    +0.144 HD
ATOM     12  H   UNL     1      36.101 -20.521 -19.589  0.00  0.00    +0.144 HD
ENDROOT
BRANCH   1  14
ATOM     13  O   UNL     1      38.006 -23.815 -13.945  0.00  0.00    -0.335 OA
ATOM     14  C   UNL     1      36.723 -24.023 -14.562  0.00  0.00    +0.197 C 
ATOM     15  C   UNL     1      36.605 -25.516 -14.835  0.00  0.00    +0.083 C 
ATOM     16  C   UNL     1      37.383 -26.100 -13.677  0.00  0.00    +0.145 C 
ATOM     17  C   UNL     1      38.496 -25.081 -13.456  0.00  0.00    +0.179 C 
BRANCH  17  19
ATOM     18  F   UNL     1      39.801 -24.663 -15.346  0.00  0.00    -0.232 F 
ATOM     19  C   UNL     1      39.765 -25.424 -14.225  0.00  0.00    +0.225 C 
ENDBRANCH  17  19
BRANCH  16  20
ATOM     20  O   UNL     1      36.531 -26.131 -12.534  0.00  0.00    -0.382 OA
ATOM     21  H   UNL     1      35.992 -25.324 -12.509  0.00  0.00    +0.210 HD
ENDBRANCH  16  20
ENDBRANCH   1  14
TORSDOF 3
ENDMDL
MODEL 5
REMARK VINA RESULT:      -7.8      3.842      6.427
REMARK  Name = 15991535
REMARK  3 active torsions:
REMARK  status: ('A' for Active; 'I' for Inactive)
REMARK    1  A    between atoms: N_1  and  C_11
REMARK    2  A    between atoms: C_13  and  O_17
REMARK    3  A    between atoms: C_14  and  C_16
REMARK                            x       y       z     vdW  Elec       q    Type
REMARK                         _______ _______ _______ _____ _____    ______ ____
ROOT
ATOM      1  N   UNL     1      34.684 -17.434 -23.957  0.00  0.00    -0.249 N 
ATOM      2  N   UNL     1      33.650 -16.958 -25.877  0.00  0.00    -0.242 NA
ATOM      3  N   UNL     1      34.585 -15.255 -22.885  0.00  0.00    -0.228 NA
ATOM      4  N   UNL     1      33.465 -13.615 -24.304  0.00  0.00    -0.229 NA
ATOM      5  C   UNL     1      34.348 -16.109 -23.892  0.00  0.00    +0.152 C 
ATOM      6  C   UNL     1      34.242 -17.897 -25.170  0.00  0.00    +0.223 C 
ATOM      7  C   UNL     1      33.709 -15.835 -25.091  0.00  0.00    +0.140 C 
ATOM      8  C   UNL     1      33.259 -14.533 -25.281  0.00  0.00    +0.143 C 
ATOM      9  C   UNL     1      34.106 -14.028 -23.184  0.00  0.00    +0.253 C 
ATOM     10  N   UNL     1      32.598 -14.166 -26.466  0.00  0.00    -0.342 N 
ATOM     11  H   UNL     1      32.284 -13.241 -26.589  0.00  0.00    +0.144 HD
ATOM     12  H   UNL     1      32.450 -14.835 -27.173  0.00  0.00    +0.144 HD
ENDROOT
BRANCH   1  14
ATOM     13  O   UNL     1      34.750 -19.499 -22.793  0.00  0.00    -0.335 OA
ATOM     14  C   UNL     1      35.378 -18.213 -22.939  0.00  0.00    +0.197 C 
ATOM     15  C   UNL     1      35.388 -17.572 -21.558  0.00  0.00    +0.083 C 
ATOM     16  C   UNL     1      35.539 -18.780 -20.662  0.00  0.00    +0.145 C 
ATOM     17  C   UNL     1      34.748 -19.858 -21.395  0.00  0.00    +0.179 C 
BRANCH  17  19
ATOM     18  F   UNL     1      33.280 -20.509 -19.701  0.00  0.00    -0.232 F 
ATOM     19  C   UNL     1      33.300 -19.940 -20.931  0.00  0.00    +0.225 C 
ENDBRANCH  17  19
BRANCH  16  20
ATOM     20  O   UNL     1      36.918 -19.142 -20.624  0.00  0.00    -0.382 OA
ATOM     21  H   UNL     1      37.453 -18.418 -20.986  0.00  0.00    +0.210 HD
ENDBRANCH  16  20
ENDBRANCH   1  14
TORSDOF 3
ENDMDL
MODEL 6
REMARK VINA RESULT:      -7.8      0.966      2.073
REMARK  Name = 15991535
REMARK  3 active torsions:
REMARK  status: ('A' for Active; 'I' for Inactive)
REMARK    1  A    between atoms: N_1  and  C_11
REMARK    2  A    between atoms: C_13  and  O_17
REMARK    3  A    between atoms: C_14  and  C_16
REMARK                            x       y       z     vdW  Elec       q    Type
REMARK                         _______ _______ _______ _____ _____    ______ ____
ROOT
ATOM      1  N   UNL     1      35.715 -19.096 -20.950  0.00  0.00    -0.249 N 
ATOM      2  N   UNL     1      36.462 -20.791 -19.704  0.00  0.00    -0.242 NA
ATOM      3  N   UNL     1      33.337 -19.597 -20.943  0.00  0.00    -0.228 NA
ATOM      4  N   UNL     1      32.856 -21.612 -19.654  0.00  0.00    -0.229 NA
ATOM      5  C   UNL     1      34.614 -19.833 -20.607  0.00  0.00    +0.152 C 
ATOM      6  C   UNL     1      36.800 -19.714 -20.382  0.00  0.00    +0.223 C 
ATOM      7  C   UNL     1      35.099 -20.877 -19.836  0.00  0.00    +0.140 C 
ATOM      8  C   UNL     1      34.166 -21.788 -19.352  0.00  0.00    +0.143 C 
ATOM      9  C   UNL     1      32.529 -20.544 -20.420  0.00  0.00    +0.253 C 
ATOM     10  N   UNL     1      34.568 -22.877 -18.560  0.00  0.00    -0.342 N 
ATOM     11  H   UNL     1      33.898 -23.515 -18.223  0.00  0.00    +0.144 HD
ATOM     12  H   UNL     1      35.520 -23.001 -18.342  0.00  0.00    +0.144 HD
ENDROOT
BRANCH   1  14
ATOM     13  O   UNL     1      35.274 -16.766 -20.987  0.00  0.00    -0.335 OA
ATOM     14  C   UNL     1      35.742 -17.885 -21.761  0.00  0.00    +0.197 C 
ATOM     15  C   UNL     1      34.874 -17.948 -23.010  0.00  0.00    +0.083 C 
ATOM     16  C   UNL     1      34.578 -16.485 -23.250  0.00  0.00    +0.145 C 
ATOM     17  C   UNL     1      34.479 -15.914 -21.839  0.00  0.00    +0.179 C 
BRANCH  17  19
ATOM     18  F   UNL     1      33.035 -15.219 -20.142  0.00  0.00    -0.232 F 
ATOM     19  C   UNL     1      33.053 -15.912 -21.307  0.00  0.00    +0.225 C 
ENDBRANCH  17  19
BRANCH  16  20
ATOM     20  O   UNL     1      35.694 -15.906 -23.922  0.00  0.00    -0.382 OA
ATOM     21  H   UNL     1      35.477 -14.998 -24.188  0.00  0.00    +0.210 HD
ENDBRANCH  16  20
ENDBRANCH   1  14
TORSDOF 3
ENDMDL
MODEL 7
REMARK VINA RESULT:      -7.7      7.183      9.575
REMARK  Name = 15991535
REMARK  3 active torsions:
REMARK  status: ('A' for Active; 'I' for Inactive)
REMARK    1  A    between atoms: N_1  and  C_11
REMARK    2  A    between atoms: C_13  and  O_17
REMARK    3  A    between atoms: C_14  and  C_16
REMARK                            x       y       z     vdW  Elec       q    Type
REMARK                         _______ _______ _______ _____ _____    ______ ____
ROOT
ATOM      1  N   UNL     1      35.852 -23.360 -14.951  0.00  0.00    -0.249 N 
ATOM      2  N   UNL     1      35.589 -22.740 -17.080  0.00  0.00    -0.242 NA
ATOM      3  N   UNL     1      33.538 -23.824 -14.370  0.00  0.00    -0.228 NA
ATOM      4  N   UNL     1      32.048 -23.429 -16.262  0.00  0.00    -0.229 NA
ATOM      5  C   UNL     1      34.511 -23.446 -15.212  0.00  0.00    +0.152 C 
ATOM      6  C   UNL     1      36.455 -22.931 -16.107  0.00  0.00    +0.223 C 
ATOM      7  C   UNL     1      34.370 -23.058 -16.535  0.00  0.00    +0.140 C 
ATOM      8  C   UNL     1      33.081 -23.058 -17.057  0.00  0.00    +0.143 C 
ATOM      9  C   UNL     1      32.337 -23.783 -14.986  0.00  0.00    +0.253 C 
ATOM     10  N   UNL     1      32.846 -22.681 -18.391  0.00  0.00    -0.342 N 
ATOM     11  H   UNL     1      31.929 -22.685 -18.750  0.00  0.00    +0.144 HD
ATOM     12  H   UNL     1      33.599 -22.413 -18.967  0.00  0.00    +0.144 HD
ENDROOT
BRANCH   1  14
ATOM     13  O   UNL     1      37.947 -23.597 -13.866  0.00  0.00    -0.335 OA
ATOM     14  C   UNL     1      36.521 -23.663 -13.692  0.00  0.00    +0.197 C 
ATOM     15  C   UNL     1      36.210 -25.045 -13.134  0.00  0.00    +0.083 C 
ATOM     16  C   UNL     1      37.440 -25.319 -12.298  0.00  0.00    +0.145 C 
ATOM     17  C   UNL     1      38.557 -24.652 -13.093  0.00  0.00    +0.179 C 
BRANCH  17  19
ATOM     18  F   UNL     1      40.563 -25.646 -13.755  0.00  0.00    -0.232 F 
ATOM     19  C   UNL     1      39.242 -25.609 -14.058  0.00  0.00    +0.225 C 
ENDBRANCH  17  19
BRANCH  16  20
ATOM     20  O   UNL     1      37.286 -24.659 -11.044  0.00  0.00    -0.382 OA
ATOM     21  H   UNL     1      36.352 -24.677 -10.780  0.00  0.00    +0.210 HD
ENDBRANCH  16  20
ENDBRANCH   1  14
TORSDOF 3
ENDMDL
MODEL 8
REMARK VINA RESULT:      -7.7      6.284      8.376
REMARK  Name = 15991535
REMARK  3 active torsions:
REMARK  status: ('A' for Active; 'I' for Inactive)
REMARK    1  A    between atoms: N_1  and  C_11
REMARK    2  A    between atoms: C_13  and  O_17
REMARK    3  A    between atoms: C_14  and  C_16
REMARK                            x       y       z     vdW  Elec       q    Type
REMARK                         _______ _______ _______ _____ _____    ______ ____
ROOT
ATOM      1  N   UNL     1      33.938 -24.035 -14.547  0.00  0.00    -0.249 N 
ATOM      2  N   UNL     1      31.732 -23.719 -14.416  0.00  0.00    -0.242 NA
ATOM      3  N   UNL     1      34.316 -23.346 -16.846  0.00  0.00    -0.228 NA
ATOM      4  N   UNL     1      32.238 -22.656 -17.922  0.00  0.00    -0.229 NA
ATOM      5  C   UNL     1      33.545 -23.571 -15.773  0.00  0.00    +0.152 C 
ATOM      6  C   UNL     1      32.811 -24.106 -13.768  0.00  0.00    +0.223 C 
ATOM      7  C   UNL     1      32.176 -23.381 -15.670  0.00  0.00    +0.140 C 
ATOM      8  C   UNL     1      31.520 -22.905 -16.800  0.00  0.00    +0.143 C 
ATOM      9  C   UNL     1      33.571 -22.889 -17.876  0.00  0.00    +0.253 C 
ATOM     10  N   UNL     1      30.132 -22.681 -16.785  0.00  0.00    -0.342 N 
ATOM     11  H   UNL     1      29.678 -22.344 -17.591  0.00  0.00    +0.144 HD
ATOM     12  H   UNL     1      29.613 -22.863 -15.968  0.00  0.00    +0.144 HD
ENDROOT
BRANCH   1  14
ATOM     13  O   UNL     1      36.128 -23.219 -14.145  0.00  0.00    -0.335 OA
ATOM     14  C   UNL     1      35.291 -24.389 -14.137  0.00  0.00    +0.197 C 
ATOM     15  C   UNL     1      35.968 -25.419 -15.031  0.00  0.00    +0.083 C 
ATOM     16  C   UNL     1      37.430 -25.104 -14.805  0.00  0.00    +0.145 C 
ATOM     17  C   UNL     1      37.436 -23.589 -14.630  0.00  0.00    +0.179 C 
BRANCH  17  19
ATOM     18  F   UNL     1      36.932 -21.719 -15.933  0.00  0.00    -0.232 F 
ATOM     19  C   UNL     1      37.681 -22.849 -15.938  0.00  0.00    +0.225 C 
ENDBRANCH  17  19
BRANCH  16  20
ATOM     20  O   UNL     1      37.842 -25.727 -13.591  0.00  0.00    -0.382 OA
ATOM     21  H   UNL     1      37.650 -25.138 -12.843  0.00  0.00    +0.210 HD
ENDBRANCH  16  20
ENDBRANCH   1  14
TORSDOF 3
ENDMDL
MODEL 9
REMARK VINA RESULT:      -7.7      7.025      8.614
REMARK  Name = 15991535
REMARK  3 active torsions:
REMARK  status: ('A' for Active; 'I' for Inactive)
REMARK    1  A    between atoms: N_1  and  C_11
REMARK    2  A    between atoms: C_13  and  O_17
REMARK    3  A    between atoms: C_14  and  C_16
REMARK                            x       y       z     vdW  Elec       q    Type
REMARK                         _______ _______ _______ _____ _____    ______ ____
ROOT
ATOM      1  N   UNL     1      33.694 -23.758 -15.243  0.00  0.00    -0.249 N 
ATOM      2  N   UNL     1      34.980 -23.006 -16.905  0.00  0.00    -0.242 NA
ATOM      3  N   UNL     1      35.358 -23.924 -13.479  0.00  0.00    -0.228 NA
ATOM      4  N   UNL     1      37.562 -23.235 -14.266  0.00  0.00    -0.229 NA
ATOM      5  C   UNL     1      34.957 -23.644 -14.727  0.00  0.00    +0.152 C 
ATOM      6  C   UNL     1      33.762 -23.362 -16.554  0.00  0.00    +0.223 C 
ATOM      7  C   UNL     1      35.737 -23.177 -15.773  0.00  0.00    +0.140 C 
ATOM      8  C   UNL     1      37.087 -22.971 -15.508  0.00  0.00    +0.143 C 
ATOM      9  C   UNL     1      36.681 -23.688 -13.343  0.00  0.00    +0.253 C 
ATOM     10  N   UNL     1      37.952 -22.497 -16.510  0.00  0.00    -0.342 N 
ATOM     11  H   UNL     1      38.906 -22.355 -16.310  0.00  0.00    +0.144 HD
ATOM     12  H   UNL     1      37.604 -22.306 -17.410  0.00  0.00    +0.144 HD
ENDROOT
BRANCH   1  14
ATOM     13  O   UNL     1      31.449 -24.482 -15.486  0.00  0.00    -0.335 OA
ATOM     14  C   UNL     1      32.500 -24.212 -14.541  0.00  0.00    +0.197 C 
ATOM     15  C   UNL     1      31.942 -23.209 -13.540  0.00  0.00    +0.083 C 
ATOM     16  C   UNL     1      30.485 -23.610 -13.488  0.00  0.00    +0.145 C 
ATOM     17  C   UNL     1      30.194 -24.051 -14.918  0.00  0.00    +0.179 C 
BRANCH  17  19
ATOM     18  F   UNL     1      28.972 -22.063 -14.979  0.00  0.00    -0.232 F 
ATOM     19  C   UNL     1      29.649 -22.920 -15.781  0.00  0.00    +0.225 C 
ENDBRANCH  17  19
BRANCH  16  20
ATOM     20  O   UNL     1      30.356 -24.724 -12.608  0.00  0.00    -0.382 OA
ATOM     21  H   UNL     1      29.453 -25.077 -12.662  0.00  0.00    +0.210 HD
ENDBRANCH  16  20
ENDBRANCH   1  14
TORSDOF 3
ENDMDL
