MODEL 1
REMARK VINA RESULT:      -7.5      0.000      0.000
REMARK  Name = 24965990
REMARK  2 active torsions:
REMARK  status: ('A' for Active; 'I' for Inactive)
REMARK    1  A    between atoms: C_13  and  C_21
REMARK    2  A    between atoms: C_22  and  N_28
REMARK                            x       y       z     vdW  Elec       q    Type
REMARK                         _______ _______ _______ _____ _____    ______ ____
ROOT
ATOM      1 CL   UNL     1      33.235 -14.786 -22.715  0.00  0.00    -0.086 Cl
ATOM      2  O   UNL     1      35.410 -19.898 -21.031  0.00  0.00    -0.414 OA
ATOM      3  O   UNL     1      35.680 -24.617 -15.699  0.00  0.00    -0.270 OA
ATOM      4  N   UNL     1      35.189 -22.643 -16.871  0.00  0.00    -0.276 N 
ATOM      5  N   UNL     1      34.415 -21.521 -19.677  0.00  0.00    -0.251 N 
ATOM      6  N   UNL     1      33.328 -19.412 -20.276  0.00  0.00    -0.356 NA
ATOM      7  C   UNL     1      36.554 -22.565 -17.433  0.00  0.00    +0.077 C 
ATOM      8  C   UNL     1      36.683 -21.890 -18.814  0.00  0.00    +0.041 C 
ATOM      9  C   UNL     1      35.625 -22.340 -19.826  0.00  0.00    +0.098 C 
ATOM     10  C   UNL     1      34.218 -21.589 -17.217  0.00  0.00    +0.115 C 
ATOM     11  C   UNL     1      33.538 -21.876 -18.558  0.00  0.00    +0.118 C 
ATOM     12  C   UNL     1      37.492 -21.884 -16.432  0.00  0.00    +0.022 C 
ATOM     13  C   UNL     1      34.898 -23.719 -16.013  0.00  0.00    +0.250 C 
ATOM     14  C   UNL     1      34.323 -20.273 -20.300  0.00  0.00    +0.348 C 
ATOM     15  C   UNL     1      33.787 -18.378 -21.056  0.00  0.00    +0.153 C 
ATOM     16  C   UNL     1      35.061 -18.671 -21.518  0.00  0.00    +0.175 C 
ATOM     17  C   UNL     1      33.197 -17.159 -21.421  0.00  0.00    +0.100 C 
ATOM     18  C   UNL     1      35.818 -17.838 -22.333  0.00  0.00    +0.041 C 
ATOM     19  C   UNL     1      33.930 -16.293 -22.243  0.00  0.00    +0.043 C 
ATOM     20  C   UNL     1      35.215 -16.628 -22.689  0.00  0.00    +0.011 C 
ENDROOT
BRANCH  13  21
ATOM     21  C   UNL     1      33.558 -23.802 -15.423  0.00  0.00    +0.070 C 
ATOM     22  C   UNL     1      33.371 -23.899 -14.043  0.00  0.00    +0.098 C 
ATOM     23  C   UNL     1      32.454 -23.782 -16.275  0.00  0.00    +0.002 C 
ATOM     24  C   UNL     1      31.165 -23.858 -15.749  0.00  0.00    -0.022 C 
ATOM     25  C   UNL     1      32.082 -23.975 -13.517  0.00  0.00    +0.018 C 
ATOM     26  C   UNL     1      30.979 -23.954 -14.370  0.00  0.00    -0.003 C 
ATOM     27  C   UNL     1      29.985 -23.835 -16.661  0.00  0.00    +0.031 C 
BRANCH  22  28
ATOM     28  N   UNL     1      34.451 -23.922 -13.176  0.00  0.00    -0.109 N 
ATOM     29  N   UNL     1      34.509 -24.815 -12.174  0.00  0.00    -0.154 NA
ATOM     30  N   UNL     1      35.463 -23.051 -13.317  0.00  0.00    -0.154 NA
ATOM     31  C   UNL     1      35.675 -24.488 -11.611  0.00  0.00    +0.142 C 
ATOM     32  C   UNL     1      36.256 -23.417 -12.305  0.00  0.00    +0.142 C 
ENDBRANCH  22  28
ENDBRANCH  13  21
TORSDOF 2
ENDMDL
MODEL 2
REMARK VINA RESULT:      -7.4      8.230     13.273
REMARK  Name = 24965990
REMARK  2 active torsions:
REMARK  status: ('A' for Active; 'I' for Inactive)
REMARK    1  A    between atoms: C_13  and  C_21
REMARK    2  A    between atoms: C_22  and  N_28
REMARK                            x       y       z     vdW  Elec       q    Type
REMARK                         _______ _______ _______ _____ _____    ______ ____
ROOT
ATOM      1 CL   UNL     1      31.263  -2.509 -26.415  0.00  0.00    -0.086 Cl
ATOM      2  O   UNL     1      32.381  -6.610 -22.462  0.00  0.00    -0.414 OA
ATOM      3  O   UNL     1      32.408 -13.628 -21.228  0.00  0.00    -0.270 OA
ATOM      4  N   UNL     1      32.053 -11.587 -22.332  0.00  0.00    -0.276 N 
ATOM      5  N   UNL     1      33.260  -8.748 -22.801  0.00  0.00    -0.251 N 
ATOM      6  N   UNL     1      32.856  -7.153 -24.612  0.00  0.00    -0.356 NA
ATOM      7  C   UNL     1      31.527 -10.947 -21.108  0.00  0.00    +0.077 C 
ATOM      8  C   UNL     1      31.754  -9.426 -20.985  0.00  0.00    +0.041 C 
ATOM      9  C   UNL     1      33.171  -8.978 -21.352  0.00  0.00    +0.098 C 
ATOM     10  C   UNL     1      32.119 -10.796 -23.575  0.00  0.00    +0.115 C 
ATOM     11  C   UNL     1      33.392  -9.949 -23.631  0.00  0.00    +0.118 C 
ATOM     12  C   UNL     1      30.036 -11.264 -20.954  0.00  0.00    +0.022 C 
ATOM     13  C   UNL     1      32.448 -12.934 -22.244  0.00  0.00    +0.250 C 
ATOM     14  C   UNL     1      32.850  -7.531 -23.351  0.00  0.00    +0.348 C 
ATOM     15  C   UNL     1      32.351  -5.876 -24.561  0.00  0.00    +0.153 C 
ATOM     16  C   UNL     1      32.058  -5.541 -23.247  0.00  0.00    +0.175 C 
ATOM     17  C   UNL     1      32.106  -4.935 -25.571  0.00  0.00    +0.100 C 
ATOM     18  C   UNL     1      31.531  -4.321 -22.841  0.00  0.00    +0.041 C 
ATOM     19  C   UNL     1      31.575  -3.692 -25.199  0.00  0.00    +0.043 C 
ATOM     20  C   UNL     1      31.294  -3.394 -23.860  0.00  0.00    +0.011 C 
ENDROOT
BRANCH  13  21
ATOM     21  C   UNL     1      32.949 -13.597 -23.454  0.00  0.00    +0.070 C 
ATOM     22  C   UNL     1      33.689 -14.778 -23.387  0.00  0.00    +0.098 C 
ATOM     23  C   UNL     1      32.670 -13.019 -24.691  0.00  0.00    +0.002 C 
ATOM     24  C   UNL     1      33.130 -13.621 -25.862  0.00  0.00    -0.022 C 
ATOM     25  C   UNL     1      34.148 -15.381 -24.557  0.00  0.00    +0.018 C 
ATOM     26  C   UNL     1      33.869 -14.802 -25.795  0.00  0.00    -0.003 C 
ATOM     27  C   UNL     1      32.831 -13.003 -27.186  0.00  0.00    +0.031 C 
BRANCH  22  28
ATOM     28  N   UNL     1      33.979 -15.371 -22.169  0.00  0.00    -0.109 N 
ATOM     29  N   UNL     1      34.898 -14.838 -21.347  0.00  0.00    -0.154 NA
ATOM     30  N   UNL     1      33.349 -16.493 -21.784  0.00  0.00    -0.154 NA
ATOM     31  C   UNL     1      34.858 -15.702 -20.328  0.00  0.00    +0.142 C 
ATOM     32  C   UNL     1      33.917 -16.707 -20.594  0.00  0.00    +0.142 C 
ENDBRANCH  22  28
ENDBRANCH  13  21
TORSDOF 2
ENDMDL
MODEL 3
REMARK VINA RESULT:      -7.1      7.113     13.390
REMARK  Name = 24965990
REMARK  2 active torsions:
REMARK  status: ('A' for Active; 'I' for Inactive)
REMARK    1  A    between atoms: C_13  and  C_21
REMARK    2  A    between atoms: C_22  and  N_28
REMARK                            x       y       z     vdW  Elec       q    Type
REMARK                         _______ _______ _______ _____ _____    ______ ____
ROOT
ATOM      1 CL   UNL     1      37.664 -20.030 -21.005  0.00  0.00    -0.086 Cl
ATOM      2  O   UNL     1      33.187 -16.448 -21.908  0.00  0.00    -0.414 OA
ATOM      3  O   UNL     1      31.256  -9.619 -22.553  0.00  0.00    -0.270 OA
ATOM      4  N   UNL     1      32.604 -11.499 -22.153  0.00  0.00    -0.276 N 
ATOM      5  N   UNL     1      33.162 -14.426 -23.078  0.00  0.00    -0.251 N 
ATOM      6  N   UNL     1      35.167 -15.801 -22.804  0.00  0.00    -0.356 NA
ATOM      7  C   UNL     1      31.552 -12.160 -21.354  0.00  0.00    +0.077 C 
ATOM      8  C   UNL     1      31.550 -13.703 -21.375  0.00  0.00    +0.041 C 
ATOM      9  C   UNL     1      31.730 -14.304 -22.772  0.00  0.00    +0.098 C 
ATOM     10  C   UNL     1      33.895 -12.188 -22.336  0.00  0.00    +0.115 C 
ATOM     11  C   UNL     1      33.834 -13.190 -23.491  0.00  0.00    +0.118 C 
ATOM     12  C   UNL     1      31.605 -11.660 -19.906  0.00  0.00    +0.022 C 
ATOM     13  C   UNL     1      32.318 -10.228 -22.683  0.00  0.00    +0.250 C 
ATOM     14  C   UNL     1      33.892 -15.529 -22.628  0.00  0.00    +0.348 C 
ATOM     15  C   UNL     1      35.328 -16.999 -22.151  0.00  0.00    +0.153 C 
ATOM     16  C   UNL     1      34.118 -17.397 -21.601  0.00  0.00    +0.175 C 
ATOM     17  C   UNL     1      36.455 -17.814 -21.972  0.00  0.00    +0.100 C 
ATOM     18  C   UNL     1      33.927 -18.565 -20.872  0.00  0.00    +0.041 C 
ATOM     19  C   UNL     1      36.301 -19.001 -21.243  0.00  0.00    +0.043 C 
ATOM     20  C   UNL     1      35.061 -19.367 -20.704  0.00  0.00    +0.011 C 
ENDROOT
BRANCH  13  21
ATOM     21  C   UNL     1      33.359  -9.542 -23.458  0.00  0.00    +0.070 C 
ATOM     22  C   UNL     1      33.709  -8.216 -23.198  0.00  0.00    +0.098 C 
ATOM     23  C   UNL     1      34.001 -10.246 -24.476  0.00  0.00    +0.002 C 
ATOM     24  C   UNL     1      34.995  -9.626 -25.232  0.00  0.00    -0.022 C 
ATOM     25  C   UNL     1      34.704  -7.596 -23.954  0.00  0.00    +0.018 C 
ATOM     26  C   UNL     1      35.347  -8.301 -24.971  0.00  0.00    -0.003 C 
ATOM     27  C   UNL     1      35.684 -10.379 -26.320  0.00  0.00    +0.031 C 
BRANCH  22  28
ATOM     28  N   UNL     1      33.085  -7.496 -22.193  0.00  0.00    -0.109 N 
ATOM     29  N   UNL     1      32.268  -6.471 -22.488  0.00  0.00    -0.154 NA
ATOM     30  N   UNL     1      33.283  -7.806 -20.901  0.00  0.00    -0.154 NA
ATOM     31  C   UNL     1      31.902  -6.079 -21.265  0.00  0.00    +0.142 C 
ATOM     32  C   UNL     1      32.518  -6.889 -20.301  0.00  0.00    +0.142 C 
ENDBRANCH  22  28
ENDBRANCH  13  21
TORSDOF 2
ENDMDL
MODEL 4
REMARK VINA RESULT:      -6.4     10.072     16.605
REMARK  Name = 24965990
REMARK  2 active torsions:
REMARK  status: ('A' for Active; 'I' for Inactive)
REMARK    1  A    between atoms: C_13  and  C_21
REMARK    2  A    between atoms: C_22  and  N_28
REMARK                            x       y       z     vdW  Elec       q    Type
REMARK                         _______ _______ _______ _____ _____    ______ ____
ROOT
ATOM      1 CL   UNL     1      35.392 -17.048 -22.686  0.00  0.00    -0.086 Cl
ATOM      2  O   UNL     1      32.063 -12.396 -21.702  0.00  0.00    -0.414 OA
ATOM      3  O   UNL     1      31.691  -5.302 -22.263  0.00  0.00    -0.270 OA
ATOM      4  N   UNL     1      32.579  -7.474 -22.334  0.00  0.00    -0.276 N 
ATOM      5  N   UNL     1      31.884 -10.446 -22.977  0.00  0.00    -0.251 N 
ATOM      6  N   UNL     1      33.357 -12.310 -23.562  0.00  0.00    -0.356 NA
ATOM      7  C   UNL     1      31.989  -7.823 -21.025  0.00  0.00    +0.077 C 
ATOM      8  C   UNL     1      31.626  -9.309 -20.818  0.00  0.00    +0.041 C 
ATOM      9  C   UNL     1      30.901  -9.942 -22.008  0.00  0.00    +0.098 C 
ATOM     10  C   UNL     1      33.383  -8.486 -23.044  0.00  0.00    +0.115 C 
ATOM     11  C   UNL     1      32.495  -9.439 -23.848  0.00  0.00    +0.118 C 
ATOM     12  C   UNL     1      32.910  -7.351 -19.895  0.00  0.00    +0.022 C 
ATOM     13  C   UNL     1      32.353  -6.175 -22.824  0.00  0.00    +0.250 C 
ATOM     14  C   UNL     1      32.469 -11.704 -22.804  0.00  0.00    +0.348 C 
ATOM     15  C   UNL     1      33.562 -13.504 -22.914  0.00  0.00    +0.153 C 
ATOM     16  C   UNL     1      32.772 -13.560 -21.775  0.00  0.00    +0.175 C 
ATOM     17  C   UNL     1      34.394 -14.592 -23.216  0.00  0.00    +0.100 C 
ATOM     18  C   UNL     1      32.736 -14.630 -20.889  0.00  0.00    +0.041 C 
ATOM     19  C   UNL     1      34.384 -15.691 -22.345  0.00  0.00    +0.043 C 
ATOM     20  C   UNL     1      33.570 -15.706 -21.205  0.00  0.00    +0.011 C 
ENDROOT
BRANCH  13  21
ATOM     21  C   UNL     1      32.952  -5.797 -24.110  0.00  0.00    +0.070 C 
ATOM     22  C   UNL     1      32.579  -4.628 -24.774  0.00  0.00    +0.098 C 
ATOM     23  C   UNL     1      33.913  -6.640 -24.667  0.00  0.00    +0.002 C 
ATOM     24  C   UNL     1      34.503  -6.313 -25.887  0.00  0.00    -0.022 C 
ATOM     25  C   UNL     1      33.170  -4.301 -25.995  0.00  0.00    +0.018 C 
ATOM     26  C   UNL     1      34.132  -5.144 -26.551  0.00  0.00    -0.003 C 
ATOM     27  C   UNL     1      35.533  -7.213 -26.483  0.00  0.00    +0.031 C 
BRANCH  22  28
ATOM     28  N   UNL     1      31.626  -3.776 -24.242  0.00  0.00    -0.109 N 
ATOM     29  N   UNL     1      30.343  -3.850 -24.633  0.00  0.00    -0.154 NA
ATOM     30  N   UNL     1      31.963  -2.857 -23.322  0.00  0.00    -0.154 NA
ATOM     31  C   UNL     1      29.796  -2.881 -23.893  0.00  0.00    +0.142 C 
ATOM     32  C   UNL     1      30.780  -2.278 -23.097  0.00  0.00    +0.142 C 
ENDBRANCH  22  28
ENDBRANCH  13  21
TORSDOF 2
ENDMDL
MODEL 5
REMARK VINA RESULT:      -5.0      8.441     14.937
REMARK  Name = 24965990
REMARK  2 active torsions:
REMARK  status: ('A' for Active; 'I' for Inactive)
REMARK    1  A    between atoms: C_13  and  C_21
REMARK    2  A    between atoms: C_22  and  N_28
REMARK                            x       y       z     vdW  Elec       q    Type
REMARK                         _______ _______ _______ _____ _____    ______ ____
ROOT
ATOM      1 CL   UNL     1      36.460 -18.679 -22.091  0.00  0.00    -0.086 Cl
ATOM      2  O   UNL     1      32.395 -14.548 -21.766  0.00  0.00    -0.414 OA
ATOM      3  O   UNL     1      31.219  -7.527 -22.063  0.00  0.00    -0.270 OA
ATOM      4  N   UNL     1      32.382  -9.565 -22.009  0.00  0.00    -0.276 N 
ATOM      5  N   UNL     1      32.274 -12.538 -22.950  0.00  0.00    -0.251 N 
ATOM      6  N   UNL     1      34.084 -14.161 -23.228  0.00  0.00    -0.356 NA
ATOM      7  C   UNL     1      31.540 -10.087 -20.912  0.00  0.00    +0.077 C 
ATOM      8  C   UNL     1      31.341 -11.616 -20.876  0.00  0.00    +0.041 C 
ATOM      9  C   UNL     1      31.024 -12.233 -22.241  0.00  0.00    +0.098 C 
ATOM     10  C   UNL     1      33.465 -10.414 -22.538  0.00  0.00    +0.115 C 
ATOM     11  C   UNL     1      32.940 -11.398 -23.587  0.00  0.00    +0.118 C 
ATOM     12  C   UNL     1      32.082  -9.601 -19.563  0.00  0.00    +0.022 C 
ATOM     13  C   UNL     1      32.111  -8.267 -22.478  0.00  0.00    +0.250 C 
ATOM     14  C   UNL     1      32.963 -13.727 -22.694  0.00  0.00    +0.348 C 
ATOM     15  C   UNL     1      34.282 -15.371 -22.608  0.00  0.00    +0.153 C 
ATOM     16  C   UNL     1      33.251 -15.611 -21.712  0.00  0.00    +0.175 C 
ATOM     17  C   UNL     1      35.301 -16.325 -22.739  0.00  0.00    +0.100 C 
ATOM     18  C   UNL     1      33.141 -16.745 -20.917  0.00  0.00    +0.041 C 
ATOM     19  C   UNL     1      35.225 -17.483 -21.953  0.00  0.00    +0.043 C 
ATOM     20  C   UNL     1      34.165 -17.686 -21.061  0.00  0.00    +0.011 C 
ENDROOT
BRANCH  13  21
ATOM     21  C   UNL     1      32.951  -7.719 -23.549  0.00  0.00    +0.070 C 
ATOM     22  C   UNL     1      32.848  -6.387 -23.950  0.00  0.00    +0.098 C 
ATOM     23  C   UNL     1      33.869  -8.565 -24.170  0.00  0.00    +0.002 C 
ATOM     24  C   UNL     1      34.685  -8.079 -25.192  0.00  0.00    -0.022 C 
ATOM     25  C   UNL     1      33.664  -5.901 -24.971  0.00  0.00    +0.018 C 
ATOM     26  C   UNL     1      34.582  -6.747 -25.592  0.00  0.00    -0.003 C 
ATOM     27  C   UNL     1      35.667  -8.983 -25.856  0.00  0.00    +0.031 C 
BRANCH  22  28
ATOM     28  N   UNL     1      31.943  -5.527 -23.348  0.00  0.00    -0.109 N 
ATOM     29  N   UNL     1      31.972  -5.318 -22.022  0.00  0.00    -0.154 NA
ATOM     30  N   UNL     1      31.017  -4.885 -24.079  0.00  0.00    -0.154 NA
ATOM     31  C   UNL     1      30.963  -4.454 -21.880  0.00  0.00    +0.142 C 
ATOM     32  C   UNL     1      30.383  -4.191 -23.129  0.00  0.00    +0.142 C 
ENDBRANCH  22  28
ENDBRANCH  13  21
TORSDOF 2
ENDMDL
MODEL 6
REMARK VINA RESULT:      -4.7      6.566     12.780
REMARK  Name = 24965990
REMARK  2 active torsions:
REMARK  status: ('A' for Active; 'I' for Inactive)
REMARK    1  A    between atoms: C_13  and  C_21
REMARK    2  A    between atoms: C_22  and  N_28
REMARK                            x       y       z     vdW  Elec       q    Type
REMARK                         _______ _______ _______ _____ _____    ______ ____
ROOT
ATOM      1 CL   UNL     1      33.740 -21.459 -19.755  0.00  0.00    -0.086 Cl
ATOM      2  O   UNL     1      34.782 -16.809 -23.069  0.00  0.00    -0.414 OA
ATOM      3  O   UNL     1      32.805 -10.103 -24.449  0.00  0.00    -0.270 OA
ATOM      4  N   UNL     1      32.794 -12.254 -23.508  0.00  0.00    -0.276 N 
ATOM      5  N   UNL     1      34.641 -14.551 -22.485  0.00  0.00    -0.251 N 
ATOM      6  N   UNL     1      34.155 -16.380 -20.933  0.00  0.00    -0.356 NA
ATOM      7  C   UNL     1      33.051 -12.894 -24.814  0.00  0.00    +0.077 C 
ATOM      8  C   UNL     1      33.830 -14.225 -24.778  0.00  0.00    +0.041 C 
ATOM      9  C   UNL     1      35.050 -14.205 -23.853  0.00  0.00    +0.098 C 
ATOM     10  C   UNL     1      32.644 -13.109 -22.316  0.00  0.00    +0.115 C 
ATOM     11  C   UNL     1      34.004 -13.476 -21.718  0.00  0.00    +0.118 C 
ATOM     12  C   UNL     1      31.732 -13.084 -25.570  0.00  0.00    +0.022 C 
ATOM     13  C   UNL     1      32.687 -10.852 -23.479  0.00  0.00    +0.250 C 
ATOM     14  C   UNL     1      34.508 -15.889 -22.102  0.00  0.00    +0.348 C 
ATOM     15  C   UNL     1      34.197 -17.738 -21.135  0.00  0.00    +0.153 C 
ATOM     16  C   UNL     1      34.580 -18.004 -22.442  0.00  0.00    +0.175 C 
ATOM     17  C   UNL     1      33.927 -18.813 -20.276  0.00  0.00    +0.100 C 
ATOM     18  C   UNL     1      34.723 -19.277 -22.981  0.00  0.00    +0.041 C 
ATOM     19  C   UNL     1      34.061 -20.113 -20.784  0.00  0.00    +0.043 C 
ATOM     20  C   UNL     1      34.451 -20.337 -22.110  0.00  0.00    +0.011 C 
ENDROOT
BRANCH  13  21
ATOM     21  C   UNL     1      32.406 -10.197 -22.196  0.00  0.00    +0.070 C 
ATOM     22  C   UNL     1      32.732  -8.859 -21.971  0.00  0.00    +0.098 C 
ATOM     23  C   UNL     1      31.799 -10.946 -21.188  0.00  0.00    +0.002 C 
ATOM     24  C   UNL     1      31.516 -10.356 -19.956  0.00  0.00    -0.022 C 
ATOM     25  C   UNL     1      32.449  -8.270 -20.739  0.00  0.00    +0.018 C 
ATOM     26  C   UNL     1      31.841  -9.019 -19.731  0.00  0.00    -0.003 C 
ATOM     27  C   UNL     1      30.866 -11.157 -18.878  0.00  0.00    +0.031 C 
BRANCH  22  28
ATOM     28  N   UNL     1      33.336  -8.095 -22.956  0.00  0.00    -0.109 N 
ATOM     29  N   UNL     1      34.659  -8.178 -23.174  0.00  0.00    -0.154 NA
ATOM     30  N   UNL     1      32.612  -7.256 -23.714  0.00  0.00    -0.154 NA
ATOM     31  C   UNL     1      34.806  -7.303 -24.173  0.00  0.00    +0.142 C 
ATOM     32  C   UNL     1      33.563  -6.743 -24.501  0.00  0.00    +0.142 C 
ENDBRANCH  22  28
ENDBRANCH  13  21
TORSDOF 2
ENDMDL
