MODEL 1
REMARK VINA RESULT:     -10.9      0.000      0.000
REMARK  Name = 6102690
REMARK  3 active torsions:
REMARK  status: ('A' for Active; 'I' for Inactive)
REMARK    1  A    between atoms: C_3  and  C_12
REMARK    2  A    between atoms: C_10  and  O_20
REMARK    3  A    between atoms: C_17  and  O_18
REMARK                            x       y       z     vdW  Elec       q    Type
REMARK                         _______ _______ _______ _____ _____    ______ ____
ROOT
ATOM      1 CL   UNL     1      37.252 -22.092 -17.511  0.00  0.00    -0.079 Cl
ATOM      2  C   UNL     1      34.251 -20.933 -19.986  0.00  0.00    +0.001 C 
ATOM      3  C   UNL     1      35.150 -19.357 -21.607  0.00  0.00    +0.000 C 
ATOM      4  C   UNL     1      35.533 -21.047 -19.398  0.00  0.00    +0.014 C 
ATOM      5  C   UNL     1      34.076 -20.083 -21.091  0.00  0.00    +0.000 C 
ATOM      6  C   UNL     1      36.410 -19.469 -21.028  0.00  0.00    +0.000 C 
ATOM      7  C   UNL     1      36.602 -20.309 -19.930  0.00  0.00    +0.001 C 
ATOM      8  C   UNL     1      33.182 -21.671 -19.453  0.00  0.00    +0.003 C 
ATOM      9  C   UNL     1      35.708 -21.896 -18.293  0.00  0.00    +0.091 C 
ATOM     10  C   UNL     1      34.635 -22.622 -17.776  0.00  0.00    +0.144 C 
ATOM     11  C   UNL     1      33.374 -22.510 -18.355  0.00  0.00    +0.037 C 
ENDROOT
BRANCH   3  12
ATOM     12  C   UNL     1      34.952 -18.485 -22.746  0.00  0.00    +0.000 C 
ATOM     13  C   UNL     1      34.642 -19.027 -23.992  0.00  0.00    +0.003 C 
ATOM     14  C   UNL     1      35.070 -17.104 -22.594  0.00  0.00    +0.003 C 
ATOM     15  C   UNL     1      34.450 -18.187 -25.090  0.00  0.00    +0.037 C 
ATOM     16  C   UNL     1      34.878 -16.263 -23.691  0.00  0.00    +0.037 C 
ATOM     17  C   UNL     1      34.568 -16.805 -24.939  0.00  0.00    +0.134 C 
BRANCH  17  18
ATOM     18  O   UNL     1      34.380 -15.986 -26.009  0.00  0.00    -0.506 OA
ATOM     19  H   UNL     1      35.099 -15.777 -26.571  0.00  0.00    +0.292 HD
ENDBRANCH  17  18
ENDBRANCH   3  12
BRANCH  10  20
ATOM     20  O   UNL     1      34.780 -23.453 -16.703  0.00  0.00    -0.505 OA
ATOM     21  H   UNL     1      34.906 -24.372 -16.836  0.00  0.00    +0.292 HD
ENDBRANCH  10  20
TORSDOF 3
ENDMDL
MODEL 2
REMARK VINA RESULT:     -10.5      1.258      2.045
REMARK  Name = 6102690
REMARK  3 active torsions:
REMARK  status: ('A' for Active; 'I' for Inactive)
REMARK    1  A    between atoms: C_3  and  C_12
REMARK    2  A    between atoms: C_10  and  O_20
REMARK    3  A    between atoms: C_17  and  O_18
REMARK                            x       y       z     vdW  Elec       q    Type
REMARK                         _______ _______ _______ _____ _____    ______ ____
ROOT
ATOM      1 CL   UNL     1      32.834 -22.962 -17.543  0.00  0.00    -0.079 Cl
ATOM      2  C   UNL     1      35.617 -20.867 -19.626  0.00  0.00    +0.001 C 
ATOM      3  C   UNL     1      34.502 -19.692 -21.441  0.00  0.00    +0.000 C 
ATOM      4  C   UNL     1      34.372 -21.404 -19.219  0.00  0.00    +0.014 C 
ATOM      5  C   UNL     1      35.665 -20.011 -20.739  0.00  0.00    +0.000 C 
ATOM      6  C   UNL     1      33.279 -20.220 -21.042  0.00  0.00    +0.000 C 
ATOM      7  C   UNL     1      33.213 -21.071 -19.938  0.00  0.00    +0.001 C 
ATOM      8  C   UNL     1      36.776 -21.200 -18.908  0.00  0.00    +0.003 C 
ATOM      9  C   UNL     1      34.324 -22.259 -18.107  0.00  0.00    +0.091 C 
ATOM     10  C   UNL     1      35.487 -22.580 -17.404  0.00  0.00    +0.144 C 
ATOM     11  C   UNL     1      36.711 -22.051 -17.804  0.00  0.00    +0.037 C 
ENDROOT
BRANCH   3  12
ATOM     12  C   UNL     1      34.569 -18.809 -22.587  0.00  0.00    +0.000 C 
ATOM     13  C   UNL     1      34.518 -19.337 -23.876  0.00  0.00    +0.003 C 
ATOM     14  C   UNL     1      34.682 -17.432 -22.400  0.00  0.00    +0.003 C 
ATOM     15  C   UNL     1      34.580 -18.487 -24.981  0.00  0.00    +0.037 C 
ATOM     16  C   UNL     1      34.745 -16.581 -23.504  0.00  0.00    +0.037 C 
ATOM     17  C   UNL     1      34.695 -17.109 -24.794  0.00  0.00    +0.134 C 
BRANCH  17  18
ATOM     18  O   UNL     1      34.755 -16.280 -25.871  0.00  0.00    -0.506 OA
ATOM     19  H   UNL     1      34.243 -16.464 -26.634  0.00  0.00    +0.292 HD
ENDBRANCH  17  18
ENDBRANCH   3  12
BRANCH  10  20
ATOM     20  O   UNL     1      35.465 -23.409 -16.320  0.00  0.00    -0.505 OA
ATOM     21  H   UNL     1      35.529 -24.336 -16.439  0.00  0.00    +0.292 HD
ENDBRANCH  10  20
TORSDOF 3
ENDMDL
MODEL 3
REMARK VINA RESULT:     -10.1      2.932      7.326
REMARK  Name = 6102690
REMARK  3 active torsions:
REMARK  status: ('A' for Active; 'I' for Inactive)
REMARK    1  A    between atoms: C_3  and  C_12
REMARK    2  A    between atoms: C_10  and  O_20
REMARK    3  A    between atoms: C_17  and  O_18
REMARK                            x       y       z     vdW  Elec       q    Type
REMARK                         _______ _______ _______ _____ _____    ______ ____
ROOT
ATOM      1 CL   UNL     1      34.464 -15.664 -25.819  0.00  0.00    -0.079 Cl
ATOM      2  C   UNL     1      34.256 -16.448 -21.842  0.00  0.00    +0.001 C 
ATOM      3  C   UNL     1      34.426 -18.853 -21.518  0.00  0.00    +0.000 C 
ATOM      4  C   UNL     1      34.367 -16.636 -23.240  0.00  0.00    +0.014 C 
ATOM      5  C   UNL     1      34.288 -17.567 -20.994  0.00  0.00    +0.000 C 
ATOM      6  C   UNL     1      34.534 -19.038 -22.892  0.00  0.00    +0.000 C 
ATOM      7  C   UNL     1      34.505 -17.937 -23.749  0.00  0.00    +0.001 C 
ATOM      8  C   UNL     1      34.117 -15.147 -21.333  0.00  0.00    +0.003 C 
ATOM      9  C   UNL     1      34.335 -15.518 -24.088  0.00  0.00    +0.091 C 
ATOM     10  C   UNL     1      34.196 -14.231 -23.565  0.00  0.00    +0.144 C 
ATOM     11  C   UNL     1      34.088 -14.046 -22.190  0.00  0.00    +0.037 C 
ENDROOT
BRANCH   3  12
ATOM     12  C   UNL     1      34.456 -19.996 -20.630  0.00  0.00    +0.000 C 
ATOM     13  C   UNL     1      35.677 -20.543 -20.239  0.00  0.00    +0.003 C 
ATOM     14  C   UNL     1      33.263 -20.547 -20.164  0.00  0.00    +0.003 C 
ATOM     15  C   UNL     1      35.706 -21.643 -19.382  0.00  0.00    +0.037 C 
ATOM     16  C   UNL     1      33.291 -21.648 -19.307  0.00  0.00    +0.037 C 
ATOM     17  C   UNL     1      34.513 -22.196 -18.916  0.00  0.00    +0.134 C 
BRANCH  17  18
ATOM     18  O   UNL     1      34.542 -23.269 -18.080  0.00  0.00    -0.506 OA
ATOM     19  H   UNL     1      34.018 -23.271 -17.303  0.00  0.00    +0.292 HD
ENDBRANCH  17  18
ENDBRANCH   3  12
BRANCH  10  20
ATOM     20  O   UNL     1      34.162 -13.129 -24.369  0.00  0.00    -0.505 OA
ATOM     21  H   UNL     1      33.471 -12.504 -24.277  0.00  0.00    +0.292 HD
ENDBRANCH  10  20
TORSDOF 3
ENDMDL
MODEL 4
REMARK VINA RESULT:      -9.8      4.148      7.762
REMARK  Name = 6102690
REMARK  3 active torsions:
REMARK  status: ('A' for Active; 'I' for Inactive)
REMARK    1  A    between atoms: C_3  and  C_12
REMARK    2  A    between atoms: C_10  and  O_20
REMARK    3  A    between atoms: C_17  and  O_18
REMARK                            x       y       z     vdW  Elec       q    Type
REMARK                         _______ _______ _______ _____ _____    ______ ____
ROOT
ATOM      1 CL   UNL     1      33.820 -12.449 -24.748  0.00  0.00    -0.079 Cl
ATOM      2  C   UNL     1      33.168 -14.749 -21.469  0.00  0.00    +0.001 C 
ATOM      3  C   UNL     1      34.335 -16.864 -21.763  0.00  0.00    +0.000 C 
ATOM      4  C   UNL     1      33.640 -14.322 -22.733  0.00  0.00    +0.014 C 
ATOM      5  C   UNL     1      33.525 -16.024 -20.998  0.00  0.00    +0.000 C 
ATOM      6  C   UNL     1      34.798 -16.444 -23.005  0.00  0.00    +0.000 C 
ATOM      7  C   UNL     1      34.453 -15.181 -23.489  0.00  0.00    +0.001 C 
ATOM      8  C   UNL     1      32.354 -13.891 -20.713  0.00  0.00    +0.003 C 
ATOM      9  C   UNL     1      33.283 -13.049 -23.204  0.00  0.00    +0.091 C 
ATOM     10  C   UNL     1      32.473 -12.208 -22.440  0.00  0.00    +0.144 C 
ATOM     11  C   UNL     1      32.009 -12.628 -21.197  0.00  0.00    +0.037 C 
ENDROOT
BRANCH   3  12
ATOM     12  C   UNL     1      34.693 -18.174 -21.263  0.00  0.00    +0.000 C 
ATOM     13  C   UNL     1      36.035 -18.513 -21.093  0.00  0.00    +0.003 C 
ATOM     14  C   UNL     1      33.695 -19.096 -20.949  0.00  0.00    +0.003 C 
ATOM     15  C   UNL     1      36.380 -19.775 -20.610  0.00  0.00    +0.037 C 
ATOM     16  C   UNL     1      34.039 -20.359 -20.466  0.00  0.00    +0.037 C 
ATOM     17  C   UNL     1      35.382 -20.699 -20.297  0.00  0.00    +0.134 C 
BRANCH  17  18
ATOM     18  O   UNL     1      35.719 -21.929 -19.824  0.00  0.00    -0.506 OA
ATOM     19  H   UNL     1      36.018 -22.592 -20.415  0.00  0.00    +0.292 HD
ENDBRANCH  17  18
ENDBRANCH   3  12
BRANCH  10  20
ATOM     20  O   UNL     1      32.112 -10.966 -22.877  0.00  0.00    -0.505 OA
ATOM     21  H   UNL     1      31.776 -10.336 -22.271  0.00  0.00    +0.292 HD
ENDBRANCH  10  20
TORSDOF 3
ENDMDL
MODEL 5
REMARK VINA RESULT:      -9.7      3.270      7.778
REMARK  Name = 6102690
REMARK  3 active torsions:
REMARK  status: ('A' for Active; 'I' for Inactive)
REMARK    1  A    between atoms: C_3  and  C_12
REMARK    2  A    between atoms: C_10  and  O_20
REMARK    3  A    between atoms: C_17  and  O_18
REMARK                            x       y       z     vdW  Elec       q    Type
REMARK                         _______ _______ _______ _____ _____    ______ ____
ROOT
ATOM      1 CL   UNL     1      33.610 -12.313 -23.417  0.00  0.00    -0.079 Cl
ATOM      2  C   UNL     1      34.069 -16.282 -24.130  0.00  0.00    +0.001 C 
ATOM      3  C   UNL     1      34.658 -17.380 -22.040  0.00  0.00    +0.000 C 
ATOM      4  C   UNL     1      34.016 -15.040 -23.453  0.00  0.00    +0.014 C 
ATOM      5  C   UNL     1      34.392 -17.444 -23.408  0.00  0.00    +0.000 C 
ATOM      6  C   UNL     1      34.607 -16.159 -21.375  0.00  0.00    +0.000 C 
ATOM      7  C   UNL     1      34.288 -14.996 -22.077  0.00  0.00    +0.001 C 
ATOM      8  C   UNL     1      33.799 -16.327 -25.506  0.00  0.00    +0.003 C 
ATOM      9  C   UNL     1      33.695 -13.879 -24.174  0.00  0.00    +0.091 C 
ATOM     10  C   UNL     1      33.428 -13.942 -25.543  0.00  0.00    +0.144 C 
ATOM     11  C   UNL     1      33.480 -15.163 -26.208  0.00  0.00    +0.037 C 
ENDROOT
BRANCH   3  12
ATOM     12  C   UNL     1      34.990 -18.586 -21.312  0.00  0.00    +0.000 C 
ATOM     13  C   UNL     1      36.322 -18.883 -21.025  0.00  0.00    +0.003 C 
ATOM     14  C   UNL     1      33.977 -19.449 -20.895  0.00  0.00    +0.003 C 
ATOM     15  C   UNL     1      36.641 -20.045 -20.322  0.00  0.00    +0.037 C 
ATOM     16  C   UNL     1      34.296 -20.611 -20.192  0.00  0.00    +0.037 C 
ATOM     17  C   UNL     1      35.628 -20.910 -19.905  0.00  0.00    +0.134 C 
BRANCH  17  18
ATOM     18  O   UNL     1      35.940 -22.042 -19.219  0.00  0.00    -0.506 OA
ATOM     19  H   UNL     1      36.830 -22.218 -18.985  0.00  0.00    +0.292 HD
ENDBRANCH  17  18
ENDBRANCH   3  12
BRANCH  10  20
ATOM     20  O   UNL     1      33.114 -12.827 -26.264  0.00  0.00    -0.505 OA
ATOM     21  H   UNL     1      33.126 -12.856 -27.201  0.00  0.00    +0.292 HD
ENDBRANCH  10  20
TORSDOF 3
ENDMDL
MODEL 6
REMARK VINA RESULT:      -9.6      2.521      7.255
REMARK  Name = 6102690
REMARK  3 active torsions:
REMARK  status: ('A' for Active; 'I' for Inactive)
REMARK    1  A    between atoms: C_3  and  C_12
REMARK    2  A    between atoms: C_10  and  O_20
REMARK    3  A    between atoms: C_17  and  O_18
REMARK                            x       y       z     vdW  Elec       q    Type
REMARK                         _______ _______ _______ _____ _____    ______ ____
ROOT
ATOM      1 CL   UNL     1      34.279 -14.315 -23.546  0.00  0.00    -0.079 Cl
ATOM      2  C   UNL     1      34.380 -18.372 -23.561  0.00  0.00    +0.001 C 
ATOM      3  C   UNL     1      34.469 -19.152 -21.259  0.00  0.00    +0.000 C 
ATOM      4  C   UNL     1      34.360 -17.035 -23.099  0.00  0.00    +0.014 C 
ATOM      5  C   UNL     1      34.435 -19.421 -22.628  0.00  0.00    +0.000 C 
ATOM      6  C   UNL     1      34.449 -17.838 -20.805  0.00  0.00    +0.000 C 
ATOM      7  C   UNL     1      34.395 -16.785 -21.718  0.00  0.00    +0.001 C 
ATOM      8  C   UNL     1      34.346 -18.622 -24.942  0.00  0.00    +0.003 C 
ATOM      9  C   UNL     1      34.306 -15.987 -24.032  0.00  0.00    +0.091 C 
ATOM     10  C   UNL     1      34.272 -16.254 -25.402  0.00  0.00    +0.144 C 
ATOM     11  C   UNL     1      34.292 -17.569 -25.856  0.00  0.00    +0.037 C 
ENDROOT
BRANCH   3  12
ATOM     12  C   UNL     1      34.526 -20.244 -20.310  0.00  0.00    +0.000 C 
ATOM     13  C   UNL     1      35.757 -20.686 -19.829  0.00  0.00    +0.003 C 
ATOM     14  C   UNL     1      33.348 -20.852 -19.876  0.00  0.00    +0.003 C 
ATOM     15  C   UNL     1      35.812 -21.737 -18.913  0.00  0.00    +0.037 C 
ATOM     16  C   UNL     1      33.402 -21.904 -18.961  0.00  0.00    +0.037 C 
ATOM     17  C   UNL     1      34.635 -22.347 -18.479  0.00  0.00    +0.134 C 
BRANCH  17  18
ATOM     18  O   UNL     1      34.689 -23.371 -17.586  0.00  0.00    -0.506 OA
ATOM     19  H   UNL     1      35.332 -23.366 -16.905  0.00  0.00    +0.292 HD
ENDBRANCH  17  18
ENDBRANCH   3  12
BRANCH  10  20
ATOM     20  O   UNL     1      34.220 -15.252 -26.327  0.00  0.00    -0.505 OA
ATOM     21  H   UNL     1      34.600 -15.377 -27.174  0.00  0.00    +0.292 HD
ENDBRANCH  10  20
TORSDOF 3
ENDMDL
MODEL 7
REMARK VINA RESULT:      -9.5      2.275      2.919
REMARK  Name = 6102690
REMARK  3 active torsions:
REMARK  status: ('A' for Active; 'I' for Inactive)
REMARK    1  A    between atoms: C_3  and  C_12
REMARK    2  A    between atoms: C_10  and  O_20
REMARK    3  A    between atoms: C_17  and  O_18
REMARK                            x       y       z     vdW  Elec       q    Type
REMARK                         _______ _______ _______ _____ _____    ______ ____
ROOT
ATOM      1 CL   UNL     1      37.034 -21.524 -20.082  0.00  0.00    -0.079 Cl
ATOM      2  C   UNL     1      33.674 -19.321 -20.653  0.00  0.00    +0.001 C 
ATOM      3  C   UNL     1      34.312 -17.160 -21.570  0.00  0.00    +0.000 C 
ATOM      4  C   UNL     1      35.036 -19.703 -20.626  0.00  0.00    +0.014 C 
ATOM      5  C   UNL     1      33.328 -18.045 -21.128  0.00  0.00    +0.000 C 
ATOM      6  C   UNL     1      35.651 -17.535 -21.543  0.00  0.00    +0.000 C 
ATOM      7  C   UNL     1      36.012 -18.799 -21.074  0.00  0.00    +0.001 C 
ATOM      8  C   UNL     1      32.698 -20.224 -20.204  0.00  0.00    +0.003 C 
ATOM      9  C   UNL     1      35.382 -20.978 -20.149  0.00  0.00    +0.091 C 
ATOM     10  C   UNL     1      34.398 -21.864 -19.707  0.00  0.00    +0.144 C 
ATOM     11  C   UNL     1      33.058 -21.488 -19.735  0.00  0.00    +0.037 C 
ENDROOT
BRANCH   3  12
ATOM     12  C   UNL     1      33.939 -15.848 -22.057  0.00  0.00    +0.000 C 
ATOM     13  C   UNL     1      34.555 -15.325 -23.192  0.00  0.00    +0.003 C 
ATOM     14  C   UNL     1      32.961 -15.110 -21.390  0.00  0.00    +0.003 C 
ATOM     15  C   UNL     1      34.194 -14.062 -23.663  0.00  0.00    +0.037 C 
ATOM     16  C   UNL     1      32.600 -13.847 -21.859  0.00  0.00    +0.037 C 
ATOM     17  C   UNL     1      33.217 -13.323 -22.995  0.00  0.00    +0.134 C 
BRANCH  17  18
ATOM     18  O   UNL     1      32.865 -12.092 -23.454  0.00  0.00    -0.506 OA
ATOM     19  H   UNL     1      32.591 -11.983 -24.344  0.00  0.00    +0.292 HD
ENDBRANCH  17  18
ENDBRANCH   3  12
BRANCH  10  20
ATOM     20  O   UNL     1      34.710 -23.108 -19.240  0.00  0.00    -0.505 OA
ATOM     21  H   UNL     1      34.039 -23.754 -19.147  0.00  0.00    +0.292 HD
ENDBRANCH  10  20
TORSDOF 3
ENDMDL
MODEL 8
REMARK VINA RESULT:      -9.3      3.568      7.894
REMARK  Name = 6102690
REMARK  3 active torsions:
REMARK  status: ('A' for Active; 'I' for Inactive)
REMARK    1  A    between atoms: C_3  and  C_12
REMARK    2  A    between atoms: C_10  and  O_20
REMARK    3  A    between atoms: C_17  and  O_18
REMARK                            x       y       z     vdW  Elec       q    Type
REMARK                         _______ _______ _______ _____ _____    ______ ____
ROOT
ATOM      1 CL   UNL     1      33.476 -14.476 -26.870  0.00  0.00    -0.079 Cl
ATOM      2  C   UNL     1      34.234 -15.117 -22.935  0.00  0.00    +0.001 C 
ATOM      3  C   UNL     1      34.716 -17.481 -22.615  0.00  0.00    +0.000 C 
ATOM      4  C   UNL     1      34.051 -15.350 -24.319  0.00  0.00    +0.014 C 
ATOM      5  C   UNL     1      34.566 -16.194 -22.096  0.00  0.00    +0.000 C 
ATOM      6  C   UNL     1      34.536 -17.709 -23.975  0.00  0.00    +0.000 C 
ATOM      7  C   UNL     1      34.205 -16.651 -24.823  0.00  0.00    +0.001 C 
ATOM      8  C   UNL     1      34.079 -13.816 -22.430  0.00  0.00    +0.003 C 
ATOM      9  C   UNL     1      33.718 -14.274 -25.157  0.00  0.00    +0.091 C 
ATOM     10  C   UNL     1      33.569 -12.987 -24.639  0.00  0.00    +0.144 C 
ATOM     11  C   UNL     1      33.749 -12.758 -23.278  0.00  0.00    +0.037 C 
ENDROOT
BRANCH   3  12
ATOM     12  C   UNL     1      35.058 -18.579 -21.737  0.00  0.00    +0.000 C 
ATOM     13  C   UNL     1      34.059 -19.431 -21.265  0.00  0.00    +0.003 C 
ATOM     14  C   UNL     1      36.385 -18.786 -21.364  0.00  0.00    +0.003 C 
ATOM     15  C   UNL     1      34.389 -20.491 -20.420  0.00  0.00    +0.037 C 
ATOM     16  C   UNL     1      36.716 -19.846 -20.519  0.00  0.00    +0.037 C 
ATOM     17  C   UNL     1      35.717 -20.698 -20.046  0.00  0.00    +0.134 C 
BRANCH  17  18
ATOM     18  O   UNL     1      36.038 -21.732 -19.222  0.00  0.00    -0.506 OA
ATOM     19  H   UNL     1      36.408 -21.562 -18.378  0.00  0.00    +0.292 HD
ENDBRANCH  17  18
ENDBRANCH   3  12
BRANCH  10  20
ATOM     20  O   UNL     1      33.245 -11.926 -25.434  0.00  0.00    -0.505 OA
ATOM     21  H   UNL     1      32.642 -11.278 -25.128  0.00  0.00    +0.292 HD
ENDBRANCH  10  20
TORSDOF 3
ENDMDL
MODEL 9
REMARK VINA RESULT:      -9.1      4.498      7.090
REMARK  Name = 6102690
REMARK  3 active torsions:
REMARK  status: ('A' for Active; 'I' for Inactive)
REMARK    1  A    between atoms: C_3  and  C_12
REMARK    2  A    between atoms: C_10  and  O_20
REMARK    3  A    between atoms: C_17  and  O_18
REMARK                            x       y       z     vdW  Elec       q    Type
REMARK                         _______ _______ _______ _____ _____    ______ ____
ROOT
ATOM      1 CL   UNL     1      35.068 -18.421 -21.237  0.00  0.00    -0.079 Cl
ATOM      2  C   UNL     1      33.928 -15.669 -23.994  0.00  0.00    +0.001 C 
ATOM      3  C   UNL     1      33.304 -13.624 -22.834  0.00  0.00    +0.000 C 
ATOM      4  C   UNL     1      34.224 -16.276 -22.750  0.00  0.00    +0.014 C 
ATOM      5  C   UNL     1      33.469 -14.342 -24.019  0.00  0.00    +0.000 C 
ATOM      6  C   UNL     1      33.595 -14.220 -21.611  0.00  0.00    +0.000 C 
ATOM      7  C   UNL     1      34.052 -15.538 -21.569  0.00  0.00    +0.001 C 
ATOM      8  C   UNL     1      34.099 -16.407 -25.176  0.00  0.00    +0.003 C 
ATOM      9  C   UNL     1      34.683 -17.603 -22.725  0.00  0.00    +0.091 C 
ATOM     10  C   UNL     1      34.847 -18.321 -23.910  0.00  0.00    +0.144 C 
ATOM     11  C   UNL     1      34.557 -17.725 -25.133  0.00  0.00    +0.037 C 
ENDROOT
BRANCH   3  12
ATOM     12  C   UNL     1      32.829 -12.257 -22.877  0.00  0.00    +0.000 C 
ATOM     13  C   UNL     1      31.756 -11.867 -22.077  0.00  0.00    +0.003 C 
ATOM     14  C   UNL     1      33.447 -11.331 -23.717  0.00  0.00    +0.003 C 
ATOM     15  C   UNL     1      31.299 -10.549 -22.118  0.00  0.00    +0.037 C 
ATOM     16  C   UNL     1      32.990 -10.014 -23.758  0.00  0.00    +0.037 C 
ATOM     17  C   UNL     1      31.916  -9.623 -22.959  0.00  0.00    +0.134 C 
BRANCH  17  18
ATOM     18  O   UNL     1      31.471  -8.338 -22.997  0.00  0.00    -0.506 OA
ATOM     19  H   UNL     1      30.928  -8.009 -22.308  0.00  0.00    +0.292 HD
ENDBRANCH  17  18
ENDBRANCH   3  12
BRANCH  10  20
ATOM     20  O   UNL     1      35.292 -19.612 -23.911  0.00  0.00    -0.505 OA
ATOM     21  H   UNL     1      36.078 -19.836 -24.367  0.00  0.00    +0.292 HD
ENDBRANCH  10  20
TORSDOF 3
ENDMDL
