MODEL 1
REMARK VINA RESULT:     -10.0      0.000      0.000
REMARK  Name = 5289359
REMARK  6 active torsions:
REMARK  status: ('A' for Active; 'I' for Inactive)
REMARK    1  A    between atoms: P_1  and  O_4
REMARK    2  A    between atoms: P_1  and  C_13
REMARK    3  A    between atoms: O_4  and  C_5
REMARK    4  A    between atoms: C_5  and  C_7
REMARK    5  A    between atoms: C_13  and  C_14
REMARK    6  A    between atoms: C_17  and  N_21
REMARK                            x       y       z     vdW  Elec       q    Type
REMARK                         _______ _______ _______ _____ _____    ______ ____
ROOT
ATOM      1  P   UNL     1      34.101 -15.754 -21.249  0.00  0.00    +0.374 P 
ATOM      2  O   UNL     1      32.807 -16.257 -20.649  0.00  0.00    -0.139 OA
ATOM      3  O   UNL     1      34.944 -14.714 -20.541  0.00  0.00    -0.255 OA
ENDROOT
BRANCH   1   4
ATOM      4  O   UNL     1      35.064 -17.012 -21.655  0.00  0.00    -0.290 OA
BRANCH   4   5
ATOM      5  C   UNL     1      34.508 -18.156 -22.281  0.00  0.00    +0.146 C 
ATOM      6  C   UNL     1      35.301 -18.484 -23.542  0.00  0.00    +0.038 C 
BRANCH   5   7
ATOM      7  C   UNL     1      34.503 -19.305 -21.300  0.00  0.00    +0.005 C 
ATOM      8  C   UNL     1      33.292 -19.791 -20.833  0.00  0.00    -0.002 C 
ATOM      9  C   UNL     1      35.707 -19.850 -20.887  0.00  0.00    -0.002 C 
ATOM     10  C   UNL     1      33.286 -20.852 -19.927  0.00  0.00    -0.000 C 
ATOM     11  C   UNL     1      35.700 -20.911 -19.980  0.00  0.00    -0.000 C 
ATOM     12  C   UNL     1      34.491 -21.412 -19.501  0.00  0.00    -0.000 C 
ENDBRANCH   5   7
ENDBRANCH   4   5
ENDBRANCH   1   4
BRANCH   1  13
ATOM     13  C   UNL     1      33.727 -15.097 -22.895  0.00  0.00    +0.144 C 
BRANCH  13  14
ATOM     14  C   UNL     1      33.278 -13.675 -22.889  0.00  0.00    -0.010 C 
ATOM     15  C   UNL     1      33.821 -12.769 -23.800  0.00  0.00    -0.002 C 
ATOM     16  C   UNL     1      32.317 -13.250 -21.973  0.00  0.00    -0.002 C 
ATOM     17  C   UNL     1      32.440 -11.013 -22.877  0.00  0.00    +0.050 C 
ATOM     18  C   UNL     1      33.402 -11.438 -23.794  0.00  0.00    +0.014 C 
ATOM     19  C   UNL     1      31.898 -11.920 -21.967  0.00  0.00    +0.014 C 
BRANCH  17  21
ATOM     20  O   UNL     1      32.667  -8.903 -20.742  0.00  0.00    -0.275 OA
ATOM     21  N   UNL     1      32.022  -9.684 -22.872  0.00  0.00    -0.284 N 
ATOM     22  C   UNL     1      32.152  -8.739 -21.844  0.00  0.00    +0.227 C 
ATOM     23  C   UNL     1      31.568  -7.404 -22.233  0.00  0.00    +0.095 C 
ATOM     24  H   UNL     1      31.580  -9.367 -23.693  0.00  0.00    +0.155 HD
ENDBRANCH  17  21
ENDBRANCH  13  14
ENDBRANCH   1  13
TORSDOF 6
ENDMDL
MODEL 2
REMARK VINA RESULT:      -9.6      5.695      8.461
REMARK  Name = 5289359
REMARK  6 active torsions:
REMARK  status: ('A' for Active; 'I' for Inactive)
REMARK    1  A    between atoms: P_1  and  O_4
REMARK    2  A    between atoms: P_1  and  C_13
REMARK    3  A    between atoms: O_4  and  C_5
REMARK    4  A    between atoms: C_5  and  C_7
REMARK    5  A    between atoms: C_13  and  C_14
REMARK    6  A    between atoms: C_17  and  N_21
REMARK                            x       y       z     vdW  Elec       q    Type
REMARK                         _______ _______ _______ _____ _____    ______ ____
ROOT
ATOM      1  P   UNL     1      33.786 -23.069 -18.637  0.00  0.00    +0.374 P 
ATOM      2  O   UNL     1      33.929 -23.960 -19.852  0.00  0.00    -0.139 OA
ATOM      3  O   UNL     1      32.528 -22.262 -18.398  0.00  0.00    -0.255 OA
ENDROOT
BRANCH   1   4
ATOM      4  O   UNL     1      34.130 -23.909 -17.276  0.00  0.00    -0.290 OA
BRANCH   4   5
ATOM      5  C   UNL     1      34.558 -23.225 -16.111  0.00  0.00    +0.146 C 
ATOM      6  C   UNL     1      33.426 -23.199 -15.089  0.00  0.00    +0.038 C 
BRANCH   5   7
ATOM      7  C   UNL     1      35.796 -23.899 -15.566  0.00  0.00    +0.005 C 
ATOM      8  C   UNL     1      37.013 -23.239 -15.637  0.00  0.00    -0.002 C 
ATOM      9  C   UNL     1      35.691 -25.162 -15.008  0.00  0.00    -0.002 C 
ATOM     10  C   UNL     1      38.156 -23.861 -15.135  0.00  0.00    -0.000 C 
ATOM     11  C   UNL     1      36.835 -25.783 -14.506  0.00  0.00    -0.000 C 
ATOM     12  C   UNL     1      38.067 -25.134 -14.569  0.00  0.00    -0.000 C 
ENDBRANCH   5   7
ENDBRANCH   4   5
ENDBRANCH   1   4
BRANCH   1  13
ATOM     13  C   UNL     1      35.170 -21.901 -18.645  0.00  0.00    +0.144 C 
BRANCH  13  14
ATOM     14  C   UNL     1      35.097 -20.888 -19.738  0.00  0.00    -0.010 C 
ATOM     15  C   UNL     1      36.264 -20.283 -20.206  0.00  0.00    -0.002 C 
ATOM     16  C   UNL     1      33.864 -20.547 -20.292  0.00  0.00    -0.002 C 
ATOM     17  C   UNL     1      34.962 -18.994 -21.782  0.00  0.00    +0.050 C 
ATOM     18  C   UNL     1      36.196 -19.335 -21.227  0.00  0.00    +0.014 C 
ATOM     19  C   UNL     1      33.796 -19.600 -21.314  0.00  0.00    +0.014 C 
BRANCH  17  21
ATOM     20  O   UNL     1      34.658 -19.348 -24.756  0.00  0.00    -0.275 OA
ATOM     21  N   UNL     1      34.895 -18.047 -22.803  0.00  0.00    -0.284 N 
ATOM     22  C   UNL     1      34.753 -18.268 -24.180  0.00  0.00    +0.227 C 
ATOM     23  C   UNL     1      34.721 -16.974 -24.954  0.00  0.00    +0.095 C 
ATOM     24  H   UNL     1      34.953 -17.105 -22.523  0.00  0.00    +0.155 HD
ENDBRANCH  17  21
ENDBRANCH  13  14
ENDBRANCH   1  13
TORSDOF 6
ENDMDL
MODEL 3
REMARK VINA RESULT:      -9.4      3.180      9.013
REMARK  Name = 5289359
REMARK  6 active torsions:
REMARK  status: ('A' for Active; 'I' for Inactive)
REMARK    1  A    between atoms: P_1  and  O_4
REMARK    2  A    between atoms: P_1  and  C_13
REMARK    3  A    between atoms: O_4  and  C_5
REMARK    4  A    between atoms: C_5  and  C_7
REMARK    5  A    between atoms: C_13  and  C_14
REMARK    6  A    between atoms: C_17  and  N_21
REMARK                            x       y       z     vdW  Elec       q    Type
REMARK                         _______ _______ _______ _____ _____    ______ ____
ROOT
ATOM      1  P   UNL     1      32.761 -13.720 -23.527  0.00  0.00    +0.374 P 
ATOM      2  O   UNL     1      31.982 -14.189 -22.316  0.00  0.00    -0.139 OA
ATOM      3  O   UNL     1      32.452 -14.247 -24.912  0.00  0.00    -0.255 OA
ENDROOT
BRANCH   1   4
ATOM      4  O   UNL     1      32.782 -12.086 -23.587  0.00  0.00    -0.290 OA
BRANCH   4   5
ATOM      5  C   UNL     1      33.904 -11.411 -24.128  0.00  0.00    +0.146 C 
ATOM      6  C   UNL     1      33.922 -11.584 -25.643  0.00  0.00    +0.038 C 
BRANCH   5   7
ATOM      7  C   UNL     1      33.851  -9.956 -23.725  0.00  0.00    +0.005 C 
ATOM      8  C   UNL     1      34.870  -9.104 -24.122  0.00  0.00    -0.002 C 
ATOM      9  C   UNL     1      32.785  -9.500 -22.967  0.00  0.00    -0.002 C 
ATOM     10  C   UNL     1      34.821  -7.761 -23.749  0.00  0.00    -0.000 C 
ATOM     11  C   UNL     1      32.736  -8.157 -22.594  0.00  0.00    -0.000 C 
ATOM     12  C   UNL     1      33.754  -7.287 -22.985  0.00  0.00    -0.000 C 
ENDBRANCH   5   7
ENDBRANCH   4   5
ENDBRANCH   1   4
BRANCH   1  13
ATOM     13  C   UNL     1      34.514 -14.047 -23.216  0.00  0.00    +0.144 C 
BRANCH  13  14
ATOM     14  C   UNL     1      34.776 -15.371 -22.579  0.00  0.00    -0.010 C 
ATOM     15  C   UNL     1      34.679 -15.509 -21.194  0.00  0.00    -0.002 C 
ATOM     16  C   UNL     1      35.118 -16.469 -23.367  0.00  0.00    -0.002 C 
ATOM     17  C   UNL     1      35.267 -17.845 -21.387  0.00  0.00    +0.050 C 
ATOM     18  C   UNL     1      34.925 -16.746 -20.598  0.00  0.00    +0.014 C 
ATOM     19  C   UNL     1      35.364 -17.706 -22.771  0.00  0.00    +0.014 C 
BRANCH  17  21
ATOM     20  O   UNL     1      33.411 -20.150 -20.836  0.00  0.00    -0.275 OA
ATOM     21  N   UNL     1      35.512 -19.082 -20.790  0.00  0.00    -0.284 N 
ATOM     22  C   UNL     1      34.605 -20.124 -20.556  0.00  0.00    +0.227 C 
ATOM     23  C   UNL     1      35.267 -21.302 -19.886  0.00  0.00    +0.095 C 
ATOM     24  H   UNL     1      36.438 -19.243 -20.498  0.00  0.00    +0.155 HD
ENDBRANCH  17  21
ENDBRANCH  13  14
ENDBRANCH   1  13
TORSDOF 6
ENDMDL
MODEL 4
REMARK VINA RESULT:      -9.3      4.645      7.546
REMARK  Name = 5289359
REMARK  6 active torsions:
REMARK  status: ('A' for Active; 'I' for Inactive)
REMARK    1  A    between atoms: P_1  and  O_4
REMARK    2  A    between atoms: P_1  and  C_13
REMARK    3  A    between atoms: O_4  and  C_5
REMARK    4  A    between atoms: C_5  and  C_7
REMARK    5  A    between atoms: C_13  and  C_14
REMARK    6  A    between atoms: C_17  and  N_21
REMARK                            x       y       z     vdW  Elec       q    Type
REMARK                         _______ _______ _______ _____ _____    ______ ____
ROOT
ATOM      1  P   UNL     1      33.882 -22.672 -18.973  0.00  0.00    +0.374 P 
ATOM      2  O   UNL     1      33.877 -24.142 -19.334  0.00  0.00    -0.139 OA
ATOM      3  O   UNL     1      32.742 -21.761 -19.373  0.00  0.00    -0.255 OA
ENDROOT
BRANCH   1   4
ATOM      4  O   UNL     1      34.160 -22.484 -17.373  0.00  0.00    -0.290 OA
BRANCH   4   5
ATOM      5  C   UNL     1      33.996 -23.581 -16.491  0.00  0.00    +0.146 C 
ATOM      6  C   UNL     1      35.194 -23.664 -15.551  0.00  0.00    +0.038 C 
BRANCH   5   7
ATOM      7  C   UNL     1      32.695 -23.424 -15.739  0.00  0.00    +0.005 C 
ATOM      8  C   UNL     1      32.691 -23.549 -14.358  0.00  0.00    -0.002 C 
ATOM      9  C   UNL     1      31.532 -23.157 -16.442  0.00  0.00    -0.002 C 
ATOM     10  C   UNL     1      31.490 -23.404 -13.664  0.00  0.00    -0.000 C 
ATOM     11  C   UNL     1      30.332 -23.012 -15.746  0.00  0.00    -0.000 C 
ATOM     12  C   UNL     1      30.310 -23.136 -14.358  0.00  0.00    -0.000 C 
ENDBRANCH   5   7
ENDBRANCH   4   5
ENDBRANCH   1   4
BRANCH   1  13
ATOM     13  C   UNL     1      35.398 -21.945 -19.645  0.00  0.00    +0.144 C 
BRANCH  13  14
ATOM     14  C   UNL     1      35.199 -20.605 -20.270  0.00  0.00    -0.010 C 
ATOM     15  C   UNL     1      36.301 -19.803 -20.566  0.00  0.00    -0.002 C 
ATOM     16  C   UNL     1      33.911 -20.155 -20.559  0.00  0.00    -0.002 C 
ATOM     17  C   UNL     1      34.827 -18.099 -21.438  0.00  0.00    +0.050 C 
ATOM     18  C   UNL     1      36.115 -18.550 -21.150  0.00  0.00    +0.014 C 
ATOM     19  C   UNL     1      33.725 -18.902 -21.143  0.00  0.00    +0.014 C 
BRANCH  17  21
ATOM     20  O   UNL     1      34.845 -15.350 -20.211  0.00  0.00    -0.275 OA
ATOM     21  N   UNL     1      34.641 -16.847 -22.022  0.00  0.00    -0.284 N 
ATOM     22  C   UNL     1      34.658 -15.591 -21.400  0.00  0.00    +0.227 C 
ATOM     23  C   UNL     1      34.416 -14.475 -22.385  0.00  0.00    +0.095 C 
ATOM     24  H   UNL     1      34.479 -16.843 -22.993  0.00  0.00    +0.155 HD
ENDBRANCH  17  21
ENDBRANCH  13  14
ENDBRANCH   1  13
TORSDOF 6
ENDMDL
MODEL 5
REMARK VINA RESULT:      -9.3      5.609      9.184
REMARK  Name = 5289359
REMARK  6 active torsions:
REMARK  status: ('A' for Active; 'I' for Inactive)
REMARK    1  A    between atoms: P_1  and  O_4
REMARK    2  A    between atoms: P_1  and  C_13
REMARK    3  A    between atoms: O_4  and  C_5
REMARK    4  A    between atoms: C_5  and  C_7
REMARK    5  A    between atoms: C_13  and  C_14
REMARK    6  A    between atoms: C_17  and  N_21
REMARK                            x       y       z     vdW  Elec       q    Type
REMARK                         _______ _______ _______ _____ _____    ______ ____
ROOT
ATOM      1  P   UNL     1      34.699 -23.133 -16.454  0.00  0.00    +0.374 P 
ATOM      2  O   UNL     1      35.556 -21.889 -16.538  0.00  0.00    -0.139 OA
ATOM      3  O   UNL     1      35.299 -24.479 -16.109  0.00  0.00    -0.255 OA
ENDROOT
BRANCH   1   4
ATOM      4  O   UNL     1      33.416 -22.871 -15.474  0.00  0.00    -0.290 OA
BRANCH   4   5
ATOM      5  C   UNL     1      32.749 -23.967 -14.872  0.00  0.00    +0.146 C 
ATOM      6  C   UNL     1      32.976 -23.939 -13.365  0.00  0.00    +0.038 C 
BRANCH   5   7
ATOM      7  C   UNL     1      31.280 -23.908 -15.225  0.00  0.00    +0.005 C 
ATOM      8  C   UNL     1      30.825 -22.906 -16.066  0.00  0.00    -0.002 C 
ATOM      9  C   UNL     1      30.418 -24.857 -14.701  0.00  0.00    -0.002 C 
ATOM     10  C   UNL     1      29.469 -22.851 -16.391  0.00  0.00    -0.000 C 
ATOM     11  C   UNL     1      29.063 -24.802 -15.026  0.00  0.00    -0.000 C 
ATOM     12  C   UNL     1      28.588 -23.799 -15.871  0.00  0.00    -0.000 C 
ENDBRANCH   5   7
ENDBRANCH   4   5
ENDBRANCH   1   4
BRANCH   1  13
ATOM     13  C   UNL     1      33.849 -23.326 -18.042  0.00  0.00    +0.144 C 
BRANCH  13  14
ATOM     14  C   UNL     1      34.096 -22.207 -18.997  0.00  0.00    -0.010 C 
ATOM     15  C   UNL     1      33.043 -21.381 -19.390  0.00  0.00    -0.002 C 
ATOM     16  C   UNL     1      35.379 -21.986 -19.496  0.00  0.00    -0.002 C 
ATOM     17  C   UNL     1      34.557 -20.114 -20.784  0.00  0.00    +0.050 C 
ATOM     18  C   UNL     1      33.274 -20.335 -20.284  0.00  0.00    +0.014 C 
ATOM     19  C   UNL     1      35.610 -20.940 -20.390  0.00  0.00    +0.014 C 
BRANCH  17  21
ATOM     20  O   UNL     1      35.460 -17.286 -20.288  0.00  0.00    -0.275 OA
ATOM     21  N   UNL     1      34.787 -19.069 -21.677  0.00  0.00    -0.284 N 
ATOM     22  C   UNL     1      35.208 -17.763 -21.391  0.00  0.00    +0.227 C 
ATOM     23  C   UNL     1      35.341 -16.930 -22.641  0.00  0.00    +0.095 C 
ATOM     24  H   UNL     1      34.636 -19.273 -22.628  0.00  0.00    +0.155 HD
ENDBRANCH  17  21
ENDBRANCH  13  14
ENDBRANCH   1  13
TORSDOF 6
ENDMDL
MODEL 6
REMARK VINA RESULT:      -9.3      4.978      8.097
REMARK  Name = 5289359
REMARK  6 active torsions:
REMARK  status: ('A' for Active; 'I' for Inactive)
REMARK    1  A    between atoms: P_1  and  O_4
REMARK    2  A    between atoms: P_1  and  C_13
REMARK    3  A    between atoms: O_4  and  C_5
REMARK    4  A    between atoms: C_5  and  C_7
REMARK    5  A    between atoms: C_13  and  C_14
REMARK    6  A    between atoms: C_17  and  N_21
REMARK                            x       y       z     vdW  Elec       q    Type
REMARK                         _______ _______ _______ _____ _____    ______ ____
ROOT
ATOM      1  P   UNL     1      33.862 -23.070 -18.702  0.00  0.00    +0.374 P 
ATOM      2  O   UNL     1      33.965 -24.048 -19.852  0.00  0.00    -0.139 OA
ATOM      3  O   UNL     1      32.650 -22.177 -18.537  0.00  0.00    -0.255 OA
ENDROOT
BRANCH   1   4
ATOM      4  O   UNL     1      34.140 -23.833 -17.283  0.00  0.00    -0.290 OA
BRANCH   4   5
ATOM      5  C   UNL     1      33.975 -23.137 -16.060  0.00  0.00    +0.146 C 
ATOM      6  C   UNL     1      32.623 -23.488 -15.449  0.00  0.00    +0.038 C 
BRANCH   5   7
ATOM      7  C   UNL     1      35.120 -23.480 -15.135  0.00  0.00    +0.005 C 
ATOM      8  C   UNL     1      36.422 -23.370 -15.598  0.00  0.00    -0.002 C 
ATOM      9  C   UNL     1      34.847 -23.898 -13.843  0.00  0.00    -0.002 C 
ATOM     10  C   UNL     1      37.479 -23.687 -14.745  0.00  0.00    -0.000 C 
ATOM     11  C   UNL     1      35.905 -24.215 -12.990  0.00  0.00    -0.000 C 
ATOM     12  C   UNL     1      37.220 -24.110 -13.440  0.00  0.00    -0.000 C 
ENDBRANCH   5   7
ENDBRANCH   4   5
ENDBRANCH   1   4
BRANCH   1  13
ATOM     13  C   UNL     1      35.311 -21.986 -18.768  0.00  0.00    +0.144 C 
BRANCH  13  14
ATOM     14  C   UNL     1      35.190 -20.878 -19.759  0.00  0.00    -0.010 C 
ATOM     15  C   UNL     1      33.936 -20.521 -20.257  0.00  0.00    -0.002 C 
ATOM     16  C   UNL     1      36.329 -20.197 -20.188  0.00  0.00    -0.002 C 
ATOM     17  C   UNL     1      34.963 -18.805 -21.613  0.00  0.00    +0.050 C 
ATOM     18  C   UNL     1      33.823 -19.485 -21.184  0.00  0.00    +0.014 C 
ATOM     19  C   UNL     1      36.216 -19.161 -21.115  0.00  0.00    +0.014 C 
BRANCH  17  21
ATOM     20  O   UNL     1      34.889 -15.823 -21.208  0.00  0.00    -0.275 OA
ATOM     21  N   UNL     1      34.849 -17.769 -22.539  0.00  0.00    -0.284 N 
ATOM     22  C   UNL     1      34.818 -16.389 -22.295  0.00  0.00    +0.227 C 
ATOM     23  C   UNL     1      34.685 -15.597 -23.572  0.00  0.00    +0.095 C 
ATOM     24  H   UNL     1      34.782 -18.040 -23.483  0.00  0.00    +0.155 HD
ENDBRANCH  17  21
ENDBRANCH  13  14
ENDBRANCH   1  13
TORSDOF 6
ENDMDL
MODEL 7
REMARK VINA RESULT:      -9.3      3.128      9.044
REMARK  Name = 5289359
REMARK  6 active torsions:
REMARK  status: ('A' for Active; 'I' for Inactive)
REMARK    1  A    between atoms: P_1  and  O_4
REMARK    2  A    between atoms: P_1  and  C_13
REMARK    3  A    between atoms: O_4  and  C_5
REMARK    4  A    between atoms: C_5  and  C_7
REMARK    5  A    between atoms: C_13  and  C_14
REMARK    6  A    between atoms: C_17  and  N_21
REMARK                            x       y       z     vdW  Elec       q    Type
REMARK                         _______ _______ _______ _____ _____    ______ ____
ROOT
ATOM      1  P   UNL     1      33.013 -14.061 -23.442  0.00  0.00    +0.374 P 
ATOM      2  O   UNL     1      32.242 -14.726 -22.323  0.00  0.00    -0.139 OA
ATOM      3  O   UNL     1      32.466 -14.014 -24.853  0.00  0.00    -0.255 OA
ENDROOT
BRANCH   1   4
ATOM      4  O   UNL     1      33.452 -12.548 -23.006  0.00  0.00    -0.290 OA
BRANCH   4   5
ATOM      5  C   UNL     1      32.508 -11.492 -23.062  0.00  0.00    +0.146 C 
ATOM      6  C   UNL     1      31.674 -11.485 -21.786  0.00  0.00    +0.038 C 
BRANCH   5   7
ATOM      7  C   UNL     1      33.237 -10.185 -23.270  0.00  0.00    +0.005 C 
ATOM      8  C   UNL     1      34.303 -10.136 -24.154  0.00  0.00    -0.002 C 
ATOM      9  C   UNL     1      32.825  -9.060 -22.575  0.00  0.00    -0.002 C 
ATOM     10  C   UNL     1      34.976  -8.930 -24.346  0.00  0.00    -0.000 C 
ATOM     11  C   UNL     1      33.499  -7.854 -22.767  0.00  0.00    -0.000 C 
ATOM     12  C   UNL     1      34.574  -7.788 -23.652  0.00  0.00    -0.000 C 
ENDBRANCH   5   7
ENDBRANCH   4   5
ENDBRANCH   1   4
BRANCH   1  13
ATOM     13  C   UNL     1      34.641 -14.849 -23.533  0.00  0.00    +0.144 C 
BRANCH  13  14
ATOM     14  C   UNL     1      34.721 -16.152 -22.811  0.00  0.00    -0.010 C 
ATOM     15  C   UNL     1      34.875 -16.172 -21.425  0.00  0.00    -0.002 C 
ATOM     16  C   UNL     1      34.642 -17.349 -23.522  0.00  0.00    -0.002 C 
ATOM     17  C   UNL     1      34.873 -18.588 -21.460  0.00  0.00    +0.050 C 
ATOM     18  C   UNL     1      34.951 -17.390 -20.750  0.00  0.00    +0.014 C 
ATOM     19  C   UNL     1      34.718 -18.567 -22.846  0.00  0.00    +0.014 C 
BRANCH  17  21
ATOM     20  O   UNL     1      32.704 -20.279 -20.234  0.00  0.00    -0.275 OA
ATOM     21  N   UNL     1      34.948 -19.806 -20.785  0.00  0.00    -0.284 N 
ATOM     22  C   UNL     1      33.901 -20.553 -20.229  0.00  0.00    +0.227 C 
ATOM     23  C   UNL     1      34.400 -21.820 -19.581  0.00  0.00    +0.095 C 
ATOM     24  H   UNL     1      35.849 -20.189 -20.686  0.00  0.00    +0.155 HD
ENDBRANCH  17  21
ENDBRANCH  13  14
ENDBRANCH   1  13
TORSDOF 6
ENDMDL
MODEL 8
REMARK VINA RESULT:      -9.3      4.013      9.327
REMARK  Name = 5289359
REMARK  6 active torsions:
REMARK  status: ('A' for Active; 'I' for Inactive)
REMARK    1  A    between atoms: P_1  and  O_4
REMARK    2  A    between atoms: P_1  and  C_13
REMARK    3  A    between atoms: O_4  and  C_5
REMARK    4  A    between atoms: C_5  and  C_7
REMARK    5  A    between atoms: C_13  and  C_14
REMARK    6  A    between atoms: C_17  and  N_21
REMARK                            x       y       z     vdW  Elec       q    Type
REMARK                         _______ _______ _______ _____ _____    ______ ____
ROOT
ATOM      1  P   UNL     1      35.226 -18.020 -21.907  0.00  0.00    +0.374 P 
ATOM      2  O   UNL     1      36.501 -18.252 -22.689  0.00  0.00    -0.139 OA
ATOM      3  O   UNL     1      35.260 -17.517 -20.480  0.00  0.00    -0.255 OA
ENDROOT
BRANCH   1   4
ATOM      4  O   UNL     1      34.201 -17.077 -22.764  0.00  0.00    -0.290 OA
BRANCH   4   5
ATOM      5  C   UNL     1      34.695 -15.950 -23.467  0.00  0.00    +0.146 C 
ATOM      6  C   UNL     1      34.670 -16.232 -24.966  0.00  0.00    +0.038 C 
BRANCH   5   7
ATOM      7  C   UNL     1      33.868 -14.738 -23.105  0.00  0.00    +0.005 C 
ATOM      8  C   UNL     1      33.068 -14.777 -21.974  0.00  0.00    -0.002 C 
ATOM      9  C   UNL     1      33.927 -13.612 -23.910  0.00  0.00    -0.002 C 
ATOM     10  C   UNL     1      32.304 -13.658 -21.640  0.00  0.00    -0.000 C 
ATOM     11  C   UNL     1      33.163 -12.494 -23.575  0.00  0.00    -0.000 C 
ATOM     12  C   UNL     1      32.352 -12.516 -22.441  0.00  0.00    -0.000 C 
ENDBRANCH   5   7
ENDBRANCH   4   5
ENDBRANCH   1   4
BRANCH   1  13
ATOM     13  C   UNL     1      34.296 -19.573 -21.898  0.00  0.00    +0.144 C 
BRANCH  13  14
ATOM     14  C   UNL     1      34.550 -20.421 -20.697  0.00  0.00    -0.010 C 
ATOM     15  C   UNL     1      33.479 -20.979 -19.998  0.00  0.00    -0.002 C 
ATOM     16  C   UNL     1      35.857 -20.655 -20.272  0.00  0.00    -0.002 C 
ATOM     17  C   UNL     1      35.024 -22.006 -18.450  0.00  0.00    +0.050 C 
ATOM     18  C   UNL     1      33.716 -21.771 -18.875  0.00  0.00    +0.014 C 
ATOM     19  C   UNL     1      36.094 -21.448 -19.149  0.00  0.00    +0.014 C 
BRANCH  17  21
ATOM     20  O   UNL     1      36.974 -21.649 -16.184  0.00  0.00    -0.275 OA
ATOM     21  N   UNL     1      35.260 -22.798 -17.327  0.00  0.00    -0.284 N 
ATOM     22  C   UNL     1      36.187 -22.585 -16.298  0.00  0.00    +0.227 C 
ATOM     23  C   UNL     1      36.132 -23.678 -15.260  0.00  0.00    +0.095 C 
ATOM     24  H   UNL     1      34.706 -23.608 -17.247  0.00  0.00    +0.155 HD
ENDBRANCH  17  21
ENDBRANCH  13  14
ENDBRANCH   1  13
TORSDOF 6
ENDMDL
MODEL 9
REMARK VINA RESULT:      -9.0      1.382      1.603
REMARK  Name = 5289359
REMARK  6 active torsions:
REMARK  status: ('A' for Active; 'I' for Inactive)
REMARK    1  A    between atoms: P_1  and  O_4
REMARK    2  A    between atoms: P_1  and  C_13
REMARK    3  A    between atoms: O_4  and  C_5
REMARK    4  A    between atoms: C_5  and  C_7
REMARK    5  A    between atoms: C_13  and  C_14
REMARK    6  A    between atoms: C_17  and  N_21
REMARK                            x       y       z     vdW  Elec       q    Type
REMARK                         _______ _______ _______ _____ _____    ______ ____
ROOT
ATOM      1  P   UNL     1      33.795 -14.997 -22.153  0.00  0.00    +0.374 P 
ATOM      2  O   UNL     1      32.509 -15.688 -21.754  0.00  0.00    -0.139 OA
ATOM      3  O   UNL     1      34.555 -14.127 -21.174  0.00  0.00    -0.255 OA
ENDROOT
BRANCH   1   4
ATOM      4  O   UNL     1      34.837 -16.074 -22.806  0.00  0.00    -0.290 OA
BRANCH   4   5
ATOM      5  C   UNL     1      34.383 -17.364 -23.178  0.00  0.00    +0.146 C 
ATOM      6  C   UNL     1      34.862 -17.687 -24.590  0.00  0.00    +0.038 C 
BRANCH   5   7
ATOM      7  C   UNL     1      34.876 -18.375 -22.168  0.00  0.00    +0.005 C 
ATOM      8  C   UNL     1      33.971 -19.250 -21.589  0.00  0.00    -0.002 C 
ATOM      9  C   UNL     1      36.221 -18.408 -21.842  0.00  0.00    -0.002 C 
ATOM     10  C   UNL     1      34.425 -20.183 -20.656  0.00  0.00    -0.000 C 
ATOM     11  C   UNL     1      36.675 -19.341 -20.909  0.00  0.00    -0.000 C 
ATOM     12  C   UNL     1      35.778 -20.228 -20.317  0.00  0.00    -0.000 C 
ENDBRANCH   5   7
ENDBRANCH   4   5
ENDBRANCH   1   4
BRANCH   1  13
ATOM     13  C   UNL     1      33.445 -13.975 -23.606  0.00  0.00    +0.144 C 
BRANCH  13  14
ATOM     14  C   UNL     1      33.049 -12.575 -23.277  0.00  0.00    -0.010 C 
ATOM     15  C   UNL     1      33.705 -11.504 -23.885  0.00  0.00    -0.002 C 
ATOM     16  C   UNL     1      32.024 -12.336 -22.362  0.00  0.00    -0.002 C 
ATOM     17  C   UNL     1      32.311  -9.955 -22.661  0.00  0.00    +0.050 C 
ATOM     18  C   UNL     1      33.336 -10.195 -23.577  0.00  0.00    +0.014 C 
ATOM     19  C   UNL     1      31.655 -11.026 -22.054  0.00  0.00    +0.014 C 
BRANCH  17  21
ATOM     20  O   UNL     1      30.909  -7.879 -24.330  0.00  0.00    -0.275 OA
ATOM     21  N   UNL     1      31.942  -8.646 -22.354  0.00  0.00    -0.284 N 
ATOM     22  C   UNL     1      31.288  -7.717 -23.174  0.00  0.00    +0.227 C 
ATOM     23  C   UNL     1      31.068  -6.403 -22.466  0.00  0.00    +0.095 C 
ATOM     24  H   UNL     1      32.169  -8.336 -21.448  0.00  0.00    +0.155 HD
ENDBRANCH  17  21
ENDBRANCH  13  14
ENDBRANCH   1  13
TORSDOF 6
ENDMDL
