MODEL 1
REMARK VINA RESULT:     -10.3      0.000      0.000
REMARK  Name = 447962
REMARK  3 active torsions:
REMARK  status: ('A' for Active; 'I' for Inactive)
REMARK    1  A    between atoms: N_1  and  C_17
REMARK    2  A    between atoms: C_4  and  C_11
REMARK    3  A    between atoms: C_16  and  N_22
REMARK                            x       y       z     vdW  Elec       q    Type
REMARK                         _______ _______ _______ _____ _____    ______ ____
ROOT
ATOM      1  N   UNL     1      32.591 -22.244 -18.161  0.00  0.00    -0.247 N 
ATOM      2  N   UNL     1      34.318 -23.083 -16.812  0.00  0.00    -0.341 NA
ATOM      3  N   UNL     1      32.011 -23.578 -16.320  0.00  0.00    -0.170 NA
ATOM      4  C   UNL     1      34.667 -23.819 -15.735  0.00  0.00    +0.140 C 
ATOM      5  C   UNL     1      32.992 -23.005 -17.045  0.00  0.00    +0.148 C 
ATOM      6  C   UNL     1      33.758 -24.455 -14.915  0.00  0.00    +0.051 C 
ATOM      7  C   UNL     1      32.430 -24.298 -15.258  0.00  0.00    +0.114 C 
ATOM      8  H   UNL     1      31.616 -22.215 -18.289  0.00  0.00    +0.165 HD
ENDROOT
BRANCH   4  11
ATOM      9  S   UNL     1      36.736 -25.275 -14.701  0.00  0.00    -0.074 S 
ATOM     10  N   UNL     1      38.372 -23.408 -15.421  0.00  0.00    -0.407 NA
ATOM     11  C   UNL     1      36.083 -23.899 -15.494  0.00  0.00    +0.155 C 
ATOM     12  C   UNL     1      37.102 -23.019 -15.799  0.00  0.00    +0.104 C 
ATOM     13  C   UNL     1      38.300 -24.582 -14.834  0.00  0.00    +0.135 C 
ATOM     14  C   UNL     1      36.955 -21.718 -16.485  0.00  0.00    +0.063 C 
ATOM     15  C   UNL     1      39.461 -25.323 -14.297  0.00  0.00    +0.074 C 
ENDBRANCH   4  11
BRANCH   1  17
ATOM     16  C   UNL     1      34.739 -20.072 -21.042  0.00  0.00    +0.048 C 
ATOM     17  C   UNL     1      33.312 -21.516 -19.130  0.00  0.00    +0.058 C 
ATOM     18  C   UNL     1      33.385 -19.811 -20.839  0.00  0.00    +0.016 C 
ATOM     19  C   UNL     1      35.381 -21.056 -20.289  0.00  0.00    +0.016 C 
ATOM     20  C   UNL     1      32.671 -20.533 -19.883  0.00  0.00    +0.017 C 
ATOM     21  C   UNL     1      34.667 -21.778 -19.333  0.00  0.00    +0.017 C 
BRANCH  16  22
ATOM     22  N   UNL     1      35.461 -19.340 -22.008  0.00  0.00    -0.304 N 
ATOM     23  C   UNL     1      34.962 -19.221 -23.363  0.00  0.00    +0.112 C 
ATOM     24  C   UNL     1      36.705 -18.685 -21.654  0.00  0.00    +0.112 C 
ENDBRANCH  16  22
ENDBRANCH   1  17
TORSDOF 3
ENDMDL
MODEL 2
REMARK VINA RESULT:      -9.9      1.184      1.562
REMARK  Name = 447962
REMARK  3 active torsions:
REMARK  status: ('A' for Active; 'I' for Inactive)
REMARK    1  A    between atoms: N_1  and  C_17
REMARK    2  A    between atoms: C_4  and  C_11
REMARK    3  A    between atoms: C_16  and  N_22
REMARK                            x       y       z     vdW  Elec       q    Type
REMARK                         _______ _______ _______ _____ _____    ______ ____
ROOT
ATOM      1  N   UNL     1      32.401 -22.464 -18.161  0.00  0.00    -0.247 N 
ATOM      2  N   UNL     1      33.816 -22.969 -16.358  0.00  0.00    -0.341 NA
ATOM      3  N   UNL     1      31.529 -23.730 -16.388  0.00  0.00    -0.170 NA
ATOM      4  C   UNL     1      33.962 -23.574 -15.160  0.00  0.00    +0.140 C 
ATOM      5  C   UNL     1      32.591 -23.084 -16.910  0.00  0.00    +0.148 C 
ATOM      6  C   UNL     1      32.953 -24.266 -14.522  0.00  0.00    +0.051 C 
ATOM      7  C   UNL     1      31.745 -24.311 -15.189  0.00  0.00    +0.114 C 
ATOM      8  H   UNL     1      31.493 -22.574 -18.522  0.00  0.00    +0.165 HD
ENDROOT
BRANCH   4  11
ATOM      9  S   UNL     1      35.540 -23.966 -12.963  0.00  0.00    -0.074 S 
ATOM     10  N   UNL     1      37.546 -22.980 -14.262  0.00  0.00    -0.407 NA
ATOM     11  C   UNL     1      35.272 -23.448 -14.578  0.00  0.00    +0.155 C 
ATOM     12  C   UNL     1      36.450 -22.956 -15.103  0.00  0.00    +0.104 C 
ATOM     13  C   UNL     1      37.183 -23.493 -13.107  0.00  0.00    +0.135 C 
ATOM     14  C   UNL     1      36.639 -22.416 -16.466  0.00  0.00    +0.063 C 
ATOM     15  C   UNL     1      38.089 -23.684 -11.954  0.00  0.00    +0.074 C 
ENDBRANCH   4  11
BRANCH   1  17
ATOM     16  C   UNL     1      34.950 -20.244 -20.653  0.00  0.00    +0.048 C 
ATOM     17  C   UNL     1      33.258 -21.717 -18.996  0.00  0.00    +0.058 C 
ATOM     18  C   UNL     1      35.455 -21.313 -19.913  0.00  0.00    +0.016 C 
ATOM     19  C   UNL     1      33.599 -19.911 -20.563  0.00  0.00    +0.016 C 
ATOM     20  C   UNL     1      34.609 -22.050 -19.085  0.00  0.00    +0.017 C 
ATOM     21  C   UNL     1      32.752 -20.647 -19.735  0.00  0.00    +0.017 C 
BRANCH  16  22
ATOM     22  N   UNL     1      35.806 -19.500 -21.491  0.00  0.00    -0.304 N 
ATOM     23  C   UNL     1      35.327 -18.984 -22.758  0.00  0.00    +0.112 C 
ATOM     24  C   UNL     1      37.173 -19.229 -21.090  0.00  0.00    +0.112 C 
ENDBRANCH  16  22
ENDBRANCH   1  17
TORSDOF 3
ENDMDL
MODEL 3
REMARK VINA RESULT:      -9.7      5.518     10.264
REMARK  Name = 447962
REMARK  3 active torsions:
REMARK  status: ('A' for Active; 'I' for Inactive)
REMARK    1  A    between atoms: N_1  and  C_17
REMARK    2  A    between atoms: C_4  and  C_11
REMARK    3  A    between atoms: C_16  and  N_22
REMARK                            x       y       z     vdW  Elec       q    Type
REMARK                         _______ _______ _______ _____ _____    ______ ____
ROOT
ATOM      1  N   UNL     1      34.775 -17.662 -24.362  0.00  0.00    -0.247 N 
ATOM      2  N   UNL     1      33.760 -15.739 -23.479  0.00  0.00    -0.341 NA
ATOM      3  N   UNL     1      34.128 -15.968 -25.851  0.00  0.00    -0.170 NA
ATOM      4  C   UNL     1      33.210 -14.530 -23.719  0.00  0.00    +0.140 C 
ATOM      5  C   UNL     1      34.193 -16.396 -24.574  0.00  0.00    +0.148 C 
ATOM      6  C   UNL     1      33.084 -13.981 -24.979  0.00  0.00    +0.051 C 
ATOM      7  C   UNL     1      33.566 -14.752 -26.018  0.00  0.00    +0.114 C 
ATOM      8  H   UNL     1      35.076 -18.102 -25.189  0.00  0.00    +0.165 HD
ENDROOT
BRANCH   4  11
ATOM      9  S   UNL     1      32.157 -12.229 -22.686  0.00  0.00    -0.074 S 
ATOM     10  N   UNL     1      32.180 -13.307 -20.337  0.00  0.00    -0.407 NA
ATOM     11  C   UNL     1      32.750 -13.835 -22.547  0.00  0.00    +0.155 C 
ATOM     12  C   UNL     1      32.684 -14.235 -21.227  0.00  0.00    +0.104 C 
ATOM     13  C   UNL     1      31.869 -12.213 -20.994  0.00  0.00    +0.135 C 
ATOM     14  C   UNL     1      33.096 -15.550 -20.693  0.00  0.00    +0.063 C 
ATOM     15  C   UNL     1      31.296 -10.998 -20.376  0.00  0.00    +0.074 C 
ENDBRANCH   4  11
BRANCH   1  17
ATOM     16  C   UNL     1      35.479 -19.928 -20.897  0.00  0.00    +0.048 C 
ATOM     17  C   UNL     1      35.011 -18.421 -23.198  0.00  0.00    +0.058 C 
ATOM     18  C   UNL     1      34.257 -20.032 -21.562  0.00  0.00    +0.016 C 
ATOM     19  C   UNL     1      36.466 -19.070 -21.382  0.00  0.00    +0.016 C 
ATOM     20  C   UNL     1      34.023 -19.279 -22.713  0.00  0.00    +0.017 C 
ATOM     21  C   UNL     1      36.232 -18.317 -22.532  0.00  0.00    +0.017 C 
BRANCH  16  22
ATOM     22  N   UNL     1      35.716 -20.691 -19.735  0.00  0.00    -0.304 N 
ATOM     23  C   UNL     1      34.704 -21.600 -19.235  0.00  0.00    +0.112 C 
ATOM     24  C   UNL     1      36.979 -20.586 -19.033  0.00  0.00    +0.112 C 
ENDBRANCH  16  22
ENDBRANCH   1  17
TORSDOF 3
ENDMDL
MODEL 4
REMARK VINA RESULT:      -9.2      6.267     11.367
REMARK  Name = 447962
REMARK  3 active torsions:
REMARK  status: ('A' for Active; 'I' for Inactive)
REMARK    1  A    between atoms: N_1  and  C_17
REMARK    2  A    between atoms: C_4  and  C_11
REMARK    3  A    between atoms: C_16  and  N_22
REMARK                            x       y       z     vdW  Elec       q    Type
REMARK                         _______ _______ _______ _____ _____    ______ ____
ROOT
ATOM      1  N   UNL     1      34.393 -16.639 -25.454  0.00  0.00    -0.247 N 
ATOM      2  N   UNL     1      33.606 -14.633 -24.524  0.00  0.00    -0.341 NA
ATOM      3  N   UNL     1      33.780 -14.907 -26.913  0.00  0.00    -0.170 NA
ATOM      4  C   UNL     1      33.140 -13.385 -24.739  0.00  0.00    +0.140 C 
ATOM      5  C   UNL     1      33.903 -15.331 -25.639  0.00  0.00    +0.148 C 
ATOM      6  C   UNL     1      32.968 -12.836 -25.993  0.00  0.00    +0.051 C 
ATOM      7  C   UNL     1      33.308 -13.650 -27.054  0.00  0.00    +0.114 C 
ATOM      8  H   UNL     1      34.597 -17.108 -26.295  0.00  0.00    +0.165 HD
ENDROOT
BRANCH   4  11
ATOM      9  S   UNL     1      32.220 -13.473 -22.166  0.00  0.00    -0.074 S 
ATOM     10  N   UNL     1      32.530 -10.912 -21.998  0.00  0.00    -0.407 NA
ATOM     11  C   UNL     1      32.825 -12.647 -23.545  0.00  0.00    +0.155 C 
ATOM     12  C   UNL     1      32.921 -11.298 -23.265  0.00  0.00    +0.104 C 
ATOM     13  C   UNL     1      32.141 -11.977 -21.331  0.00  0.00    +0.135 C 
ATOM     14  C   UNL     1      33.401 -10.248 -24.188  0.00  0.00    +0.063 C 
ATOM     15  C   UNL     1      31.656 -11.959 -19.934  0.00  0.00    +0.074 C 
ENDBRANCH   4  11
BRANCH   1  17
ATOM     16  C   UNL     1      35.155 -18.928 -22.016  0.00  0.00    +0.048 C 
ATOM     17  C   UNL     1      34.651 -17.408 -24.300  0.00  0.00    +0.058 C 
ATOM     18  C   UNL     1      35.262 -17.538 -21.967  0.00  0.00    +0.016 C 
ATOM     19  C   UNL     1      34.796 -19.558 -23.208  0.00  0.00    +0.016 C 
ATOM     20  C   UNL     1      35.010 -16.778 -23.109  0.00  0.00    +0.017 C 
ATOM     21  C   UNL     1      34.544 -18.798 -24.350  0.00  0.00    +0.017 C 
BRANCH  16  22
ATOM     22  N   UNL     1      35.408 -19.696 -20.861  0.00  0.00    -0.304 N 
ATOM     23  C   UNL     1      34.333 -20.412 -20.205  0.00  0.00    +0.112 C 
ATOM     24  C   UNL     1      36.751 -19.790 -20.323  0.00  0.00    +0.112 C 
ENDBRANCH  16  22
ENDBRANCH   1  17
TORSDOF 3
ENDMDL
MODEL 5
REMARK VINA RESULT:      -9.0      6.872     10.510
REMARK  Name = 447962
REMARK  3 active torsions:
REMARK  status: ('A' for Active; 'I' for Inactive)
REMARK    1  A    between atoms: N_1  and  C_17
REMARK    2  A    between atoms: C_4  and  C_11
REMARK    3  A    between atoms: C_16  and  N_22
REMARK                            x       y       z     vdW  Elec       q    Type
REMARK                         _______ _______ _______ _____ _____    ______ ____
ROOT
ATOM      1  N   UNL     1      32.585 -13.060 -24.384  0.00  0.00    -0.247 N 
ATOM      2  N   UNL     1      33.697 -14.947 -23.539  0.00  0.00    -0.341 NA
ATOM      3  N   UNL     1      33.198 -14.752 -25.890  0.00  0.00    -0.170 NA
ATOM      4  C   UNL     1      34.267 -16.142 -23.798  0.00  0.00    +0.140 C 
ATOM      5  C   UNL     1      33.188 -14.312 -24.615  0.00  0.00    +0.148 C 
ATOM      6  C   UNL     1      34.340 -16.701 -25.058  0.00  0.00    +0.051 C 
ATOM      7  C   UNL     1      33.783 -15.954 -26.076  0.00  0.00    +0.114 C 
ATOM      8  H   UNL     1      32.228 -12.637 -25.197  0.00  0.00    +0.165 HD
ENDROOT
BRANCH   4  11
ATOM      9  S   UNL     1      35.494 -18.378 -22.814  0.00  0.00    -0.074 S 
ATOM     10  N   UNL     1      35.482 -17.313 -20.458  0.00  0.00    -0.407 NA
ATOM     11  C   UNL     1      34.808 -16.813 -22.645  0.00  0.00    +0.155 C 
ATOM     12  C   UNL     1      34.892 -16.415 -21.326  0.00  0.00    +0.104 C 
ATOM     13  C   UNL     1      35.838 -18.384 -21.133  0.00  0.00    +0.135 C 
ATOM     14  C   UNL     1      34.417 -15.130 -20.770  0.00  0.00    +0.063 C 
ATOM     15  C   UNL     1      36.505 -19.564 -20.541  0.00  0.00    +0.074 C 
ENDBRANCH   4  11
BRANCH   1  17
ATOM     16  C   UNL     1      32.001 -10.781 -20.905  0.00  0.00    +0.048 C 
ATOM     17  C   UNL     1      32.391 -12.295 -23.215  0.00  0.00    +0.058 C 
ATOM     18  C   UNL     1      32.416 -10.161 -22.083  0.00  0.00    +0.016 C 
ATOM     19  C   UNL     1      31.782 -12.159 -20.881  0.00  0.00    +0.016 C 
ATOM     20  C   UNL     1      32.611 -10.918 -23.238  0.00  0.00    +0.017 C 
ATOM     21  C   UNL     1      31.976 -12.916 -22.036  0.00  0.00    +0.017 C 
BRANCH  16  22
ATOM     22  N   UNL     1      31.803 -10.016 -19.737  0.00  0.00    -0.304 N 
ATOM     23  C   UNL     1      32.081  -8.593 -19.736  0.00  0.00    +0.112 C 
ATOM     24  C   UNL     1      31.305 -10.638 -18.526  0.00  0.00    +0.112 C 
ENDBRANCH  16  22
ENDBRANCH   1  17
TORSDOF 3
ENDMDL
MODEL 6
REMARK VINA RESULT:      -8.9      3.080      6.310
REMARK  Name = 447962
REMARK  3 active torsions:
REMARK  status: ('A' for Active; 'I' for Inactive)
REMARK    1  A    between atoms: N_1  and  C_17
REMARK    2  A    between atoms: C_4  and  C_11
REMARK    3  A    between atoms: C_16  and  N_22
REMARK                            x       y       z     vdW  Elec       q    Type
REMARK                         _______ _______ _______ _____ _____    ______ ____
ROOT
ATOM      1  N   UNL     1      32.248 -24.481 -14.022  0.00  0.00    -0.247 N 
ATOM      2  N   UNL     1      33.863 -23.574 -15.464  0.00  0.00    -0.341 NA
ATOM      3  N   UNL     1      34.509 -24.911 -13.565  0.00  0.00    -0.170 NA
ATOM      4  C   UNL     1      35.172 -23.435 -15.764  0.00  0.00    +0.140 C 
ATOM      5  C   UNL     1      33.605 -24.314 -14.367  0.00  0.00    +0.148 C 
ATOM      6  C   UNL     1      36.192 -23.997 -15.024  0.00  0.00    +0.051 C 
ATOM      7  C   UNL     1      35.798 -24.731 -13.924  0.00  0.00    +0.114 C 
ATOM      8  H   UNL     1      32.110 -25.026 -13.215  0.00  0.00    +0.165 HD
ENDROOT
BRANCH   4  11
ATOM      9  S   UNL     1      34.283 -22.579 -18.203  0.00  0.00    -0.074 S 
ATOM     10  N   UNL     1      36.467 -21.227 -18.493  0.00  0.00    -0.407 NA
ATOM     11  C   UNL     1      35.440 -22.645 -16.936  0.00  0.00    +0.155 C 
ATOM     12  C   UNL     1      36.530 -21.866 -17.270  0.00  0.00    +0.104 C 
ATOM     13  C   UNL     1      35.327 -21.531 -19.072  0.00  0.00    +0.135 C 
ATOM     14  C   UNL     1      37.738 -21.656 -16.445  0.00  0.00    +0.063 C 
ATOM     15  C   UNL     1      34.900 -21.030 -20.397  0.00  0.00    +0.074 C 
ENDBRANCH   4  11
BRANCH   1  17
ATOM     16  C   UNL     1      28.686 -23.101 -15.766  0.00  0.00    +0.048 C 
ATOM     17  C   UNL     1      31.051 -24.018 -14.606  0.00  0.00    +0.058 C 
ATOM     18  C   UNL     1      29.543 -22.205 -15.129  0.00  0.00    +0.016 C 
ATOM     19  C   UNL     1      29.011 -24.457 -15.823  0.00  0.00    +0.016 C 
ATOM     20  C   UNL     1      30.726 -22.663 -14.549  0.00  0.00    +0.017 C 
ATOM     21  C   UNL     1      30.193 -24.915 -15.243  0.00  0.00    +0.017 C 
BRANCH  16  22
ATOM     22  N   UNL     1      27.491 -22.637 -16.353  0.00  0.00    -0.304 N 
ATOM     23  C   UNL     1      26.447 -22.057 -15.533  0.00  0.00    +0.112 C 
ATOM     24  C   UNL     1      27.297 -22.722 -17.788  0.00  0.00    +0.112 C 
ENDBRANCH  16  22
ENDBRANCH   1  17
TORSDOF 3
ENDMDL
MODEL 7
REMARK VINA RESULT:      -8.9     11.038     14.406
REMARK  Name = 447962
REMARK  3 active torsions:
REMARK  status: ('A' for Active; 'I' for Inactive)
REMARK    1  A    between atoms: N_1  and  C_17
REMARK    2  A    between atoms: C_4  and  C_11
REMARK    3  A    between atoms: C_16  and  N_22
REMARK                            x       y       z     vdW  Elec       q    Type
REMARK                         _______ _______ _______ _____ _____    ______ ____
ROOT
ATOM      1  N   UNL     1      31.748  -8.309 -21.503  0.00  0.00    -0.247 N 
ATOM      2  N   UNL     1      32.283 -10.467 -22.254  0.00  0.00    -0.341 NA
ATOM      3  N   UNL     1      31.366 -10.114 -20.053  0.00  0.00    -0.170 NA
ATOM      4  C   UNL     1      32.321 -11.789 -21.985  0.00  0.00    +0.140 C 
ATOM      5  C   UNL     1      31.802  -9.696 -21.258  0.00  0.00    +0.148 C 
ATOM      6  C   UNL     1      31.903 -12.341 -20.791  0.00  0.00    +0.051 C 
ATOM      7  C   UNL     1      31.431 -11.446 -19.852  0.00  0.00    +0.114 C 
ATOM      8  H   UNL     1      31.391  -7.788 -20.748  0.00  0.00    +0.165 HD
ENDROOT
BRANCH   4  11
ATOM      9  S   UNL     1      32.662 -14.313 -22.977  0.00  0.00    -0.074 S 
ATOM     10  N   UNL     1      33.855 -13.310 -25.040  0.00  0.00    -0.407 NA
ATOM     11  C   UNL     1      32.835 -12.606 -23.052  0.00  0.00    +0.155 C 
ATOM     12  C   UNL     1      33.491 -12.262 -24.217  0.00  0.00    +0.104 C 
ATOM     13  C   UNL     1      33.468 -14.438 -24.487  0.00  0.00    +0.135 C 
ATOM     14  C   UNL     1      33.831 -10.892 -24.655  0.00  0.00    +0.063 C 
ATOM     15  C   UNL     1      33.679 -15.776 -25.079  0.00  0.00    +0.074 C 
ENDBRANCH   4  11
BRANCH   1  17
ATOM     16  C   UNL     1      32.817  -5.959 -24.815  0.00  0.00    +0.048 C 
ATOM     17  C   UNL     1      32.107  -7.521 -22.616  0.00  0.00    +0.058 C 
ATOM     18  C   UNL     1      31.483  -6.037 -24.417  0.00  0.00    +0.016 C 
ATOM     19  C   UNL     1      33.796  -6.663 -24.114  0.00  0.00    +0.016 C 
ATOM     20  C   UNL     1      31.128  -6.818 -23.318  0.00  0.00    +0.017 C 
ATOM     21  C   UNL     1      33.442  -7.444 -23.015  0.00  0.00    +0.017 C 
BRANCH  16  22
ATOM     22  N   UNL     1      33.175  -5.168 -25.926  0.00  0.00    -0.304 N 
ATOM     23  C   UNL     1      32.275  -4.147 -26.422  0.00  0.00    +0.112 C 
ATOM     24  C   UNL     1      34.456  -5.356 -26.579  0.00  0.00    +0.112 C 
ENDBRANCH  16  22
ENDBRANCH   1  17
TORSDOF 3
ENDMDL
MODEL 8
REMARK VINA RESULT:      -8.9      6.961     10.607
REMARK  Name = 447962
REMARK  3 active torsions:
REMARK  status: ('A' for Active; 'I' for Inactive)
REMARK    1  A    between atoms: N_1  and  C_17
REMARK    2  A    between atoms: C_4  and  C_11
REMARK    3  A    between atoms: C_16  and  N_22
REMARK                            x       y       z     vdW  Elec       q    Type
REMARK                         _______ _______ _______ _____ _____    ______ ____
ROOT
ATOM      1  N   UNL     1      32.548 -12.922 -24.328  0.00  0.00    -0.247 N 
ATOM      2  N   UNL     1      33.658 -14.823 -23.514  0.00  0.00    -0.341 NA
ATOM      3  N   UNL     1      33.168 -14.586 -25.862  0.00  0.00    -0.170 NA
ATOM      4  C   UNL     1      34.229 -16.014 -23.792  0.00  0.00    +0.140 C 
ATOM      5  C   UNL     1      33.153 -14.169 -24.580  0.00  0.00    +0.148 C 
ATOM      6  C   UNL     1      34.307 -16.549 -25.061  0.00  0.00    +0.051 C 
ATOM      7  C   UNL     1      33.754 -15.784 -26.068  0.00  0.00    +0.114 C 
ATOM      8  H   UNL     1      32.194 -12.484 -25.135  0.00  0.00    +0.165 HD
ENDROOT
BRANCH   4  11
ATOM      9  S   UNL     1      35.436 -18.274 -22.841  0.00  0.00    -0.074 S 
ATOM     10  N   UNL     1      35.440 -17.241 -20.471  0.00  0.00    -0.407 NA
ATOM     11  C   UNL     1      34.766 -16.705 -22.650  0.00  0.00    +0.155 C 
ATOM     12  C   UNL     1      34.857 -16.325 -21.326  0.00  0.00    +0.104 C 
ATOM     13  C   UNL     1      35.784 -18.306 -21.161  0.00  0.00    +0.135 C 
ATOM     14  C   UNL     1      34.396 -15.043 -20.751  0.00  0.00    +0.063 C 
ATOM     15  C   UNL     1      36.440 -19.500 -20.586  0.00  0.00    +0.074 C 
ENDBRANCH   4  11
BRANCH   1  17
ATOM     16  C   UNL     1      31.961 -10.710 -20.807  0.00  0.00    +0.048 C 
ATOM     17  C   UNL     1      32.349 -12.179 -23.146  0.00  0.00    +0.058 C 
ATOM     18  C   UNL     1      31.691 -12.078 -20.824  0.00  0.00    +0.016 C 
ATOM     19  C   UNL     1      32.424 -10.076 -21.960  0.00  0.00    +0.016 C 
ATOM     20  C   UNL     1      31.885 -12.812 -21.994  0.00  0.00    +0.017 C 
ATOM     21  C   UNL     1      32.618 -10.810 -23.130  0.00  0.00    +0.017 C 
BRANCH  16  22
ATOM     22  N   UNL     1      31.765  -9.968 -19.624  0.00  0.00    -0.304 N 
ATOM     23  C   UNL     1      31.412 -10.637 -18.387  0.00  0.00    +0.112 C 
ATOM     24  C   UNL     1      31.929  -8.528 -19.625  0.00  0.00    +0.112 C 
ENDBRANCH  16  22
ENDBRANCH   1  17
TORSDOF 3
ENDMDL
MODEL 9
REMARK VINA RESULT:      -8.9      2.147      4.667
REMARK  Name = 447962
REMARK  3 active torsions:
REMARK  status: ('A' for Active; 'I' for Inactive)
REMARK    1  A    between atoms: N_1  and  C_17
REMARK    2  A    between atoms: C_4  and  C_11
REMARK    3  A    between atoms: C_16  and  N_22
REMARK                            x       y       z     vdW  Elec       q    Type
REMARK                         _______ _______ _______ _____ _____    ______ ____
ROOT
ATOM      1  N   UNL     1      36.329 -22.400 -17.570  0.00  0.00    -0.247 N 
ATOM      2  N   UNL     1      34.307 -23.030 -16.558  0.00  0.00    -0.341 NA
ATOM      3  N   UNL     1      36.419 -23.813 -15.699  0.00  0.00    -0.170 NA
ATOM      4  C   UNL     1      33.693 -23.728 -15.579  0.00  0.00    +0.140 C 
ATOM      5  C   UNL     1      35.653 -23.115 -16.561  0.00  0.00    +0.148 C 
ATOM      6  C   UNL     1      34.364 -24.479 -14.636  0.00  0.00    +0.051 C 
ATOM      7  C   UNL     1      35.740 -24.486 -14.746  0.00  0.00    +0.114 C 
ATOM      8  H   UNL     1      37.308 -22.493 -17.532  0.00  0.00    +0.165 HD
ENDROOT
BRANCH   4  11
ATOM      9  S   UNL     1      31.466 -22.721 -16.804  0.00  0.00    -0.074 S 
ATOM     10  N   UNL     1      29.997 -23.881 -15.020  0.00  0.00    -0.407 NA
ATOM     11  C   UNL     1      32.258 -23.632 -15.581  0.00  0.00    +0.155 C 
ATOM     12  C   UNL     1      31.315 -24.171 -14.728  0.00  0.00    +0.104 C 
ATOM     13  C   UNL     1      29.956 -23.123 -16.094  0.00  0.00    +0.135 C 
ATOM     14  C   UNL     1      31.589 -25.021 -13.550  0.00  0.00    +0.063 C 
ATOM     15  C   UNL     1      28.714 -22.612 -16.712  0.00  0.00    +0.074 C 
ENDBRANCH   4  11
BRANCH   1  17
ATOM     16  C   UNL     1      34.984 -19.949 -20.703  0.00  0.00    +0.048 C 
ATOM     17  C   UNL     1      35.878 -21.578 -18.623  0.00  0.00    +0.058 C 
ATOM     18  C   UNL     1      34.084 -20.772 -20.026  0.00  0.00    +0.016 C 
ATOM     19  C   UNL     1      36.331 -19.941 -20.341  0.00  0.00    +0.016 C 
ATOM     20  C   UNL     1      34.531 -21.586 -18.986  0.00  0.00    +0.017 C 
ATOM     21  C   UNL     1      36.778 -20.756 -19.301  0.00  0.00    +0.017 C 
BRANCH  16  22
ATOM     22  N   UNL     1      34.531 -19.124 -21.754  0.00  0.00    -0.304 N 
ATOM     23  C   UNL     1      33.844 -17.881 -21.468  0.00  0.00    +0.112 C 
ATOM     24  C   UNL     1      34.759 -19.503 -23.135  0.00  0.00    +0.112 C 
ENDBRANCH  16  22
ENDBRANCH   1  17
TORSDOF 3
ENDMDL
