MODEL 1
REMARK VINA RESULT:      -9.8      0.000      0.000
REMARK  Name = 23647763
REMARK  6 active torsions:
REMARK  status: ('A' for Active; 'I' for Inactive)
REMARK    1  A    between atoms: C_1  and  C_24
REMARK    2  A    between atoms: C_3  and  N_12
REMARK    3  A    between atoms: C_4  and  C_9
REMARK    4  A    between atoms: C_9  and  O_10
REMARK    5  A    between atoms: N_12  and  S_14
REMARK    6  A    between atoms: S_14  and  C_18
REMARK                            x       y       z     vdW  Elec       q    Type
REMARK                         _______ _______ _______ _____ _____    ______ ____
ROOT
ATOM      1  C   UNL     1      32.582 -13.587 -21.915  0.00  0.00    -0.026 C 
ATOM      2  C   UNL     1      33.247 -14.040 -23.054  0.00  0.00    -0.018 C 
ATOM      3  C   UNL     1      33.420 -16.243 -22.076  0.00  0.00    +0.071 C 
ATOM      4  C   UNL     1      33.665 -15.369 -23.135  0.00  0.00    +0.086 C 
ATOM      5  C   UNL     1      32.336 -14.462 -20.856  0.00  0.00    -0.003 C 
ATOM      6  C   UNL     1      32.755 -15.790 -20.937  0.00  0.00    +0.016 C 
ATOM      7  C   UNL     1      33.508 -13.097 -24.186  0.00  0.00    +0.031 C 
ENDROOT
BRANCH   4   9
ATOM      8  O   UNL     1      33.830 -16.078 -25.414  0.00  0.00    -0.245 OA
ATOM      9  C   UNL     1      34.362 -15.843 -24.328  0.00  0.00    +0.339 C 
BRANCH   9  10
ATOM     10  O   UNL     1      35.695 -16.003 -24.116  0.00  0.00    -0.477 OA
ATOM     11  H   UNL     1      36.201 -15.299 -23.762  0.00  0.00    +0.295 HD
ENDBRANCH   9  10
ENDBRANCH   4   9
BRANCH   3  12
ATOM     12  N   UNL     1      33.839 -17.610 -22.134  0.00  0.00    -0.215 N 
ATOM     13  H   UNL     1      33.294 -18.283 -22.602  0.00  0.00    +0.174 HD
BRANCH  12  14
ATOM     14  S   UNL     1      35.315 -18.054 -21.369  0.00  0.00    +0.074 S 
ATOM     15  O   UNL     1      36.310 -18.328 -22.390  0.00  0.00    -0.150 OA
ATOM     16  O   UNL     1      35.620 -17.126 -20.298  0.00  0.00    -0.150 OA
BRANCH  14  18
ATOM     17  F   UNL     1      33.907 -23.232 -18.920  0.00  0.00    -0.204 F 
ATOM     18  C   UNL     1      34.893 -19.608 -20.634  0.00  0.00    +0.125 C 
ATOM     19  C   UNL     1      33.554 -19.959 -20.468  0.00  0.00    +0.022 C 
ATOM     20  C   UNL     1      35.900 -20.481 -20.222  0.00  0.00    +0.022 C 
ATOM     21  C   UNL     1      33.221 -21.184 -19.888  0.00  0.00    +0.031 C 
ATOM     22  C   UNL     1      35.567 -21.706 -19.642  0.00  0.00    +0.031 C 
ATOM     23  C   UNL     1      34.227 -22.057 -19.476  0.00  0.00    +0.140 C 
ENDBRANCH  14  18
ENDBRANCH  12  14
ENDBRANCH   3  12
BRANCH   1  24
ATOM     24  C   UNL     1      32.124 -12.170 -21.802  0.00  0.00    +0.026 C 
ATOM     25  C   UNL     1      31.647 -11.826 -20.395  0.00  0.00    +0.005 C 
ENDBRANCH   1  24
TORSDOF 6
ENDMDL
MODEL 2
REMARK VINA RESULT:      -9.4      4.177      7.666
REMARK  Name = 23647763
REMARK  6 active torsions:
REMARK  status: ('A' for Active; 'I' for Inactive)
REMARK    1  A    between atoms: C_1  and  C_24
REMARK    2  A    between atoms: C_3  and  N_12
REMARK    3  A    between atoms: C_4  and  C_9
REMARK    4  A    between atoms: C_9  and  O_10
REMARK    5  A    between atoms: N_12  and  S_14
REMARK    6  A    between atoms: S_14  and  C_18
REMARK                            x       y       z     vdW  Elec       q    Type
REMARK                         _______ _______ _______ _____ _____    ______ ____
ROOT
ATOM      1  C   UNL     1      34.898 -18.234 -21.794  0.00  0.00    -0.026 C 
ATOM      2  C   UNL     1      34.747 -18.142 -23.178  0.00  0.00    -0.018 C 
ATOM      3  C   UNL     1      34.618 -15.735 -23.003  0.00  0.00    +0.071 C 
ATOM      4  C   UNL     1      34.608 -16.892 -23.782  0.00  0.00    +0.086 C 
ATOM      5  C   UNL     1      34.909 -17.077 -21.015  0.00  0.00    -0.003 C 
ATOM      6  C   UNL     1      34.769 -15.828 -21.620  0.00  0.00    +0.016 C 
ATOM      7  C   UNL     1      34.736 -19.387 -24.008  0.00  0.00    +0.031 C 
ENDROOT
BRANCH   4   9
ATOM      8  O   UNL     1      33.410 -17.029 -25.849  0.00  0.00    -0.245 OA
ATOM      9  C   UNL     1      34.450 -16.796 -25.231  0.00  0.00    +0.339 C 
BRANCH   9  10
ATOM     10  O   UNL     1      35.597 -16.410 -25.850  0.00  0.00    -0.477 OA
ATOM     11  H   UNL     1      35.969 -16.945 -26.523  0.00  0.00    +0.295 HD
ENDBRANCH   9  10
ENDBRANCH   4   9
BRANCH   3  12
ATOM     12  N   UNL     1      34.477 -14.442 -23.598  0.00  0.00    -0.215 N 
ATOM     13  H   UNL     1      35.264 -13.951 -23.925  0.00  0.00    +0.174 HD
BRANCH  12  14
ATOM     14  S   UNL     1      32.901 -13.761 -23.730  0.00  0.00    +0.074 S 
ATOM     15  O   UNL     1      32.365 -14.070 -25.043  0.00  0.00    -0.150 OA
ATOM     16  O   UNL     1      32.124 -14.069 -22.545  0.00  0.00    -0.150 OA
BRANCH  14  18
ATOM     17  F   UNL     1      34.060  -7.978 -23.670  0.00  0.00    -0.204 F 
ATOM     18  C   UNL     1      33.249 -12.026 -23.713  0.00  0.00    +0.125 C 
ATOM     19  C   UNL     1      32.498 -11.173 -22.904  0.00  0.00    +0.022 C 
ATOM     20  C   UNL     1      34.275 -11.513 -24.506  0.00  0.00    +0.022 C 
ATOM     21  C   UNL     1      32.772  -9.805 -22.890  0.00  0.00    +0.031 C 
ATOM     22  C   UNL     1      34.549 -10.145 -24.492  0.00  0.00    +0.031 C 
ATOM     23  C   UNL     1      33.797  -9.291 -23.683  0.00  0.00    +0.140 C 
ENDBRANCH  14  18
ENDBRANCH  12  14
ENDBRANCH   3  12
BRANCH   1  24
ATOM     24  C   UNL     1      35.049 -19.559 -21.122  0.00  0.00    +0.026 C 
ATOM     25  C   UNL     1      33.727 -20.080 -20.566  0.00  0.00    +0.005 C 
ENDBRANCH   1  24
TORSDOF 6
ENDMDL
MODEL 3
REMARK VINA RESULT:      -9.1      4.552      8.339
REMARK  Name = 23647763
REMARK  6 active torsions:
REMARK  status: ('A' for Active; 'I' for Inactive)
REMARK    1  A    between atoms: C_1  and  C_24
REMARK    2  A    between atoms: C_3  and  N_12
REMARK    3  A    between atoms: C_4  and  C_9
REMARK    4  A    between atoms: C_9  and  O_10
REMARK    5  A    between atoms: N_12  and  S_14
REMARK    6  A    between atoms: S_14  and  C_18
REMARK                            x       y       z     vdW  Elec       q    Type
REMARK                         _______ _______ _______ _____ _____    ______ ____
ROOT
ATOM      1  C   UNL     1      34.851 -17.995 -23.530  0.00  0.00    -0.026 C 
ATOM      2  C   UNL     1      34.590 -17.434 -22.280  0.00  0.00    -0.018 C 
ATOM      3  C   UNL     1      34.595 -15.229 -23.267  0.00  0.00    +0.071 C 
ATOM      4  C   UNL     1      34.461 -16.052 -22.148  0.00  0.00    +0.086 C 
ATOM      5  C   UNL     1      34.985 -17.172 -24.649  0.00  0.00    -0.003 C 
ATOM      6  C   UNL     1      34.857 -15.789 -24.517  0.00  0.00    +0.016 C 
ATOM      7  C   UNL     1      34.449 -18.322 -21.084  0.00  0.00    +0.031 C 
ENDROOT
BRANCH   4   9
ATOM      8  O   UNL     1      35.030 -15.258 -19.965  0.00  0.00    -0.245 OA
ATOM      9  C   UNL     1      34.188 -15.465 -20.839  0.00  0.00    +0.339 C 
BRANCH   9  10
ATOM     10  O   UNL     1      32.874 -15.160 -20.676  0.00  0.00    -0.477 OA
ATOM     11  H   UNL     1      32.221 -15.820 -20.799  0.00  0.00    +0.295 HD
ENDBRANCH   9  10
ENDBRANCH   4   9
BRANCH   3  12
ATOM     12  N   UNL     1      34.468 -13.808 -23.159  0.00  0.00    -0.215 N 
ATOM     13  H   UNL     1      35.187 -13.269 -22.758  0.00  0.00    +0.174 HD
BRANCH  12  14
ATOM     14  S   UNL     1      33.033 -13.060 -23.745  0.00  0.00    +0.074 S 
ATOM     15  O   UNL     1      32.807 -13.484 -25.114  0.00  0.00    -0.150 OA
ATOM     16  O   UNL     1      31.970 -13.188 -22.767  0.00  0.00    -0.150 OA
BRANCH  14  18
ATOM     17  F   UNL     1      34.616  -7.381 -23.954  0.00  0.00    -0.204 F 
ATOM     18  C   UNL     1      33.508 -11.356 -23.807  0.00  0.00    +0.125 C 
ATOM     19  C   UNL     1      34.632 -10.972 -24.538  0.00  0.00    +0.022 C 
ATOM     20  C   UNL     1      32.757 -10.398 -23.127  0.00  0.00    +0.022 C 
ATOM     21  C   UNL     1      35.007  -9.629 -24.587  0.00  0.00    +0.031 C 
ATOM     22  C   UNL     1      33.132  -9.055 -23.176  0.00  0.00    +0.031 C 
ATOM     23  C   UNL     1      34.257  -8.670 -23.907  0.00  0.00    +0.140 C 
ENDBRANCH  14  18
ENDBRANCH  12  14
ENDBRANCH   3  12
BRANCH   1  24
ATOM     24  C   UNL     1      34.994 -19.472 -23.699  0.00  0.00    +0.026 C 
ATOM     25  C   UNL     1      34.667 -19.927 -25.118  0.00  0.00    +0.005 C 
ENDBRANCH   1  24
TORSDOF 6
ENDMDL
MODEL 4
REMARK VINA RESULT:      -9.1      1.635      2.944
REMARK  Name = 23647763
REMARK  6 active torsions:
REMARK  status: ('A' for Active; 'I' for Inactive)
REMARK    1  A    between atoms: C_1  and  C_24
REMARK    2  A    between atoms: C_3  and  N_12
REMARK    3  A    between atoms: C_4  and  C_9
REMARK    4  A    between atoms: C_9  and  O_10
REMARK    5  A    between atoms: N_12  and  S_14
REMARK    6  A    between atoms: S_14  and  C_18
REMARK                            x       y       z     vdW  Elec       q    Type
REMARK                         _______ _______ _______ _____ _____    ______ ____
ROOT
ATOM      1  C   UNL     1      33.361 -14.783 -24.528  0.00  0.00    -0.026 C 
ATOM      2  C   UNL     1      33.220 -14.464 -23.177  0.00  0.00    -0.018 C 
ATOM      3  C   UNL     1      34.616 -16.346 -22.588  0.00  0.00    +0.071 C 
ATOM      4  C   UNL     1      33.849 -15.245 -22.208  0.00  0.00    +0.086 C 
ATOM      5  C   UNL     1      34.128 -15.885 -24.909  0.00  0.00    -0.003 C 
ATOM      6  C   UNL     1      34.756 -16.665 -23.938  0.00  0.00    +0.016 C 
ATOM      7  C   UNL     1      32.395 -13.282 -22.776  0.00  0.00    +0.031 C 
ENDROOT
BRANCH   4   9
ATOM      8  O   UNL     1      32.643 -14.936 -20.164  0.00  0.00    -0.245 OA
ATOM      9  C   UNL     1      33.702 -14.911 -20.794  0.00  0.00    +0.339 C 
BRANCH   9  10
ATOM     10  O   UNL     1      34.884 -14.559 -20.222  0.00  0.00    -0.477 OA
ATOM     11  H   UNL     1      35.494 -15.222 -19.963  0.00  0.00    +0.295 HD
ENDBRANCH   9  10
ENDBRANCH   4   9
BRANCH   3  12
ATOM     12  N   UNL     1      35.270 -17.164 -21.613  0.00  0.00    -0.215 N 
ATOM     13  H   UNL     1      35.369 -16.855 -20.684  0.00  0.00    +0.174 HD
BRANCH  12  14
ATOM     14  S   UNL     1      35.882 -18.698 -22.097  0.00  0.00    +0.074 S 
ATOM     15  O   UNL     1      35.422 -18.984 -23.444  0.00  0.00    -0.150 OA
ATOM     16  O   UNL     1      37.295 -18.792 -21.784  0.00  0.00    -0.150 OA
BRANCH  14  18
ATOM     17  F   UNL     1      32.987 -22.358 -18.490  0.00  0.00    -0.204 F 
ATOM     18  C   UNL     1      35.014 -19.796 -21.014  0.00  0.00    +0.125 C 
ATOM     19  C   UNL     1      33.627 -19.704 -20.894  0.00  0.00    +0.022 C 
ATOM     20  C   UNL     1      35.716 -20.754 -20.284  0.00  0.00    +0.022 C 
ATOM     21  C   UNL     1      32.942 -20.569 -20.041  0.00  0.00    +0.031 C 
ATOM     22  C   UNL     1      35.031 -21.620 -19.430  0.00  0.00    +0.031 C 
ATOM     23  C   UNL     1      33.644 -21.528 -19.309  0.00  0.00    +0.140 C 
ENDBRANCH  14  18
ENDBRANCH  12  14
ENDBRANCH   3  12
BRANCH   1  24
ATOM     24  C   UNL     1      32.698 -13.964 -25.587  0.00  0.00    +0.026 C 
ATOM     25  C   UNL     1      33.343 -14.157 -26.956  0.00  0.00    +0.005 C 
ENDBRANCH   1  24
TORSDOF 6
ENDMDL
MODEL 5
REMARK VINA RESULT:      -9.0      3.167      7.198
REMARK  Name = 23647763
REMARK  6 active torsions:
REMARK  status: ('A' for Active; 'I' for Inactive)
REMARK    1  A    between atoms: C_1  and  C_24
REMARK    2  A    between atoms: C_3  and  N_12
REMARK    3  A    between atoms: C_4  and  C_9
REMARK    4  A    between atoms: C_9  and  O_10
REMARK    5  A    between atoms: N_12  and  S_14
REMARK    6  A    between atoms: S_14  and  C_18
REMARK                            x       y       z     vdW  Elec       q    Type
REMARK                         _______ _______ _______ _____ _____    ______ ____
ROOT
ATOM      1  C   UNL     1      34.213 -21.223 -19.713  0.00  0.00    -0.026 C 
ATOM      2  C   UNL     1      35.381 -20.668 -20.236  0.00  0.00    -0.018 C 
ATOM      3  C   UNL     1      34.083 -18.914 -21.273  0.00  0.00    +0.071 C 
ATOM      4  C   UNL     1      35.316 -19.513 -21.016  0.00  0.00    +0.086 C 
ATOM      5  C   UNL     1      32.980 -20.624 -19.970  0.00  0.00    -0.003 C 
ATOM      6  C   UNL     1      32.915 -19.469 -20.750  0.00  0.00    +0.016 C 
ATOM      7  C   UNL     1      36.701 -21.317 -19.958  0.00  0.00    +0.031 C 
ENDROOT
BRANCH   4   9
ATOM      8  O   UNL     1      37.633 -18.917 -20.998  0.00  0.00    -0.245 OA
ATOM      9  C   UNL     1      36.538 -18.932 -21.563  0.00  0.00    +0.339 C 
BRANCH   9  10
ATOM     10  O   UNL     1      36.346 -18.395 -22.797  0.00  0.00    -0.477 OA
ATOM     11  H   UNL     1      35.684 -17.744 -22.926  0.00  0.00    +0.295 HD
ENDBRANCH   9  10
ENDBRANCH   4   9
BRANCH   3  12
ATOM     12  N   UNL     1      33.988 -17.729 -22.070  0.00  0.00    -0.215 N 
ATOM     13  H   UNL     1      34.044 -17.778 -23.051  0.00  0.00    +0.174 HD
BRANCH  12  14
ATOM     14  S   UNL     1      33.777 -16.216 -21.277  0.00  0.00    +0.074 S 
ATOM     15  O   UNL     1      32.484 -16.206 -20.619  0.00  0.00    -0.150 OA
ATOM     16  O   UNL     1      34.970 -15.876 -20.526  0.00  0.00    -0.150 OA
BRANCH  14  18
ATOM     17  F   UNL     1      33.401 -12.492 -25.837  0.00  0.00    -0.204 F 
ATOM     18  C   UNL     1      33.664 -15.099 -22.646  0.00  0.00    +0.125 C 
ATOM     19  C   UNL     1      33.489 -13.734 -22.418  0.00  0.00    +0.022 C 
ATOM     20  C   UNL     1      33.752 -15.583 -23.950  0.00  0.00    +0.022 C 
ATOM     21  C   UNL     1      33.400 -12.853 -23.497  0.00  0.00    +0.031 C 
ATOM     22  C   UNL     1      33.662 -14.703 -25.029  0.00  0.00    +0.031 C 
ATOM     23  C   UNL     1      33.487 -13.337 -24.802  0.00  0.00    +0.140 C 
ENDBRANCH  14  18
ENDBRANCH  12  14
ENDBRANCH   3  12
BRANCH   1  24
ATOM     24  C   UNL     1      34.255 -22.459 -18.876  0.00  0.00    +0.026 C 
ATOM     25  C   UNL     1      33.000 -22.624 -18.025  0.00  0.00    +0.005 C 
ENDBRANCH   1  24
TORSDOF 6
ENDMDL
MODEL 6
REMARK VINA RESULT:      -8.8      8.899     11.011
REMARK  Name = 23647763
REMARK  6 active torsions:
REMARK  status: ('A' for Active; 'I' for Inactive)
REMARK    1  A    between atoms: C_1  and  C_24
REMARK    2  A    between atoms: C_3  and  N_12
REMARK    3  A    between atoms: C_4  and  C_9
REMARK    4  A    between atoms: C_9  and  O_10
REMARK    5  A    between atoms: N_12  and  S_14
REMARK    6  A    between atoms: S_14  and  C_18
REMARK                            x       y       z     vdW  Elec       q    Type
REMARK                         _______ _______ _______ _____ _____    ______ ____
ROOT
ATOM      1  C   UNL     1      35.758 -22.792 -16.119  0.00  0.00    -0.026 C 
ATOM      2  C   UNL     1      35.959 -23.326 -14.846  0.00  0.00    -0.018 C 
ATOM      3  C   UNL     1      33.708 -24.204 -14.860  0.00  0.00    +0.071 C 
ATOM      4  C   UNL     1      34.934 -24.033 -14.216  0.00  0.00    +0.086 C 
ATOM      5  C   UNL     1      34.532 -22.964 -16.762  0.00  0.00    -0.003 C 
ATOM      6  C   UNL     1      33.507 -23.670 -16.132  0.00  0.00    +0.016 C 
ATOM      7  C   UNL     1      37.276 -23.137 -14.161  0.00  0.00    +0.031 C 
ENDROOT
BRANCH   4   9
ATOM      8  O   UNL     1      34.671 -24.138 -11.841  0.00  0.00    -0.245 OA
ATOM      9  C   UNL     1      35.144 -24.591 -12.884  0.00  0.00    +0.339 C 
BRANCH   9  10
ATOM     10  O   UNL     1      35.936 -25.696 -12.908  0.00  0.00    -0.477 OA
ATOM     11  H   UNL     1      36.109 -26.165 -12.115  0.00  0.00    +0.295 HD
ENDBRANCH   9  10
ENDBRANCH   4   9
BRANCH   3  12
ATOM     12  N   UNL     1      32.640 -24.924 -14.236  0.00  0.00    -0.215 N 
ATOM     13  H   UNL     1      32.623 -25.908 -14.250  0.00  0.00    +0.174 HD
BRANCH  12  14
ATOM     14  S   UNL     1      31.387 -24.036 -13.459  0.00  0.00    +0.074 S 
ATOM     15  O   UNL     1      30.738 -24.893 -12.484  0.00  0.00    -0.150 OA
ATOM     16  O   UNL     1      31.877 -22.731 -13.057  0.00  0.00    -0.150 OA
BRANCH  14  18
ATOM     17  F   UNL     1      27.547 -23.237 -17.865  0.00  0.00    -0.204 F 
ATOM     18  C   UNL     1      30.235 -23.797 -14.781  0.00  0.00    +0.125 C 
ATOM     19  C   UNL     1      29.819 -22.509 -15.118  0.00  0.00    +0.022 C 
ATOM     20  C   UNL     1      29.744 -24.896 -15.485  0.00  0.00    +0.022 C 
ATOM     21  C   UNL     1      28.910 -22.320 -16.160  0.00  0.00    +0.031 C 
ATOM     22  C   UNL     1      28.835 -24.707 -16.527  0.00  0.00    +0.031 C 
ATOM     23  C   UNL     1      28.419 -23.419 -16.865  0.00  0.00    +0.140 C 
ENDBRANCH  14  18
ENDBRANCH  12  14
ENDBRANCH   3  12
BRANCH   1  24
ATOM     24  C   UNL     1      36.838 -22.031 -16.815  0.00  0.00    +0.026 C 
ATOM     25  C   UNL     1      36.472 -21.694 -18.257  0.00  0.00    +0.005 C 
ENDBRANCH   1  24
TORSDOF 6
ENDMDL
MODEL 7
REMARK VINA RESULT:      -8.8      7.099     10.663
REMARK  Name = 23647763
REMARK  6 active torsions:
REMARK  status: ('A' for Active; 'I' for Inactive)
REMARK    1  A    between atoms: C_1  and  C_24
REMARK    2  A    between atoms: C_3  and  N_12
REMARK    3  A    between atoms: C_4  and  C_9
REMARK    4  A    between atoms: C_9  and  O_10
REMARK    5  A    between atoms: N_12  and  S_14
REMARK    6  A    between atoms: S_14  and  C_18
REMARK                            x       y       z     vdW  Elec       q    Type
REMARK                         _______ _______ _______ _____ _____    ______ ____
ROOT
ATOM      1  C   UNL     1      32.390 -13.150 -22.144  0.00  0.00    -0.026 C 
ATOM      2  C   UNL     1      33.265 -12.822 -23.180  0.00  0.00    -0.018 C 
ATOM      3  C   UNL     1      32.478 -10.539 -23.121  0.00  0.00    +0.071 C 
ATOM      4  C   UNL     1      33.309 -11.516 -23.668  0.00  0.00    +0.086 C 
ATOM      5  C   UNL     1      31.559 -12.173 -21.597  0.00  0.00    -0.003 C 
ATOM      6  C   UNL     1      31.603 -10.867 -22.085  0.00  0.00    +0.016 C 
ATOM      7  C   UNL     1      34.153 -13.876 -23.763  0.00  0.00    +0.031 C 
ENDROOT
BRANCH   4   9
ATOM      8  O   UNL     1      34.072 -11.482 -25.935  0.00  0.00    -0.245 OA
ATOM      9  C   UNL     1      34.225 -11.173 -24.752  0.00  0.00    +0.339 C 
BRANCH   9  10
ATOM     10  O   UNL     1      35.294 -10.456 -24.316  0.00  0.00    -0.477 OA
ATOM     11  H   UNL     1      35.232  -9.957 -23.526  0.00  0.00    +0.295 HD
ENDBRANCH   9  10
ENDBRANCH   4   9
BRANCH   3  12
ATOM     12  N   UNL     1      32.504  -9.192 -23.603  0.00  0.00    -0.215 N 
ATOM     13  H   UNL     1      32.052  -8.951 -24.444  0.00  0.00    +0.174 HD
BRANCH  12  14
ATOM     14  S   UNL     1      33.340  -8.001 -22.685  0.00  0.00    +0.074 S 
ATOM     15  O   UNL     1      32.984  -8.150 -21.286  0.00  0.00    -0.150 OA
ATOM     16  O   UNL     1      34.738  -7.964 -23.072  0.00  0.00    -0.150 OA
BRANCH  14  18
ATOM     17  F   UNL     1      30.818  -3.013 -24.570  0.00  0.00    -0.204 F 
ATOM     18  C   UNL     1      32.583  -6.504 -23.250  0.00  0.00    +0.125 C 
ATOM     19  C   UNL     1      32.808  -6.059 -24.553  0.00  0.00    +0.022 C 
ATOM     20  C   UNL     1      31.763  -5.771 -22.393  0.00  0.00    +0.022 C 
ATOM     21  C   UNL     1      32.211  -4.879 -24.998  0.00  0.00    +0.031 C 
ATOM     22  C   UNL     1      31.167  -4.591 -22.839  0.00  0.00    +0.031 C 
ATOM     23  C   UNL     1      31.391  -4.145 -24.142  0.00  0.00    +0.140 C 
ENDBRANCH  14  18
ENDBRANCH  12  14
ENDBRANCH   3  12
BRANCH   1  24
ATOM     24  C   UNL     1      32.322 -14.541 -21.603  0.00  0.00    +0.026 C 
ATOM     25  C   UNL     1      33.047 -14.679 -20.269  0.00  0.00    +0.005 C 
ENDBRANCH   1  24
TORSDOF 6
ENDMDL
MODEL 8
REMARK VINA RESULT:      -8.7      5.044      8.344
REMARK  Name = 23647763
REMARK  6 active torsions:
REMARK  status: ('A' for Active; 'I' for Inactive)
REMARK    1  A    between atoms: C_1  and  C_24
REMARK    2  A    between atoms: C_3  and  N_12
REMARK    3  A    between atoms: C_4  and  C_9
REMARK    4  A    between atoms: C_9  and  O_10
REMARK    5  A    between atoms: N_12  and  S_14
REMARK    6  A    between atoms: S_14  and  C_18
REMARK                            x       y       z     vdW  Elec       q    Type
REMARK                         _______ _______ _______ _____ _____    ______ ____
ROOT
ATOM      1  C   UNL     1      34.110 -15.983 -21.403  0.00  0.00    -0.026 C 
ATOM      2  C   UNL     1      34.156 -15.427 -22.682  0.00  0.00    -0.018 C 
ATOM      3  C   UNL     1      32.511 -13.784 -22.025  0.00  0.00    +0.071 C 
ATOM      4  C   UNL     1      33.357 -14.327 -22.992  0.00  0.00    +0.086 C 
ATOM      5  C   UNL     1      33.264 -15.441 -20.436  0.00  0.00    -0.003 C 
ATOM      6  C   UNL     1      32.464 -14.340 -20.747  0.00  0.00    +0.016 C 
ATOM      7  C   UNL     1      35.065 -16.015 -23.715  0.00  0.00    +0.031 C 
ENDROOT
BRANCH   4   9
ATOM      8  O   UNL     1      32.794 -14.167 -25.311  0.00  0.00    -0.245 OA
ATOM      9  C   UNL     1      33.405 -13.744 -24.330  0.00  0.00    +0.339 C 
BRANCH   9  10
ATOM     10  O   UNL     1      34.215 -12.654 -24.388  0.00  0.00    -0.477 OA
ATOM     11  H   UNL     1      34.389 -12.243 -25.212  0.00  0.00    +0.295 HD
ENDBRANCH   9  10
ENDBRANCH   4   9
BRANCH   3  12
ATOM     12  N   UNL     1      31.681 -12.656 -22.318  0.00  0.00    -0.215 N 
ATOM     13  H   UNL     1      31.278 -12.547 -23.209  0.00  0.00    +0.174 HD
BRANCH  12  14
ATOM     14  S   UNL     1      31.401 -11.492 -21.081  0.00  0.00    +0.074 S 
ATOM     15  O   UNL     1      29.975 -11.236 -20.991  0.00  0.00    -0.150 OA
ATOM     16  O   UNL     1      32.145 -11.846 -19.887  0.00  0.00    -0.150 OA
BRANCH  14  18
ATOM     17  F   UNL     1      33.869  -6.652 -23.377  0.00  0.00    -0.204 F 
ATOM     18  C   UNL     1      32.141 -10.040 -21.769  0.00  0.00    +0.125 C 
ATOM     19  C   UNL     1      32.637 -10.062 -23.073  0.00  0.00    +0.022 C 
ATOM     20  C   UNL     1      32.228  -8.874 -21.009  0.00  0.00    +0.022 C 
ATOM     21  C   UNL     1      33.221  -8.917 -23.616  0.00  0.00    +0.031 C 
ATOM     22  C   UNL     1      32.812  -7.729 -21.552  0.00  0.00    +0.031 C 
ATOM     23  C   UNL     1      33.308  -7.751 -22.856  0.00  0.00    +0.140 C 
ENDBRANCH  14  18
ENDBRANCH  12  14
ENDBRANCH   3  12
BRANCH   1  24
ATOM     24  C   UNL     1      34.954 -17.162 -21.044  0.00  0.00    +0.026 C 
ATOM     25  C   UNL     1      34.237 -18.485 -21.292  0.00  0.00    +0.005 C 
ENDBRANCH   1  24
TORSDOF 6
ENDMDL
MODEL 9
REMARK VINA RESULT:      -8.6      3.613      5.231
REMARK  Name = 23647763
REMARK  6 active torsions:
REMARK  status: ('A' for Active; 'I' for Inactive)
REMARK    1  A    between atoms: C_1  and  C_24
REMARK    2  A    between atoms: C_3  and  N_12
REMARK    3  A    between atoms: C_4  and  C_9
REMARK    4  A    between atoms: C_9  and  O_10
REMARK    5  A    between atoms: N_12  and  S_14
REMARK    6  A    between atoms: S_14  and  C_18
REMARK                            x       y       z     vdW  Elec       q    Type
REMARK                         _______ _______ _______ _____ _____    ______ ____
ROOT
ATOM      1  C   UNL     1      33.310  -9.757 -23.660  0.00  0.00    -0.026 C 
ATOM      2  C   UNL     1      32.500 -10.042 -22.561  0.00  0.00    -0.018 C 
ATOM      3  C   UNL     1      32.783 -12.407 -22.965  0.00  0.00    +0.071 C 
ATOM      4  C   UNL     1      32.237 -11.367 -22.213  0.00  0.00    +0.086 C 
ATOM      5  C   UNL     1      33.856 -10.798 -24.413  0.00  0.00    -0.003 C 
ATOM      6  C   UNL     1      33.593 -12.123 -24.064  0.00  0.00    +0.016 C 
ATOM      7  C   UNL     1      31.916  -8.922 -21.759  0.00  0.00    +0.031 C 
ENDROOT
BRANCH   4   9
ATOM      8  O   UNL     1      31.794 -11.889 -19.921  0.00  0.00    -0.245 OA
ATOM      9  C   UNL     1      31.389 -11.665 -21.062  0.00  0.00    +0.339 C 
BRANCH   9  10
ATOM     10  O   UNL     1      30.068 -11.670 -21.383  0.00  0.00    -0.477 OA
ATOM     11  H   UNL     1      29.493 -11.033 -21.008  0.00  0.00    +0.295 HD
ENDBRANCH   9  10
ENDBRANCH   4   9
BRANCH   3  12
ATOM     12  N   UNL     1      32.529 -13.775 -22.630  0.00  0.00    -0.215 N 
ATOM     13  H   UNL     1      31.766 -14.255 -23.025  0.00  0.00    +0.174 HD
BRANCH  12  14
ATOM     14  S   UNL     1      33.584 -14.563 -21.521  0.00  0.00    +0.074 S 
ATOM     15  O   UNL     1      34.779 -13.757 -21.355  0.00  0.00    -0.150 OA
ATOM     16  O   UNL     1      32.843 -15.001 -20.353  0.00  0.00    -0.150 OA
BRANCH  14  18
ATOM     17  F   UNL     1      35.168 -19.370 -24.551  0.00  0.00    -0.204 F 
ATOM     18  C   UNL     1      34.059 -16.005 -22.431  0.00  0.00    +0.125 C 
ATOM     19  C   UNL     1      34.315 -17.200 -21.758  0.00  0.00    +0.022 C 
ATOM     20  C   UNL     1      34.178 -15.947 -23.819  0.00  0.00    +0.022 C 
ATOM     21  C   UNL     1      34.690 -18.337 -22.475  0.00  0.00    +0.031 C 
ATOM     22  C   UNL     1      34.553 -17.083 -24.535  0.00  0.00    +0.031 C 
ATOM     23  C   UNL     1      34.809 -18.279 -23.863  0.00  0.00    +0.140 C 
ENDBRANCH  14  18
ENDBRANCH  12  14
ENDBRANCH   3  12
BRANCH   1  24
ATOM     24  C   UNL     1      33.606  -8.348 -24.055  0.00  0.00    +0.026 C 
ATOM     25  C   UNL     1      34.890  -7.826 -23.418  0.00  0.00    +0.005 C 
ENDBRANCH   1  24
TORSDOF 6
ENDMDL
