MODEL 1
REMARK VINA RESULT:     -11.6      0.000      0.000
REMARK  Name = 6419766
REMARK  1 active torsions:
REMARK  status: ('A' for Active; 'I' for Inactive)
REMARK    1  A    between atoms: C_9  and  C_20
REMARK                            x       y       z     vdW  Elec       q    Type
REMARK                         _______ _______ _______ _____ _____    ______ ____
ROOT
ATOM      1  N   UNL     1      34.314 -24.022 -14.587  0.00  0.00    -0.274 N 
ATOM      2  N   UNL     1      34.049 -22.925 -16.652  0.00  0.00    -0.328 NA
ATOM      3  N   UNL     1      31.861 -22.632 -17.616  0.00  0.00    -0.343 NA
ATOM      4  N   UNL     1      37.546 -25.011 -15.149  0.00  0.00    -0.239 N 
ATOM      5  N   UNL     1      36.399 -24.536 -15.660  0.00  0.00    -0.166 NA
ATOM      6  C   UNL     1      32.088 -23.755 -15.510  0.00  0.00    +0.143 C 
ATOM      7  C   UNL     1      33.461 -23.552 -15.616  0.00  0.00    +0.185 C 
ATOM      8  C   UNL     1      31.305 -23.263 -16.567  0.00  0.00    +0.133 C 
ATOM      9  C   UNL     1      33.202 -22.498 -17.602  0.00  0.00    +0.138 C 
ATOM     10  C   UNL     1      35.645 -24.470 -14.591  0.00  0.00    +0.152 C 
ATOM     11  C   UNL     1      31.496 -24.413 -14.417  0.00  0.00    -0.011 C 
ATOM     12  C   UNL     1      29.927 -23.448 -16.496  0.00  0.00    +0.029 C 
ATOM     13  C   UNL     1      36.236 -24.876 -13.406  0.00  0.00    +0.048 C 
ATOM     14  C   UNL     1      37.502 -25.233 -13.803  0.00  0.00    +0.046 C 
ATOM     15  C   UNL     1      30.117 -24.585 -14.373  0.00  0.00    -0.004 C 
ATOM     16  C   UNL     1      29.331 -24.102 -15.413  0.00  0.00    +0.002 C 
ATOM     17  C   UNL     1      38.657 -25.753 -13.054  0.00  0.00    +0.049 C 
ATOM     18  H   UNL     1      33.893 -24.036 -13.698  0.00  0.00    +0.156 HD
ATOM     19  H   UNL     1      38.346 -25.185 -15.695  0.00  0.00    +0.174 HD
ENDROOT
BRANCH   9  20
ATOM     20  C   UNL     1      33.789 -21.821 -18.729  0.00  0.00    +0.086 C 
ATOM     21  C   UNL     1      32.998 -21.030 -19.567  0.00  0.00    +0.012 C 
ATOM     22  C   UNL     1      35.157 -21.948 -18.993  0.00  0.00    +0.012 C 
ATOM     23  C   UNL     1      33.567 -20.373 -20.658  0.00  0.00    +0.001 C 
ATOM     24  C   UNL     1      35.726 -21.292 -20.083  0.00  0.00    +0.001 C 
ATOM     25  C   UNL     1      34.932 -20.503 -20.916  0.00  0.00    +0.000 C 
ENDBRANCH   9  20
TORSDOF 1
ENDMDL
MODEL 2
REMARK VINA RESULT:     -11.3      1.501      5.738
REMARK  Name = 6419766
REMARK  1 active torsions:
REMARK  status: ('A' for Active; 'I' for Inactive)
REMARK    1  A    between atoms: C_9  and  C_20
REMARK                            x       y       z     vdW  Elec       q    Type
REMARK                         _______ _______ _______ _____ _____    ______ ____
ROOT
ATOM      1  N   UNL     1      33.061 -22.444 -18.282  0.00  0.00    -0.274 N 
ATOM      2  N   UNL     1      34.513 -23.556 -16.802  0.00  0.00    -0.328 NA
ATOM      3  N   UNL     1      33.701 -24.435 -14.711  0.00  0.00    -0.343 NA
ATOM      4  N   UNL     1      35.502 -20.595 -19.818  0.00  0.00    -0.239 N 
ATOM      5  N   UNL     1      35.146 -21.366 -18.777  0.00  0.00    -0.166 NA
ATOM      6  C   UNL     1      32.188 -23.309 -16.192  0.00  0.00    +0.143 C 
ATOM      7  C   UNL     1      33.264 -23.124 -17.055  0.00  0.00    +0.185 C 
ATOM      8  C   UNL     1      32.464 -23.991 -14.995  0.00  0.00    +0.133 C 
ATOM      9  C   UNL     1      34.658 -24.194 -15.629  0.00  0.00    +0.138 C 
ATOM     10  C   UNL     1      33.902 -21.645 -19.073  0.00  0.00    +0.152 C 
ATOM     11  C   UNL     1      30.891 -22.848 -16.479  0.00  0.00    -0.011 C 
ATOM     12  C   UNL     1      31.412 -24.194 -14.106  0.00  0.00    +0.029 C 
ATOM     13  C   UNL     1      33.422 -21.101 -20.252  0.00  0.00    +0.048 C 
ATOM     14  C   UNL     1      34.505 -20.404 -20.730  0.00  0.00    +0.046 C 
ATOM     15  C   UNL     1      29.859 -23.066 -15.571  0.00  0.00    -0.004 C 
ATOM     16  C   UNL     1      30.120 -23.739 -14.383  0.00  0.00    +0.002 C 
ATOM     17  C   UNL     1      34.695 -19.590 -21.941  0.00  0.00    +0.049 C 
ATOM     18  H   UNL     1      32.155 -22.554 -18.651  0.00  0.00    +0.156 HD
ATOM     19  H   UNL     1      36.400 -20.202 -19.914  0.00  0.00    +0.174 HD
ENDROOT
BRANCH   9  20
ATOM     20  C   UNL     1      35.979 -24.673 -15.317  0.00  0.00    +0.086 C 
ATOM     21  C   UNL     1      37.055 -23.784 -15.254  0.00  0.00    +0.012 C 
ATOM     22  C   UNL     1      36.195 -26.033 -15.075  0.00  0.00    +0.012 C 
ATOM     23  C   UNL     1      38.335 -24.248 -14.950  0.00  0.00    +0.001 C 
ATOM     24  C   UNL     1      37.474 -26.498 -14.771  0.00  0.00    +0.001 C 
ATOM     25  C   UNL     1      38.545 -25.606 -14.708  0.00  0.00    +0.000 C 
ENDBRANCH   9  20
TORSDOF 1
ENDMDL
MODEL 3
REMARK VINA RESULT:     -11.2      1.192      4.940
REMARK  Name = 6419766
REMARK  1 active torsions:
REMARK  status: ('A' for Active; 'I' for Inactive)
REMARK    1  A    between atoms: C_9  and  C_20
REMARK                            x       y       z     vdW  Elec       q    Type
REMARK                         _______ _______ _______ _____ _____    ______ ____
ROOT
ATOM      1  N   UNL     1      35.818 -23.325 -16.106  0.00  0.00    -0.274 N 
ATOM      2  N   UNL     1      33.469 -23.448 -16.169  0.00  0.00    -0.328 NA
ATOM      3  N   UNL     1      32.234 -22.446 -17.978  0.00  0.00    -0.343 NA
ATOM      4  N   UNL     1      36.079 -23.673 -12.707  0.00  0.00    -0.239 N 
ATOM      5  N   UNL     1      35.293 -23.417 -13.766  0.00  0.00    -0.166 NA
ATOM      6  C   UNL     1      34.627 -22.298 -17.951  0.00  0.00    +0.143 C 
ATOM      7  C   UNL     1      34.599 -23.016 -16.759  0.00  0.00    +0.185 C 
ATOM      8  C   UNL     1      33.381 -22.029 -18.541  0.00  0.00    +0.133 C 
ATOM      9  C   UNL     1      32.340 -23.133 -16.822  0.00  0.00    +0.138 C 
ATOM     10  C   UNL     1      36.148 -23.510 -14.754  0.00  0.00    +0.152 C 
ATOM     11  C   UNL     1      35.821 -21.858 -18.549  0.00  0.00    -0.011 C 
ATOM     12  C   UNL     1      33.369 -21.313 -19.735  0.00  0.00    +0.029 C 
ATOM     13  C   UNL     1      37.452 -23.813 -14.401  0.00  0.00    +0.048 C 
ATOM     14  C   UNL     1      37.382 -23.916 -13.033  0.00  0.00    +0.046 C 
ATOM     15  C   UNL     1      35.778 -21.144 -19.742  0.00  0.00    -0.004 C 
ATOM     16  C   UNL     1      34.551 -20.870 -20.336  0.00  0.00    +0.002 C 
ATOM     17  C   UNL     1      38.402 -24.217 -12.015  0.00  0.00    +0.049 C 
ATOM     18  H   UNL     1      36.581 -23.431 -16.719  0.00  0.00    +0.156 HD
ATOM     19  H   UNL     1      35.746 -23.684 -11.781  0.00  0.00    +0.174 HD
ENDROOT
BRANCH   9  20
ATOM     20  C   UNL     1      31.107 -23.576 -16.226  0.00  0.00    +0.086 C 
ATOM     21  C   UNL     1      29.903 -22.938 -16.538  0.00  0.00    +0.012 C 
ATOM     22  C   UNL     1      31.104 -24.649 -15.330  0.00  0.00    +0.012 C 
ATOM     23  C   UNL     1      28.708 -23.368 -15.962  0.00  0.00    +0.001 C 
ATOM     24  C   UNL     1      29.910 -25.081 -14.753  0.00  0.00    +0.001 C 
ATOM     25  C   UNL     1      28.711 -24.440 -15.069  0.00  0.00    +0.000 C 
ENDBRANCH   9  20
TORSDOF 1
ENDMDL
MODEL 4
REMARK VINA RESULT:     -10.9      1.727      5.248
REMARK  Name = 6419766
REMARK  1 active torsions:
REMARK  status: ('A' for Active; 'I' for Inactive)
REMARK    1  A    between atoms: C_9  and  C_20
REMARK                            x       y       z     vdW  Elec       q    Type
REMARK                         _______ _______ _______ _____ _____    ______ ____
ROOT
ATOM      1  N   UNL     1      32.888 -23.826 -16.373  0.00  0.00    -0.274 N 
ATOM      2  N   UNL     1      33.886 -22.432 -17.984  0.00  0.00    -0.328 NA
ATOM      3  N   UNL     1      36.230 -21.888 -17.857  0.00  0.00    -0.343 NA
ATOM      4  N   UNL     1      29.716 -22.600 -16.790  0.00  0.00    -0.239 N 
ATOM      5  N   UNL     1      31.033 -22.443 -17.006  0.00  0.00    -0.166 NA
ATOM      6  C   UNL     1      35.251 -23.312 -16.195  0.00  0.00    +0.143 C 
ATOM      7  C   UNL     1      34.042 -23.168 -16.868  0.00  0.00    +0.185 C 
ATOM      8  C   UNL     1      36.351 -22.632 -16.744  0.00  0.00    +0.133 C 
ATOM      9  C   UNL     1      35.004 -21.827 -18.417  0.00  0.00    +0.138 C 
ATOM     10  C   UNL     1      31.521 -23.510 -16.427  0.00  0.00    +0.152 C 
ATOM     11  C   UNL     1      35.389 -24.088 -15.030  0.00  0.00    -0.011 C 
ATOM     12  C   UNL     1      37.578 -22.752 -16.098  0.00  0.00    +0.029 C 
ATOM     13  C   UNL     1      30.597 -24.360 -15.843  0.00  0.00    +0.048 C 
ATOM     14  C   UNL     1      29.402 -23.732 -16.097  0.00  0.00    +0.046 C 
ATOM     15  C   UNL     1      36.627 -24.190 -14.405  0.00  0.00    -0.004 C 
ATOM     16  C   UNL     1      37.723 -23.521 -14.939  0.00  0.00    +0.002 C 
ATOM     17  C   UNL     1      28.014 -24.086 -15.759  0.00  0.00    +0.049 C 
ATOM     18  H   UNL     1      33.083 -24.666 -15.899  0.00  0.00    +0.156 HD
ATOM     19  H   UNL     1      29.040 -21.956 -17.103  0.00  0.00    +0.174 HD
ENDROOT
BRANCH   9  20
ATOM     20  C   UNL     1      34.884 -21.029 -19.608  0.00  0.00    +0.086 C 
ATOM     21  C   UNL     1      33.622 -20.687 -20.103  0.00  0.00    +0.012 C 
ATOM     22  C   UNL     1      36.029 -20.588 -20.279  0.00  0.00    +0.012 C 
ATOM     23  C   UNL     1      33.505 -19.912 -21.257  0.00  0.00    +0.001 C 
ATOM     24  C   UNL     1      35.913 -19.813 -21.432  0.00  0.00    +0.001 C 
ATOM     25  C   UNL     1      34.651 -19.474 -21.922  0.00  0.00    +0.000 C 
ENDBRANCH   9  20
TORSDOF 1
ENDMDL
MODEL 5
REMARK VINA RESULT:     -10.8      1.995      6.091
REMARK  Name = 6419766
REMARK  1 active torsions:
REMARK  status: ('A' for Active; 'I' for Inactive)
REMARK    1  A    between atoms: C_9  and  C_20
REMARK                            x       y       z     vdW  Elec       q    Type
REMARK                         _______ _______ _______ _____ _____    ______ ____
ROOT
ATOM      1  N   UNL     1      35.935 -22.296 -15.889  0.00  0.00    -0.274 N 
ATOM      2  N   UNL     1      33.834 -23.117 -15.218  0.00  0.00    -0.328 NA
ATOM      3  N   UNL     1      33.592 -24.335 -13.154  0.00  0.00    -0.343 NA
ATOM      4  N   UNL     1      35.212 -22.228 -19.237  0.00  0.00    -0.239 N 
ATOM      5  N   UNL     1      34.879 -22.665 -18.012  0.00  0.00    -0.166 NA
ATOM      6  C   UNL     1      35.751 -23.515 -13.801  0.00  0.00    +0.143 C 
ATOM      7  C   UNL     1      35.146 -22.997 -14.942  0.00  0.00    +0.185 C 
ATOM      8  C   UNL     1      34.907 -24.198 -12.909  0.00  0.00    +0.133 C 
ATOM      9  C   UNL     1      33.127 -23.788 -14.295  0.00  0.00    +0.138 C 
ATOM     10  C   UNL     1      35.827 -22.136 -17.279  0.00  0.00    +0.152 C 
ATOM     11  C   UNL     1      37.125 -23.377 -13.535  0.00  0.00    -0.011 C 
ATOM     12  C   UNL     1      35.476 -24.730 -11.756  0.00  0.00    +0.029 C 
ATOM     13  C   UNL     1      36.764 -21.376 -17.957  0.00  0.00    +0.048 C 
ATOM     14  C   UNL     1      36.334 -21.452 -19.260  0.00  0.00    +0.046 C 
ATOM     15  C   UNL     1      37.666 -23.920 -12.374  0.00  0.00    -0.004 C 
ATOM     16  C   UNL     1      36.842 -24.598 -11.483  0.00  0.00    +0.002 C 
ATOM     17  C   UNL     1      36.865 -20.876 -20.506  0.00  0.00    +0.049 C 
ATOM     18  H   UNL     1      36.707 -21.831 -15.494  0.00  0.00    +0.156 HD
ATOM     19  H   UNL     1      34.695 -22.448 -20.045  0.00  0.00    +0.174 HD
ENDROOT
BRANCH   9  20
ATOM     20  C   UNL     1      31.718 -23.940 -14.549  0.00  0.00    +0.086 C 
ATOM     21  C   UNL     1      30.986 -22.890 -15.111  0.00  0.00    +0.012 C 
ATOM     22  C   UNL     1      31.072 -25.140 -14.237  0.00  0.00    +0.012 C 
ATOM     23  C   UNL     1      29.622 -23.037 -15.359  0.00  0.00    +0.001 C 
ATOM     24  C   UNL     1      29.708 -25.288 -14.485  0.00  0.00    +0.001 C 
ATOM     25  C   UNL     1      28.982 -24.237 -15.046  0.00  0.00    +0.000 C 
ENDBRANCH   9  20
TORSDOF 1
ENDMDL
MODEL 6
REMARK VINA RESULT:      -9.8      1.667      5.298
REMARK  Name = 6419766
REMARK  1 active torsions:
REMARK  status: ('A' for Active; 'I' for Inactive)
REMARK    1  A    between atoms: C_9  and  C_20
REMARK                            x       y       z     vdW  Elec       q    Type
REMARK                         _______ _______ _______ _____ _____    ______ ____
ROOT
ATOM      1  N   UNL     1      33.199 -24.659 -14.237  0.00  0.00    -0.274 N 
ATOM      2  N   UNL     1      34.434 -23.459 -15.840  0.00  0.00    -0.328 NA
ATOM      3  N   UNL     1      36.657 -22.675 -15.345  0.00  0.00    -0.343 NA
ATOM      4  N   UNL     1      30.123 -23.835 -15.501  0.00  0.00    -0.239 N 
ATOM      5  N   UNL     1      31.443 -23.587 -15.472  0.00  0.00    -0.166 NA
ATOM      6  C   UNL     1      35.433 -23.895 -13.683  0.00  0.00    +0.143 C 
ATOM      7  C   UNL     1      34.390 -23.983 -14.601  0.00  0.00    +0.185 C 
ATOM      8  C   UNL     1      36.581 -23.210 -14.114  0.00  0.00    +0.133 C 
ATOM      9  C   UNL     1      35.580 -22.828 -16.142  0.00  0.00    +0.138 C 
ATOM     10  C   UNL     1      31.859 -24.492 -14.622  0.00  0.00    +0.152 C 
ATOM     11  C   UNL     1      35.363 -24.451 -12.393  0.00  0.00    -0.011 C 
ATOM     12  C   UNL     1      37.645 -23.101 -13.223  0.00  0.00    +0.029 C 
ATOM     13  C   UNL     1      30.885 -25.320 -14.091  0.00  0.00    +0.048 C 
ATOM     14  C   UNL     1      29.736 -24.862 -14.691  0.00  0.00    +0.046 C 
ATOM     15  C   UNL     1      36.442 -24.326 -11.524  0.00  0.00    -0.004 C 
ATOM     16  C   UNL     1      37.584 -23.651 -11.938  0.00  0.00    +0.002 C 
ATOM     17  C   UNL     1      28.332 -25.289 -14.581  0.00  0.00    +0.049 C 
ATOM     18  H   UNL     1      33.338 -25.386 -13.589  0.00  0.00    +0.156 HD
ATOM     19  H   UNL     1      29.492 -23.321 -16.055  0.00  0.00    +0.174 HD
ENDROOT
BRANCH   9  20
ATOM     20  C   UNL     1      35.671 -22.253 -17.458  0.00  0.00    +0.086 C 
ATOM     21  C   UNL     1      36.843 -21.611 -17.868  0.00  0.00    +0.012 C 
ATOM     22  C   UNL     1      34.586 -22.333 -18.337  0.00  0.00    +0.012 C 
ATOM     23  C   UNL     1      36.931 -21.055 -19.144  0.00  0.00    +0.001 C 
ATOM     24  C   UNL     1      34.674 -21.778 -19.613  0.00  0.00    +0.001 C 
ATOM     25  C   UNL     1      35.847 -21.139 -20.017  0.00  0.00    +0.000 C 
ENDBRANCH   9  20
TORSDOF 1
ENDMDL
MODEL 7
REMARK VINA RESULT:      -9.6      1.585      6.521
REMARK  Name = 6419766
REMARK  1 active torsions:
REMARK  status: ('A' for Active; 'I' for Inactive)
REMARK    1  A    between atoms: C_9  and  C_20
REMARK                            x       y       z     vdW  Elec       q    Type
REMARK                         _______ _______ _______ _____ _____    ______ ____
ROOT
ATOM      1  N   UNL     1      32.660 -23.015 -16.291  0.00  0.00    -0.274 N 
ATOM      2  N   UNL     1      34.769 -23.303 -15.287  0.00  0.00    -0.328 NA
ATOM      3  N   UNL     1      36.783 -22.713 -16.469  0.00  0.00    -0.343 NA
ATOM      4  N   UNL     1      31.072 -25.408 -14.422  0.00  0.00    -0.239 N 
ATOM      5  N   UNL     1      32.234 -24.874 -14.835  0.00  0.00    -0.166 NA
ATOM      6  C   UNL     1      34.654 -22.403 -17.527  0.00  0.00    +0.143 C 
ATOM      7  C   UNL     1      34.071 -22.905 -16.368  0.00  0.00    +0.185 C 
ATOM      8  C   UNL     1      36.057 -22.324 -17.531  0.00  0.00    +0.133 C 
ATOM      9  C   UNL     1      36.101 -23.181 -15.405  0.00  0.00    +0.138 C 
ATOM     10  C   UNL     1      31.814 -23.900 -15.602  0.00  0.00    +0.152 C 
ATOM     11  C   UNL     1      33.903 -21.994 -18.644  0.00  0.00    -0.011 C 
ATOM     12  C   UNL     1      36.676 -21.827 -18.675  0.00  0.00    +0.029 C 
ATOM     13  C   UNL     1      30.441 -23.764 -15.715  0.00  0.00    +0.048 C 
ATOM     14  C   UNL     1      29.968 -24.781 -14.921  0.00  0.00    +0.046 C 
ATOM     15  C   UNL     1      34.549 -21.502 -19.773  0.00  0.00    -0.004 C 
ATOM     16  C   UNL     1      35.937 -21.418 -19.789  0.00  0.00    +0.002 C 
ATOM     17  C   UNL     1      28.601 -25.214 -14.588  0.00  0.00    +0.049 C 
ATOM     18  H   UNL     1      32.180 -22.341 -16.823  0.00  0.00    +0.156 HD
ATOM     19  H   UNL     1      31.022 -26.181 -13.815  0.00  0.00    +0.174 HD
ENDROOT
BRANCH   9  20
ATOM     20  C   UNL     1      36.887 -23.595 -14.272  0.00  0.00    +0.086 C 
ATOM     21  C   UNL     1      36.580 -23.125 -12.992  0.00  0.00    +0.012 C 
ATOM     22  C   UNL     1      37.963 -24.471 -14.444  0.00  0.00    +0.012 C 
ATOM     23  C   UNL     1      37.340 -23.528 -11.894  0.00  0.00    +0.001 C 
ATOM     24  C   UNL     1      38.723 -24.874 -13.347  0.00  0.00    +0.001 C 
ATOM     25  C   UNL     1      38.412 -24.402 -12.071  0.00  0.00    +0.000 C 
ENDBRANCH   9  20
TORSDOF 1
ENDMDL
