MODEL 1
REMARK VINA RESULT:     -11.5      0.000      0.000
REMARK  Name = 448903
REMARK  11 active torsions:
REMARK  status: ('A' for Active; 'I' for Inactive)
REMARK    1  A    between atoms: N_1  and  C_22
REMARK    2  A    between atoms: C_8  and  N_11
REMARK    3  A    between atoms: C_12  and  C_14
REMARK    4  A    between atoms: C_14  and  C_15
REMARK    5  A    between atoms: C_15  and  C_16
REMARK    6  A    between atoms: C_22  and  C_23
REMARK    7  A    between atoms: C_23  and  C_24
REMARK    8  A    between atoms: C_24  and  N_25
REMARK    9  A    between atoms: C_24  and  C_35
REMARK   10  A    between atoms: C_29  and  C_32
REMARK   11  A    between atoms: C_35  and  O_36
REMARK                            x       y       z     vdW  Elec       q    Type
REMARK                         _______ _______ _______ _____ _____    ______ ____
ROOT
ATOM      1  N   UNL     1      34.417 -24.116 -14.532  0.00  0.00    -0.286 N 
ATOM      2  C   UNL     1      35.370 -23.447 -15.268  0.00  0.00    +0.053 C 
ATOM      3  C   UNL     1      36.579 -23.569 -14.580  0.00  0.00    +0.015 C 
ATOM      4  C   UNL     1      34.982 -24.654 -13.407  0.00  0.00    +0.065 C 
ATOM      5  C   UNL     1      36.319 -24.333 -13.409  0.00  0.00    +0.017 C 
ATOM      6  C   UNL     1      35.254 -22.752 -16.477  0.00  0.00    +0.029 C 
ATOM      7  C   UNL     1      37.732 -22.966 -15.124  0.00  0.00    +0.003 C 
ATOM      8  C   UNL     1      36.411 -22.164 -16.997  0.00  0.00    +0.052 C 
ATOM      9  C   UNL     1      37.632 -22.269 -16.333  0.00  0.00    +0.015 C 
ENDROOT
BRANCH   8  11
ATOM     10  O   UNL     1      34.855 -22.744 -19.504  0.00  0.00    -0.275 OA
ATOM     11  N   UNL     1      36.340 -21.462 -18.202  0.00  0.00    -0.284 N 
ATOM     12  C   UNL     1      35.585 -21.770 -19.340  0.00  0.00    +0.226 C 
ATOM     13  H   UNL     1      36.891 -20.648 -18.259  0.00  0.00    +0.155 HD
BRANCH  12  14
ATOM     14  C   UNL     1      35.775 -20.757 -20.458  0.00  0.00    +0.090 C 
BRANCH  14  15
ATOM     15  C   UNL     1      34.497 -19.960 -20.722  0.00  0.00    +0.036 C 
BRANCH  15  16
ATOM     16  C   UNL     1      34.676 -18.864 -21.744  0.00  0.00    -0.022 C 
ATOM     17  C   UNL     1      34.695 -17.529 -21.340  0.00  0.00    -0.004 C 
ATOM     18  C   UNL     1      34.824 -19.186 -23.094  0.00  0.00    -0.004 C 
ATOM     19  C   UNL     1      34.860 -16.516 -22.284  0.00  0.00    -0.000 C 
ATOM     20  C   UNL     1      34.989 -18.173 -24.038  0.00  0.00    -0.000 C 
ATOM     21  C   UNL     1      35.007 -16.838 -23.634  0.00  0.00    -0.000 C 
ENDBRANCH  15  16
ENDBRANCH  14  15
ENDBRANCH  12  14
ENDBRANCH   8  11
BRANCH   1  22
ATOM     22  C   UNL     1      33.019 -24.240 -14.882  0.00  0.00    +0.097 C 
BRANCH  22  23
ATOM     23  C   UNL     1      32.174 -22.999 -14.564  0.00  0.00    +0.040 C 
BRANCH  23  24
ATOM     24  C   UNL     1      30.693 -23.282 -14.225  0.00  0.00    +0.091 C 
BRANCH  24  25
ATOM     25  N   UNL     1      29.760 -22.894 -15.296  0.00  0.00    -0.246 NA
ATOM     26  N   UNL     1      28.877 -22.382 -17.269  0.00  0.00    -0.251 NA
ATOM     27  C   UNL     1      28.428 -22.597 -15.154  0.00  0.00    +0.125 C 
ATOM     28  C   UNL     1      29.999 -22.756 -16.581  0.00  0.00    +0.201 C 
ATOM     29  C   UNL     1      27.858 -22.276 -16.365  0.00  0.00    +0.124 C 
BRANCH  29  32
ATOM     30  O   UNL     1      25.569 -21.989 -15.849  0.00  0.00    -0.269 OA
ATOM     31  N   UNL     1      26.244 -21.410 -17.948  0.00  0.00    -0.324 N 
ATOM     32  C   UNL     1      26.516 -21.910 -16.668  0.00  0.00    +0.257 C 
ATOM     33  H   UNL     1      25.326 -21.148 -18.188  0.00  0.00    +0.145 HD
ATOM     34  H   UNL     1      26.970 -21.322 -18.607  0.00  0.00    +0.145 HD
ENDBRANCH  29  32
ENDBRANCH  24  25
BRANCH  24  35
ATOM     35  C   UNL     1      30.496 -24.760 -13.851  0.00  0.00    +0.153 C 
BRANCH  35  36
ATOM     36  O   UNL     1      30.397 -24.888 -12.437  0.00  0.00    -0.381 OA
ATOM     37  H   UNL     1      30.246 -24.015 -12.043  0.00  0.00    +0.210 HD
ENDBRANCH  35  36
ENDBRANCH  24  35
ENDBRANCH  23  24
ENDBRANCH  22  23
ENDBRANCH   1  22
TORSDOF 11
ENDMDL
MODEL 2
REMARK VINA RESULT:     -11.2      6.970     12.225
REMARK  Name = 448903
REMARK  11 active torsions:
REMARK  status: ('A' for Active; 'I' for Inactive)
REMARK    1  A    between atoms: N_1  and  C_22
REMARK    2  A    between atoms: C_8  and  N_11
REMARK    3  A    between atoms: C_12  and  C_14
REMARK    4  A    between atoms: C_14  and  C_15
REMARK    5  A    between atoms: C_15  and  C_16
REMARK    6  A    between atoms: C_22  and  C_23
REMARK    7  A    between atoms: C_23  and  C_24
REMARK    8  A    between atoms: C_24  and  N_25
REMARK    9  A    between atoms: C_24  and  C_35
REMARK   10  A    between atoms: C_29  and  C_32
REMARK   11  A    between atoms: C_35  and  O_36
REMARK                            x       y       z     vdW  Elec       q    Type
REMARK                         _______ _______ _______ _____ _____    ______ ____
ROOT
ATOM      1  N   UNL     1      33.723 -14.390 -24.123  0.00  0.00    -0.286 N 
ATOM      2  C   UNL     1      34.215 -15.670 -23.997  0.00  0.00    +0.053 C 
ATOM      3  C   UNL     1      33.952 -16.330 -25.200  0.00  0.00    +0.015 C 
ATOM      4  C   UNL     1      33.163 -14.218 -25.359  0.00  0.00    +0.065 C 
ATOM      5  C   UNL     1      33.289 -15.401 -26.050  0.00  0.00    +0.017 C 
ATOM      6  C   UNL     1      34.864 -16.287 -22.922  0.00  0.00    +0.029 C 
ATOM      7  C   UNL     1      34.357 -17.673 -25.339  0.00  0.00    +0.003 C 
ATOM      8  C   UNL     1      35.257 -17.620 -23.084  0.00  0.00    +0.052 C 
ATOM      9  C   UNL     1      35.009 -18.303 -24.273  0.00  0.00    +0.015 C 
ENDROOT
BRANCH   8  11
ATOM     10  O   UNL     1      34.303 -19.802 -21.249  0.00  0.00    -0.275 OA
ATOM     11  N   UNL     1      35.909 -18.272 -22.037  0.00  0.00    -0.284 N 
ATOM     12  C   UNL     1      35.422 -19.298 -21.217  0.00  0.00    +0.226 C 
ATOM     13  H   UNL     1      36.829 -17.974 -21.850  0.00  0.00    +0.155 HD
BRANCH  12  14
ATOM     14  C   UNL     1      36.439 -19.751 -20.182  0.00  0.00    +0.090 C 
BRANCH  14  15
ATOM     15  C   UNL     1      36.519 -21.275 -20.098  0.00  0.00    +0.036 C 
BRANCH  15  16
ATOM     16  C   UNL     1      35.956 -21.834 -18.813  0.00  0.00    -0.022 C 
ATOM     17  C   UNL     1      36.734 -21.842 -17.656  0.00  0.00    -0.004 C 
ATOM     18  C   UNL     1      34.657 -22.341 -18.784  0.00  0.00    -0.004 C 
ATOM     19  C   UNL     1      36.214 -22.359 -16.469  0.00  0.00    -0.000 C 
ATOM     20  C   UNL     1      34.137 -22.858 -17.597  0.00  0.00    -0.000 C 
ATOM     21  C   UNL     1      34.915 -22.866 -16.439  0.00  0.00    -0.000 C 
ENDBRANCH  15  16
ENDBRANCH  14  15
ENDBRANCH  12  14
ENDBRANCH   8  11
BRANCH   1  22
ATOM     22  C   UNL     1      33.783 -13.363 -23.105  0.00  0.00    +0.097 C 
BRANCH  22  23
ATOM     23  C   UNL     1      32.479 -12.575 -22.924  0.00  0.00    +0.040 C 
BRANCH  23  24
ATOM     24  C   UNL     1      32.563 -11.074 -23.282  0.00  0.00    +0.091 C 
BRANCH  24  25
ATOM     25  N   UNL     1      32.314 -10.181 -22.138  0.00  0.00    -0.246 NA
ATOM     26  N   UNL     1      31.696  -9.371 -20.165  0.00  0.00    -0.251 NA
ATOM     27  C   UNL     1      32.628  -8.848 -22.056  0.00  0.00    +0.125 C 
ATOM     28  C   UNL     1      31.755 -10.465 -20.984  0.00  0.00    +0.201 C 
ATOM     29  C   UNL     1      32.254  -8.323 -20.841  0.00  0.00    +0.124 C 
BRANCH  29  32
ATOM     30  O   UNL     1      32.885  -6.719 -19.222  0.00  0.00    -0.269 OA
ATOM     31  N   UNL     1      31.977  -5.939 -21.162  0.00  0.00    -0.324 N 
ATOM     32  C   UNL     1      32.393  -6.996 -20.343  0.00  0.00    +0.257 C 
ATOM     33  H   UNL     1      32.061  -5.010 -20.847  0.00  0.00    +0.145 HD
ATOM     34  H   UNL     1      31.602  -6.125 -22.053  0.00  0.00    +0.145 HD
ENDBRANCH  29  32
ENDBRANCH  24  25
BRANCH  24  35
ATOM     35  C   UNL     1      33.918 -10.748 -23.932  0.00  0.00    +0.153 C 
BRANCH  35  36
ATOM     36  O   UNL     1      33.807 -10.847 -25.348  0.00  0.00    -0.381 OA
ATOM     37  H   UNL     1      34.511 -11.421 -25.688  0.00  0.00    +0.210 HD
ENDBRANCH  35  36
ENDBRANCH  24  35
ENDBRANCH  23  24
ENDBRANCH  22  23
ENDBRANCH   1  22
TORSDOF 11
ENDMDL
MODEL 3
REMARK VINA RESULT:     -11.1      2.977      6.888
REMARK  Name = 448903
REMARK  11 active torsions:
REMARK  status: ('A' for Active; 'I' for Inactive)
REMARK    1  A    between atoms: N_1  and  C_22
REMARK    2  A    between atoms: C_8  and  N_11
REMARK    3  A    between atoms: C_12  and  C_14
REMARK    4  A    between atoms: C_14  and  C_15
REMARK    5  A    between atoms: C_15  and  C_16
REMARK    6  A    between atoms: C_22  and  C_23
REMARK    7  A    between atoms: C_23  and  C_24
REMARK    8  A    between atoms: C_24  and  N_25
REMARK    9  A    between atoms: C_24  and  C_35
REMARK   10  A    between atoms: C_29  and  C_32
REMARK   11  A    between atoms: C_35  and  O_36
REMARK                            x       y       z     vdW  Elec       q    Type
REMARK                         _______ _______ _______ _____ _____    ______ ____
ROOT
ATOM      1  N   UNL     1      32.668 -24.666 -14.227  0.00  0.00    -0.286 N 
ATOM      2  C   UNL     1      32.268 -23.908 -15.305  0.00  0.00    +0.053 C 
ATOM      3  C   UNL     1      30.873 -23.847 -15.268  0.00  0.00    +0.015 C 
ATOM      4  C   UNL     1      31.578 -25.083 -13.512  0.00  0.00    +0.065 C 
ATOM      5  C   UNL     1      30.453 -24.593 -14.131  0.00  0.00    +0.017 C 
ATOM      6  C   UNL     1      33.026 -23.280 -16.299  0.00  0.00    +0.029 C 
ATOM      7  C   UNL     1      30.199 -23.124 -16.272  0.00  0.00    +0.003 C 
ATOM      8  C   UNL     1      32.336 -22.567 -17.284  0.00  0.00    +0.052 C 
ATOM      9  C   UNL     1      30.944 -22.489 -17.272  0.00  0.00    +0.015 C 
ENDROOT
BRANCH   8  11
ATOM     10  O   UNL     1      34.025 -23.696 -19.500  0.00  0.00    -0.275 OA
ATOM     11  N   UNL     1      33.054 -21.924 -18.294  0.00  0.00    -0.284 N 
ATOM     12  C   UNL     1      33.818 -22.500 -19.315  0.00  0.00    +0.226 C 
ATOM     13  H   UNL     1      33.019 -20.939 -18.286  0.00  0.00    +0.155 HD
BRANCH  12  14
ATOM     14  C   UNL     1      34.453 -21.461 -20.226  0.00  0.00    +0.090 C 
BRANCH  14  15
ATOM     15  C   UNL     1      33.481 -20.325 -20.549  0.00  0.00    +0.036 C 
BRANCH  15  16
ATOM     16  C   UNL     1      34.096 -19.233 -21.391  0.00  0.00    -0.022 C 
ATOM     17  C   UNL     1      34.716 -19.550 -22.599  0.00  0.00    -0.004 C 
ATOM     18  C   UNL     1      34.043 -17.907 -20.961  0.00  0.00    -0.004 C 
ATOM     19  C   UNL     1      35.285 -18.541 -23.377  0.00  0.00    -0.000 C 
ATOM     20  C   UNL     1      34.611 -16.898 -21.739  0.00  0.00    -0.000 C 
ATOM     21  C   UNL     1      35.232 -17.215 -22.947  0.00  0.00    -0.000 C 
ENDBRANCH  15  16
ENDBRANCH  14  15
ENDBRANCH  12  14
ENDBRANCH   8  11
BRANCH   1  22
ATOM     22  C   UNL     1      34.038 -24.984 -13.885  0.00  0.00    +0.097 C 
BRANCH  22  23
ATOM     23  C   UNL     1      34.698 -23.987 -12.924  0.00  0.00    +0.040 C 
BRANCH  23  24
ATOM     24  C   UNL     1      36.036 -24.455 -12.309  0.00  0.00    +0.091 C 
BRANCH  24  25
ATOM     25  N   UNL     1      37.142 -24.511 -13.280  0.00  0.00    -0.246 NA
ATOM     26  N   UNL     1      38.529 -24.060 -14.955  0.00  0.00    -0.251 NA
ATOM     27  C   UNL     1      38.129 -25.462 -13.344  0.00  0.00    +0.125 C 
ATOM     28  C   UNL     1      37.412 -23.681 -14.263  0.00  0.00    +0.201 C 
ATOM     29  C   UNL     1      39.001 -25.205 -14.376  0.00  0.00    +0.124 C 
BRANCH  29  32
ATOM     30  O   UNL     1      40.559 -25.973 -15.980  0.00  0.00    -0.269 OA
ATOM     31  N   UNL     1      40.890 -26.613 -13.817  0.00  0.00    -0.324 N 
ATOM     32  C   UNL     1      40.154 -25.929 -14.793  0.00  0.00    +0.257 C 
ATOM     33  H   UNL     1      41.692 -27.123 -14.074  0.00  0.00    +0.145 HD
ATOM     34  H   UNL     1      40.606 -26.584 -12.875  0.00  0.00    +0.145 HD
ENDBRANCH  29  32
ENDBRANCH  24  25
BRANCH  24  35
ATOM     35  C   UNL     1      36.419 -23.572 -11.110  0.00  0.00    +0.153 C 
BRANCH  35  36
ATOM     36  O   UNL     1      36.111 -24.251  -9.897  0.00  0.00    -0.381 OA
ATOM     37  H   UNL     1      36.487 -25.145  -9.923  0.00  0.00    +0.210 HD
ENDBRANCH  35  36
ENDBRANCH  24  35
ENDBRANCH  23  24
ENDBRANCH  22  23
ENDBRANCH   1  22
TORSDOF 11
ENDMDL
MODEL 4
REMARK VINA RESULT:     -11.1      5.600     10.887
REMARK  Name = 448903
REMARK  11 active torsions:
REMARK  status: ('A' for Active; 'I' for Inactive)
REMARK    1  A    between atoms: N_1  and  C_22
REMARK    2  A    between atoms: C_8  and  N_11
REMARK    3  A    between atoms: C_12  and  C_14
REMARK    4  A    between atoms: C_14  and  C_15
REMARK    5  A    between atoms: C_15  and  C_16
REMARK    6  A    between atoms: C_22  and  C_23
REMARK    7  A    between atoms: C_23  and  C_24
REMARK    8  A    between atoms: C_24  and  N_25
REMARK    9  A    between atoms: C_24  and  C_35
REMARK   10  A    between atoms: C_29  and  C_32
REMARK   11  A    between atoms: C_35  and  O_36
REMARK                            x       y       z     vdW  Elec       q    Type
REMARK                         _______ _______ _______ _____ _____    ______ ____
ROOT
ATOM      1  N   UNL     1      34.521 -16.402 -23.377  0.00  0.00    -0.286 N 
ATOM      2  C   UNL     1      34.115 -15.248 -24.009  0.00  0.00    +0.053 C 
ATOM      3  C   UNL     1      33.769 -15.597 -25.317  0.00  0.00    +0.015 C 
ATOM      4  C   UNL     1      34.443 -17.464 -24.236  0.00  0.00    +0.065 C 
ATOM      5  C   UNL     1      33.981 -16.998 -25.444  0.00  0.00    +0.017 C 
ATOM      6  C   UNL     1      34.029 -13.936 -23.528  0.00  0.00    +0.029 C 
ATOM      7  C   UNL     1      33.315 -14.588 -26.189  0.00  0.00    +0.003 C 
ATOM      8  C   UNL     1      33.574 -12.953 -24.413  0.00  0.00    +0.052 C 
ATOM      9  C   UNL     1      33.222 -13.272 -25.723  0.00  0.00    +0.015 C 
ENDROOT
BRANCH   8  11
ATOM     10  O   UNL     1      34.992 -10.471 -25.345  0.00  0.00    -0.275 OA
ATOM     11  N   UNL     1      33.472 -11.632 -23.973  0.00  0.00    -0.284 N 
ATOM     12  C   UNL     1      34.149 -10.504 -24.453  0.00  0.00    +0.226 C 
ATOM     13  H   UNL     1      32.844 -11.473 -23.231  0.00  0.00    +0.155 HD
BRANCH  12  14
ATOM     14  C   UNL     1      33.765  -9.234 -23.711  0.00  0.00    +0.090 C 
BRANCH  14  15
ATOM     15  C   UNL     1      32.262  -9.176 -23.431  0.00  0.00    +0.036 C 
BRANCH  15  16
ATOM     16  C   UNL     1      31.898  -9.602 -22.030  0.00  0.00    -0.022 C 
ATOM     17  C   UNL     1      31.167 -10.771 -21.824  0.00  0.00    -0.004 C 
ATOM     18  C   UNL     1      32.293  -8.825 -20.940  0.00  0.00    -0.004 C 
ATOM     19  C   UNL     1      30.830 -11.165 -20.529  0.00  0.00    -0.000 C 
ATOM     20  C   UNL     1      31.956  -9.219 -19.645  0.00  0.00    -0.000 C 
ATOM     21  C   UNL     1      31.224 -10.389 -19.439  0.00  0.00    -0.000 C 
ENDBRANCH  15  16
ENDBRANCH  14  15
ENDBRANCH  12  14
ENDBRANCH   8  11
BRANCH   1  22
ATOM     22  C   UNL     1      34.968 -16.495 -22.003  0.00  0.00    +0.097 C 
BRANCH  22  23
ATOM     23  C   UNL     1      34.768 -17.876 -21.365  0.00  0.00    +0.040 C 
BRANCH  23  24
ATOM     24  C   UNL     1      36.069 -18.637 -21.024  0.00  0.00    +0.091 C 
BRANCH  24  25
ATOM     25  N   UNL     1      35.840 -19.906 -20.314  0.00  0.00    -0.246 NA
ATOM     26  N   UNL     1      36.109 -21.739 -19.089  0.00  0.00    -0.251 NA
ATOM     27  C   UNL     1      34.665 -20.614 -20.258  0.00  0.00    +0.125 C 
ATOM     28  C   UNL     1      36.689 -20.610 -19.600  0.00  0.00    +0.201 C 
ATOM     29  C   UNL     1      34.808 -21.755 -19.504  0.00  0.00    +0.124 C 
BRANCH  29  32
ATOM     30  O   UNL     1      33.945 -23.955 -19.568  0.00  0.00    -0.269 OA
ATOM     31  N   UNL     1      32.753 -22.404 -18.398  0.00  0.00    -0.324 N 
ATOM     32  C   UNL     1      33.850 -22.762 -19.191  0.00  0.00    +0.257 C 
ATOM     33  H   UNL     1      32.074 -23.077 -18.164  0.00  0.00    +0.145 HD
ATOM     34  H   UNL     1      32.661 -21.478 -18.075  0.00  0.00    +0.145 HD
ENDBRANCH  29  32
ENDBRANCH  24  25
BRANCH  24  35
ATOM     35  C   UNL     1      36.906 -18.874 -22.292  0.00  0.00    +0.153 C 
BRANCH  35  36
ATOM     36  O   UNL     1      38.271 -18.571 -22.029  0.00  0.00    -0.381 OA
ATOM     37  H   UNL     1      38.561 -17.854 -22.615  0.00  0.00    +0.210 HD
ENDBRANCH  35  36
ENDBRANCH  24  35
ENDBRANCH  23  24
ENDBRANCH  22  23
ENDBRANCH   1  22
TORSDOF 11
ENDMDL
MODEL 5
REMARK VINA RESULT:     -11.0      4.171      6.448
REMARK  Name = 448903
REMARK  11 active torsions:
REMARK  status: ('A' for Active; 'I' for Inactive)
REMARK    1  A    between atoms: N_1  and  C_22
REMARK    2  A    between atoms: C_8  and  N_11
REMARK    3  A    between atoms: C_12  and  C_14
REMARK    4  A    between atoms: C_14  and  C_15
REMARK    5  A    between atoms: C_15  and  C_16
REMARK    6  A    between atoms: C_22  and  C_23
REMARK    7  A    between atoms: C_23  and  C_24
REMARK    8  A    between atoms: C_24  and  N_25
REMARK    9  A    between atoms: C_24  and  C_35
REMARK   10  A    between atoms: C_29  and  C_32
REMARK   11  A    between atoms: C_35  and  O_36
REMARK                            x       y       z     vdW  Elec       q    Type
REMARK                         _______ _______ _______ _____ _____    ______ ____
ROOT
ATOM      1  N   UNL     1      36.246 -22.934 -16.226  0.00  0.00    -0.286 N 
ATOM      2  C   UNL     1      35.679 -22.437 -17.378  0.00  0.00    +0.053 C 
ATOM      3  C   UNL     1      34.358 -22.892 -17.413  0.00  0.00    +0.015 C 
ATOM      4  C   UNL     1      35.334 -23.682 -15.534  0.00  0.00    +0.065 C 
ATOM      5  C   UNL     1      34.155 -23.675 -16.242  0.00  0.00    +0.017 C 
ATOM      6  C   UNL     1      36.227 -21.630 -18.380  0.00  0.00    +0.029 C 
ATOM      7  C   UNL     1      33.544 -22.524 -18.502  0.00  0.00    +0.003 C 
ATOM      8  C   UNL     1      35.399 -21.277 -19.451  0.00  0.00    +0.052 C 
ATOM      9  C   UNL     1      34.078 -21.715 -19.512  0.00  0.00    +0.015 C 
ENDROOT
BRANCH   8  11
ATOM     10  O   UNL     1      34.321 -18.741 -20.653  0.00  0.00    -0.275 OA
ATOM     11  N   UNL     1      35.906 -20.471 -20.471  0.00  0.00    -0.284 N 
ATOM     12  C   UNL     1      35.369 -19.286 -20.988  0.00  0.00    +0.226 C 
ATOM     13  H   UNL     1      36.749 -20.775 -20.881  0.00  0.00    +0.155 HD
BRANCH  12  14
ATOM     14  C   UNL     1      36.219 -18.697 -22.102  0.00  0.00    +0.090 C 
BRANCH  14  15
ATOM     15  C   UNL     1      35.480 -18.706 -23.441  0.00  0.00    +0.036 C 
BRANCH  15  16
ATOM     16  C   UNL     1      34.908 -17.361 -23.818  0.00  0.00    -0.022 C 
ATOM     17  C   UNL     1      34.959 -16.302 -22.913  0.00  0.00    -0.004 C 
ATOM     18  C   UNL     1      34.329 -17.177 -25.074  0.00  0.00    -0.004 C 
ATOM     19  C   UNL     1      34.430 -15.060 -23.261  0.00  0.00    -0.000 C 
ATOM     20  C   UNL     1      33.799 -15.935 -25.422  0.00  0.00    -0.000 C 
ATOM     21  C   UNL     1      33.850 -14.876 -24.516  0.00  0.00    -0.000 C 
ENDBRANCH  15  16
ENDBRANCH  14  15
ENDBRANCH  12  14
ENDBRANCH   8  11
BRANCH   1  22
ATOM     22  C   UNL     1      37.609 -22.706 -15.794  0.00  0.00    +0.097 C 
BRANCH  22  23
ATOM     23  C   UNL     1      38.514 -23.942 -15.879  0.00  0.00    +0.040 C 
BRANCH  23  24
ATOM     24  C   UNL     1      39.167 -24.370 -14.546  0.00  0.00    +0.091 C 
BRANCH  24  25
ATOM     25  N   UNL     1      38.200 -24.844 -13.541  0.00  0.00    -0.246 NA
ATOM     26  N   UNL     1      37.039 -26.113 -12.137  0.00  0.00    -0.251 NA
ATOM     27  C   UNL     1      37.252 -24.090 -12.897  0.00  0.00    +0.125 C 
ATOM     28  C   UNL     1      38.046 -26.057 -13.061  0.00  0.00    +0.201 C 
ATOM     29  C   UNL     1      36.519 -24.855 -12.020  0.00  0.00    +0.124 C 
BRANCH  29  32
ATOM     30  O   UNL     1      35.329 -24.882  -9.978  0.00  0.00    -0.269 OA
ATOM     31  N   UNL     1      34.491 -23.584 -11.654  0.00  0.00    -0.324 N 
ATOM     32  C   UNL     1      35.450 -24.477 -11.159  0.00  0.00    +0.257 C 
ATOM     33  H   UNL     1      33.740 -23.303 -11.083  0.00  0.00    +0.145 HD
ATOM     34  H   UNL     1      34.569 -23.236 -12.572  0.00  0.00    +0.145 HD
ENDBRANCH  29  32
ENDBRANCH  24  25
BRANCH  24  35
ATOM     35  C   UNL     1      40.251 -25.433 -14.791  0.00  0.00    +0.153 C 
BRANCH  35  36
ATOM     36  O   UNL     1      40.243 -25.819 -16.160  0.00  0.00    -0.381 OA
ATOM     37  H   UNL     1      40.711 -25.152 -16.687  0.00  0.00    +0.210 HD
ENDBRANCH  35  36
ENDBRANCH  24  35
ENDBRANCH  23  24
ENDBRANCH  22  23
ENDBRANCH   1  22
TORSDOF 11
ENDMDL
MODEL 6
REMARK VINA RESULT:     -10.9      7.255     12.261
REMARK  Name = 448903
REMARK  11 active torsions:
REMARK  status: ('A' for Active; 'I' for Inactive)
REMARK    1  A    between atoms: N_1  and  C_22
REMARK    2  A    between atoms: C_8  and  N_11
REMARK    3  A    between atoms: C_12  and  C_14
REMARK    4  A    between atoms: C_14  and  C_15
REMARK    5  A    between atoms: C_15  and  C_16
REMARK    6  A    between atoms: C_22  and  C_23
REMARK    7  A    between atoms: C_23  and  C_24
REMARK    8  A    between atoms: C_24  and  N_25
REMARK    9  A    between atoms: C_24  and  C_35
REMARK   10  A    between atoms: C_29  and  C_32
REMARK   11  A    between atoms: C_35  and  O_36
REMARK                            x       y       z     vdW  Elec       q    Type
REMARK                         _______ _______ _______ _____ _____    ______ ____
ROOT
ATOM      1  N   UNL     1      33.411 -14.315 -23.877  0.00  0.00    -0.286 N 
ATOM      2  C   UNL     1      34.009 -15.555 -23.857  0.00  0.00    +0.053 C 
ATOM      3  C   UNL     1      33.898 -16.084 -25.146  0.00  0.00    +0.015 C 
ATOM      4  C   UNL     1      32.928 -14.043 -25.128  0.00  0.00    +0.065 C 
ATOM      5  C   UNL     1      33.214 -15.118 -25.936  0.00  0.00    +0.017 C 
ATOM      6  C   UNL     1      34.634 -16.241 -22.810  0.00  0.00    +0.029 C 
ATOM      7  C   UNL     1      34.435 -17.362 -25.402  0.00  0.00    +0.003 C 
ATOM      8  C   UNL     1      35.160 -17.507 -23.089  0.00  0.00    +0.052 C 
ATOM      9  C   UNL     1      35.064 -18.059 -24.365  0.00  0.00    +0.015 C 
ENDROOT
BRANCH   8  11
ATOM     10  O   UNL     1      34.114 -19.678 -21.292  0.00  0.00    -0.275 OA
ATOM     11  N   UNL     1      35.793 -18.224 -22.073  0.00  0.00    -0.284 N 
ATOM     12  C   UNL     1      35.261 -19.241 -21.270  0.00  0.00    +0.226 C 
ATOM     13  H   UNL     1      36.732 -17.985 -21.897  0.00  0.00    +0.155 HD
BRANCH  12  14
ATOM     14  C   UNL     1      36.269 -19.780 -20.268  0.00  0.00    +0.090 C 
BRANCH  14  15
ATOM     15  C   UNL     1      36.254 -21.308 -20.218  0.00  0.00    +0.036 C 
BRANCH  15  16
ATOM     16  C   UNL     1      35.811 -21.859 -18.884  0.00  0.00    -0.022 C 
ATOM     17  C   UNL     1      34.530 -22.390 -18.739  0.00  0.00    -0.004 C 
ATOM     18  C   UNL     1      36.685 -21.838 -17.796  0.00  0.00    -0.004 C 
ATOM     19  C   UNL     1      34.121 -22.899 -17.507  0.00  0.00    -0.000 C 
ATOM     20  C   UNL     1      36.275 -22.346 -16.564  0.00  0.00    -0.000 C 
ATOM     21  C   UNL     1      34.993 -22.877 -16.419  0.00  0.00    -0.000 C 
ENDBRANCH  15  16
ENDBRANCH  14  15
ENDBRANCH  12  14
ENDBRANCH   8  11
BRANCH   1  22
ATOM     22  C   UNL     1      33.300 -13.418 -22.747  0.00  0.00    +0.097 C 
BRANCH  22  23
ATOM     23  C   UNL     1      32.176 -12.381 -22.871  0.00  0.00    +0.040 C 
BRANCH  23  24
ATOM     24  C   UNL     1      32.189 -11.267 -21.799  0.00  0.00    +0.091 C 
BRANCH  24  25
ATOM     25  N   UNL     1      32.247  -9.908 -22.364  0.00  0.00    -0.246 NA
ATOM     26  N   UNL     1      32.500  -8.184 -23.740  0.00  0.00    -0.251 NA
ATOM     27  C   UNL     1      31.979  -8.735 -21.705  0.00  0.00    +0.125 C 
ATOM     28  C   UNL     1      32.557  -9.542 -23.587  0.00  0.00    +0.201 C 
ATOM     29  C   UNL     1      32.129  -7.651 -22.537  0.00  0.00    +0.124 C 
BRANCH  29  32
ATOM     30  O   UNL     1      31.928  -5.377 -23.152  0.00  0.00    -0.269 OA
ATOM     31  N   UNL     1      31.770  -5.874 -20.933  0.00  0.00    -0.324 N 
ATOM     32  C   UNL     1      31.952  -6.264 -22.265  0.00  0.00    +0.257 C 
ATOM     33  H   UNL     1      31.644  -4.923 -20.712  0.00  0.00    +0.145 HD
ATOM     34  H   UNL     1      31.767  -6.550 -20.217  0.00  0.00    +0.145 HD
ENDBRANCH  29  32
ENDBRANCH  24  25
BRANCH  24  35
ATOM     35  C   UNL     1      30.981 -11.407 -20.859  0.00  0.00    +0.153 C 
BRANCH  35  36
ATOM     36  O   UNL     1      31.431 -11.526 -19.514  0.00  0.00    -0.381 OA
ATOM     37  H   UNL     1      32.338 -11.869 -19.506  0.00  0.00    +0.210 HD
ENDBRANCH  35  36
ENDBRANCH  24  35
ENDBRANCH  23  24
ENDBRANCH  22  23
ENDBRANCH   1  22
TORSDOF 11
ENDMDL
MODEL 7
REMARK VINA RESULT:     -10.7      8.183     13.148
REMARK  Name = 448903
REMARK  11 active torsions:
REMARK  status: ('A' for Active; 'I' for Inactive)
REMARK    1  A    between atoms: N_1  and  C_22
REMARK    2  A    between atoms: C_8  and  N_11
REMARK    3  A    between atoms: C_12  and  C_14
REMARK    4  A    between atoms: C_14  and  C_15
REMARK    5  A    between atoms: C_15  and  C_16
REMARK    6  A    between atoms: C_22  and  C_23
REMARK    7  A    between atoms: C_23  and  C_24
REMARK    8  A    between atoms: C_24  and  N_25
REMARK    9  A    between atoms: C_24  and  C_35
REMARK   10  A    between atoms: C_29  and  C_32
REMARK   11  A    between atoms: C_35  and  O_36
REMARK                            x       y       z     vdW  Elec       q    Type
REMARK                         _______ _______ _______ _____ _____    ______ ____
ROOT
ATOM      1  N   UNL     1      32.526 -13.369 -22.340  0.00  0.00    -0.286 N 
ATOM      2  C   UNL     1      32.212 -12.200 -21.684  0.00  0.00    +0.053 C 
ATOM      3  C   UNL     1      31.919 -12.538 -20.360  0.00  0.00    +0.015 C 
ATOM      4  C   UNL     1      32.443 -14.430 -21.479  0.00  0.00    +0.065 C 
ATOM      5  C   UNL     1      32.071 -13.949 -20.247  0.00  0.00    +0.017 C 
ATOM      6  C   UNL     1      32.164 -10.883 -22.156  0.00  0.00    +0.029 C 
ATOM      7  C   UNL     1      31.561 -11.512 -19.462  0.00  0.00    +0.003 C 
ATOM      8  C   UNL     1      31.808  -9.883 -21.246  0.00  0.00    +0.052 C 
ATOM      9  C   UNL     1      31.511 -10.191 -19.920  0.00  0.00    +0.015 C 
ENDROOT
BRANCH   8  11
ATOM     10  O   UNL     1      32.670  -7.350 -19.876  0.00  0.00    -0.275 OA
ATOM     11  N   UNL     1      31.750  -8.556 -21.676  0.00  0.00    -0.284 N 
ATOM     12  C   UNL     1      32.180  -7.408 -21.000  0.00  0.00    +0.226 C 
ATOM     13  H   UNL     1      31.356  -8.409 -22.566  0.00  0.00    +0.155 HD
BRANCH  12  14
ATOM     14  C   UNL     1      31.945  -6.138 -21.803  0.00  0.00    +0.090 C 
BRANCH  14  15
ATOM     15  C   UNL     1      31.452  -6.446 -23.217  0.00  0.00    +0.036 C 
BRANCH  15  16
ATOM     16  C   UNL     1      32.463  -6.115 -24.288  0.00  0.00    -0.022 C 
ATOM     17  C   UNL     1      33.698  -6.762 -24.307  0.00  0.00    -0.004 C 
ATOM     18  C   UNL     1      32.160  -5.162 -25.261  0.00  0.00    -0.004 C 
ATOM     19  C   UNL     1      34.632  -6.455 -25.296  0.00  0.00    -0.000 C 
ATOM     20  C   UNL     1      33.094  -4.855 -26.251  0.00  0.00    -0.000 C 
ATOM     21  C   UNL     1      34.330  -5.502 -26.269  0.00  0.00    -0.000 C 
ENDBRANCH  15  16
ENDBRANCH  14  15
ENDBRANCH  12  14
ENDBRANCH   8  11
BRANCH   1  22
ATOM     22  C   UNL     1      32.892 -13.478 -23.736  0.00  0.00    +0.097 C 
BRANCH  22  23
ATOM     23  C   UNL     1      34.282 -14.081 -23.980  0.00  0.00    +0.040 C 
BRANCH  23  24
ATOM     24  C   UNL     1      34.317 -15.272 -24.963  0.00  0.00    +0.091 C 
BRANCH  24  25
ATOM     25  N   UNL     1      34.502 -16.575 -24.303  0.00  0.00    -0.246 NA
ATOM     26  N   UNL     1      34.739 -18.748 -23.910  0.00  0.00    -0.251 NA
ATOM     27  C   UNL     1      34.663 -16.797 -22.958  0.00  0.00    +0.125 C 
ATOM     28  C   UNL     1      34.553 -17.770 -24.848  0.00  0.00    +0.201 C 
ATOM     29  C   UNL     1      34.812 -18.138 -22.690  0.00  0.00    +0.124 C 
BRANCH  29  32
ATOM     30  O   UNL     1      36.005 -18.623 -20.707  0.00  0.00    -0.269 OA
ATOM     31  N   UNL     1      34.006 -19.677 -21.004  0.00  0.00    -0.324 N 
ATOM     32  C   UNL     1      35.004 -18.798 -21.443  0.00  0.00    +0.257 C 
ATOM     33  H   UNL     1      34.108 -20.149 -20.146  0.00  0.00    +0.145 HD
ATOM     34  H   UNL     1      33.201 -19.823 -21.553  0.00  0.00    +0.145 HD
ENDBRANCH  29  32
ENDBRANCH  24  25
BRANCH  24  35
ATOM     35  C   UNL     1      33.053 -15.289 -25.839  0.00  0.00    +0.153 C 
BRANCH  35  36
ATOM     36  O   UNL     1      33.393 -14.946 -27.178  0.00  0.00    -0.381 OA
ATOM     37  H   UNL     1      32.603 -15.007 -27.737  0.00  0.00    +0.210 HD
ENDBRANCH  35  36
ENDBRANCH  24  35
ENDBRANCH  23  24
ENDBRANCH  22  23
ENDBRANCH   1  22
TORSDOF 11
ENDMDL
MODEL 8
REMARK VINA RESULT:     -10.7      5.464     10.167
REMARK  Name = 448903
REMARK  11 active torsions:
REMARK  status: ('A' for Active; 'I' for Inactive)
REMARK    1  A    between atoms: N_1  and  C_22
REMARK    2  A    between atoms: C_8  and  N_11
REMARK    3  A    between atoms: C_12  and  C_14
REMARK    4  A    between atoms: C_14  and  C_15
REMARK    5  A    between atoms: C_15  and  C_16
REMARK    6  A    between atoms: C_22  and  C_23
REMARK    7  A    between atoms: C_23  and  C_24
REMARK    8  A    between atoms: C_24  and  N_25
REMARK    9  A    between atoms: C_24  and  C_35
REMARK   10  A    between atoms: C_29  and  C_32
REMARK   11  A    between atoms: C_35  and  O_36
REMARK                            x       y       z     vdW  Elec       q    Type
REMARK                         _______ _______ _______ _____ _____    ______ ____
ROOT
ATOM      1  N   UNL     1      34.770 -17.275 -22.952  0.00  0.00    -0.286 N 
ATOM      2  C   UNL     1      34.121 -16.170 -23.456  0.00  0.00    +0.053 C 
ATOM      3  C   UNL     1      34.089 -16.313 -24.846  0.00  0.00    +0.015 C 
ATOM      4  C   UNL     1      35.147 -18.108 -23.970  0.00  0.00    +0.065 C 
ATOM      5  C   UNL     1      34.739 -17.541 -25.154  0.00  0.00    +0.017 C 
ATOM      6  C   UNL     1      33.566 -15.068 -22.797  0.00  0.00    +0.029 C 
ATOM      7  C   UNL     1      33.473 -15.307 -25.616  0.00  0.00    +0.003 C 
ATOM      8  C   UNL     1      32.960 -14.082 -23.583  0.00  0.00    +0.052 C 
ATOM      9  C   UNL     1      32.913 -14.199 -24.971  0.00  0.00    +0.015 C 
ENDROOT
BRANCH   8  11
ATOM     10  O   UNL     1      32.381 -13.544 -20.682  0.00  0.00    -0.275 OA
ATOM     11  N   UNL     1      32.393 -12.967 -22.964  0.00  0.00    -0.284 N 
ATOM     12  C   UNL     1      32.156 -12.760 -21.600  0.00  0.00    +0.226 C 
ATOM     13  H   UNL     1      32.125 -12.233 -23.563  0.00  0.00    +0.155 HD
BRANCH  12  14
ATOM     14  C   UNL     1      31.519 -11.409 -21.318  0.00  0.00    +0.090 C 
BRANCH  14  15
ATOM     15  C   UNL     1      31.815 -10.401 -22.429  0.00  0.00    +0.036 C 
BRANCH  15  16
ATOM     16  C   UNL     1      31.871  -8.973 -21.943  0.00  0.00    -0.022 C 
ATOM     17  C   UNL     1      31.460  -7.935 -22.778  0.00  0.00    -0.004 C 
ATOM     18  C   UNL     1      32.334  -8.692 -20.657  0.00  0.00    -0.004 C 
ATOM     19  C   UNL     1      31.512  -6.615 -22.328  0.00  0.00    -0.000 C 
ATOM     20  C   UNL     1      32.386  -7.372 -20.207  0.00  0.00    -0.000 C 
ATOM     21  C   UNL     1      31.974  -6.334 -21.043  0.00  0.00    -0.000 C 
ENDBRANCH  15  16
ENDBRANCH  14  15
ENDBRANCH  12  14
ENDBRANCH   8  11
BRANCH   1  22
ATOM     22  C   UNL     1      35.025 -17.532 -21.550  0.00  0.00    +0.097 C 
BRANCH  22  23
ATOM     23  C   UNL     1      35.616 -18.919 -21.260  0.00  0.00    +0.040 C 
BRANCH  23  24
ATOM     24  C   UNL     1      34.577 -20.029 -20.983  0.00  0.00    +0.091 C 
BRANCH  24  25
ATOM     25  N   UNL     1      34.952 -20.923 -19.875  0.00  0.00    -0.246 NA
ATOM     26  N   UNL     1      36.106 -22.096 -18.383  0.00  0.00    -0.251 NA
ATOM     27  C   UNL     1      34.098 -21.626 -19.064  0.00  0.00    +0.125 C 
ATOM     28  C   UNL     1      36.154 -21.228 -19.439  0.00  0.00    +0.201 C 
ATOM     29  C   UNL     1      34.790 -22.362 -18.130  0.00  0.00    +0.124 C 
BRANCH  29  32
ATOM     30  O   UNL     1      35.035 -23.790 -16.262  0.00  0.00    -0.269 OA
ATOM     31  N   UNL     1      32.917 -23.426 -17.024  0.00  0.00    -0.324 N 
ATOM     32  C   UNL     1      34.300 -23.222 -17.106  0.00  0.00    +0.257 C 
ATOM     33  H   UNL     1      32.547 -24.015 -16.327  0.00  0.00    +0.145 HD
ATOM     34  H   UNL     1      32.315 -22.981 -17.663  0.00  0.00    +0.145 HD
ENDBRANCH  29  32
ENDBRANCH  24  25
BRANCH  24  35
ATOM     35  C   UNL     1      33.187 -19.421 -20.735  0.00  0.00    +0.153 C 
BRANCH  35  36
ATOM     36  O   UNL     1      32.183 -20.306 -21.219  0.00  0.00    -0.381 OA
ATOM     37  H   UNL     1      31.847 -19.981 -22.069  0.00  0.00    +0.210 HD
ENDBRANCH  35  36
ENDBRANCH  24  35
ENDBRANCH  23  24
ENDBRANCH  22  23
ENDBRANCH   1  22
TORSDOF 11
ENDMDL
MODEL 9
REMARK VINA RESULT:     -10.7      7.602     12.238
REMARK  Name = 448903
REMARK  11 active torsions:
REMARK  status: ('A' for Active; 'I' for Inactive)
REMARK    1  A    between atoms: N_1  and  C_22
REMARK    2  A    between atoms: C_8  and  N_11
REMARK    3  A    between atoms: C_12  and  C_14
REMARK    4  A    between atoms: C_14  and  C_15
REMARK    5  A    between atoms: C_15  and  C_16
REMARK    6  A    between atoms: C_22  and  C_23
REMARK    7  A    between atoms: C_23  and  C_24
REMARK    8  A    between atoms: C_24  and  N_25
REMARK    9  A    between atoms: C_24  and  C_35
REMARK   10  A    between atoms: C_29  and  C_32
REMARK   11  A    between atoms: C_35  and  O_36
REMARK                            x       y       z     vdW  Elec       q    Type
REMARK                         _______ _______ _______ _____ _____    ______ ____
ROOT
ATOM      1  N   UNL     1      33.054 -14.830 -22.145  0.00  0.00    -0.286 N 
ATOM      2  C   UNL     1      32.566 -13.570 -21.880  0.00  0.00    +0.053 C 
ATOM      3  C   UNL     1      32.228 -13.538 -20.525  0.00  0.00    +0.015 C 
ATOM      4  C   UNL     1      33.038 -15.592 -21.008  0.00  0.00    +0.065 C 
ATOM      5  C   UNL     1      32.533 -14.820 -19.988  0.00  0.00    +0.017 C 
ATOM      6  C   UNL     1      32.398 -12.469 -22.727  0.00  0.00    +0.029 C 
ATOM      7  C   UNL     1      31.697 -12.348 -19.987  0.00  0.00    +0.003 C 
ATOM      8  C   UNL     1      31.871 -11.300 -22.171  0.00  0.00    +0.052 C 
ATOM      9  C   UNL     1      31.526 -11.238 -20.822  0.00  0.00    +0.015 C 
ENDROOT
BRANCH   8  11
ATOM     10  O   UNL     1      32.057  -8.371 -21.518  0.00  0.00    -0.275 OA
ATOM     11  N   UNL     1      31.689 -10.178 -22.981  0.00  0.00    -0.284 N 
ATOM     12  C   UNL     1      31.801  -8.827 -22.629  0.00  0.00    +0.226 C 
ATOM     13  H   UNL     1      31.451 -10.359 -23.920  0.00  0.00    +0.155 HD
BRANCH  12  14
ATOM     14  C   UNL     1      31.527  -7.895 -23.798  0.00  0.00    +0.090 C 
BRANCH  14  15
ATOM     15  C   UNL     1      32.072  -6.490 -23.540  0.00  0.00    +0.036 C 
BRANCH  15  16
ATOM     16  C   UNL     1      32.760  -5.885 -24.740  0.00  0.00    -0.022 C 
ATOM     17  C   UNL     1      34.042  -6.303 -25.093  0.00  0.00    -0.004 C 
ATOM     18  C   UNL     1      32.111  -4.908 -25.496  0.00  0.00    -0.004 C 
ATOM     19  C   UNL     1      34.677  -5.744 -26.202  0.00  0.00    -0.000 C 
ATOM     20  C   UNL     1      32.746  -4.349 -26.605  0.00  0.00    -0.000 C 
ATOM     21  C   UNL     1      34.029  -4.767 -26.958  0.00  0.00    -0.000 C 
ENDBRANCH  15  16
ENDBRANCH  14  15
ENDBRANCH  12  14
ENDBRANCH   8  11
BRANCH   1  22
ATOM     22  C   UNL     1      33.520 -15.298 -23.433  0.00  0.00    +0.097 C 
BRANCH  22  23
ATOM     23  C   UNL     1      35.006 -15.679 -23.467  0.00  0.00    +0.040 C 
BRANCH  23  24
ATOM     24  C   UNL     1      35.295 -17.172 -23.742  0.00  0.00    +0.091 C 
BRANCH  24  25
ATOM     25  N   UNL     1      35.218 -18.018 -22.539  0.00  0.00    -0.246 NA
ATOM     26  N   UNL     1      35.649 -18.992 -20.590  0.00  0.00    -0.251 NA
ATOM     27  C   UNL     1      34.227 -18.917 -22.231  0.00  0.00    +0.125 C 
ATOM     28  C   UNL     1      36.058 -18.087 -21.530  0.00  0.00    +0.201 C 
ATOM     29  C   UNL     1      34.473 -19.534 -21.027  0.00  0.00    +0.124 C 
BRANCH  29  32
ATOM     30  O   UNL     1      32.461 -20.613 -20.414  0.00  0.00    -0.269 OA
ATOM     31  N   UNL     1      34.397 -21.455 -19.555  0.00  0.00    -0.324 N 
ATOM     32  C   UNL     1      33.710 -20.521 -20.339  0.00  0.00    +0.257 C 
ATOM     33  H   UNL     1      33.898 -22.150 -19.067  0.00  0.00    +0.145 HD
ATOM     34  H   UNL     1      35.379 -21.417 -19.490  0.00  0.00    +0.145 HD
ENDBRANCH  29  32
ENDBRANCH  24  25
BRANCH  24  35
ATOM     35  C   UNL     1      34.360 -17.711 -24.837  0.00  0.00    +0.153 C 
BRANCH  35  36
ATOM     36  O   UNL     1      34.484 -16.912 -26.009  0.00  0.00    -0.381 OA
ATOM     37  H   UNL     1      34.338 -15.980 -25.782  0.00  0.00    +0.210 HD
ENDBRANCH  35  36
ENDBRANCH  24  35
ENDBRANCH  23  24
ENDBRANCH  22  23
ENDBRANCH   1  22
TORSDOF 11
ENDMDL
