MODEL 1
REMARK VINA RESULT:      -9.9      0.000      0.000
REMARK  Name = 40466903
REMARK  10 active torsions:
REMARK  status: ('A' for Active; 'I' for Inactive)
REMARK    1  A    between atoms: N_1  and  CA_4
REMARK    2  A    between atoms: N_1  and  C_18
REMARK    3  A    between atoms: CA_4  and  C_11
REMARK    4  A    between atoms: C_10  and  C_17
REMARK    5  A    between atoms: C_18  and  C_20
REMARK    6  A    between atoms: C_18  and  C_24
REMARK    7  A    between atoms: C_20  and  O_21
REMARK    8  A    between atoms: O_21  and  C_22
REMARK    9  A    between atoms: C_24  and  C_25
REMARK   10  A    between atoms: C_25  and  C_26
REMARK                            x       y       z     vdW  Elec       q    Type
REMARK                         _______ _______ _______ _____ _____    ______ ____
ROOT
ATOM      1  N   ALA A   1      33.878 -24.070 -15.878  0.00  0.00    +0.399 N 
ATOM      2  H1  ALA A   1      33.281 -24.318 -15.091  0.00  0.00    -0.083 HD
ATOM      3  H2  ALA A   1      34.019 -24.842 -16.531  0.00  0.00    -0.083 HD
ENDROOT
BRANCH   1   4
ATOM      4  CA  ALA A   1      35.216 -23.714 -15.352  0.00  0.00    +0.018 C 
ATOM      5  CB  ALA A   1      35.390 -22.213 -15.404  0.00  0.00    -0.014 C 
BRANCH   4  11
ATOM      6  O   ALA A   1      34.338 -24.237 -13.202  0.00  0.00    -0.277 OA
ATOM      7  O   UNK A   2      38.047 -24.239 -15.415  0.00  0.00    -0.252 OA
ATOM      8  N   UNK A   2      36.607 -24.630 -13.543  0.00  0.00    -0.205 N 
ATOM      9  N   UNK A   2      38.797 -25.278 -13.446  0.00  0.00    -0.260 N 
ATOM     10  C   UNK A   2      36.841 -25.109 -12.185  0.00  0.00    +0.206 C 
ATOM     11  C   ALA A   1      35.327 -24.214 -13.936  0.00  0.00    +0.213 C 
ATOM     12  C   UNK A   2      38.207 -25.774 -12.224  0.00  0.00    +0.127 C 
ATOM     13  C   UNK A   2      37.846 -24.661 -14.283  0.00  0.00    +0.313 C 
ATOM     14  C   UNK A   2      40.167 -25.573 -13.805  0.00  0.00    +0.117 C 
BRANCH  10  17
ATOM     15  O   UNK A   2      37.702 -23.026 -11.511  0.00  0.00    -0.244 OA
ATOM     16  O   UNK A   2      36.204 -24.104 -10.162  0.00  0.00    -0.244 OA
ATOM     17  C   UNK A   2      36.926 -23.966 -11.189  0.00  0.00    +0.385 C 
ENDBRANCH  10  17
ENDBRANCH   4  11
ENDBRANCH   1   4
BRANCH   1  18
ATOM     18  C   UNK A   0      33.207 -22.983 -16.646  0.00  0.00    +0.041 C 
BRANCH  18  20
ATOM     19  O   UNK A   0      30.820 -22.693 -16.984  0.00  0.00    -0.252 OA
ATOM     20  C   UNK A   0      31.762 -22.850 -16.217  0.00  0.00    +0.297 C 
BRANCH  20  21
ATOM     21  O   UNK A   0      31.669 -22.975 -14.861  0.00  0.00    -0.450 OA
BRANCH  21  22
ATOM     22  C   UNK A   0      30.516 -23.675 -14.382  0.00  0.00    +0.208 C 
ATOM     23  C   UNK A   0      30.939 -25.042 -13.888  0.00  0.00    +0.051 C 
ENDBRANCH  21  22
ENDBRANCH  20  21
ENDBRANCH  18  20
BRANCH  18  24
ATOM     24  C   UNK A   0      33.412 -23.204 -18.152  0.00  0.00    -0.006 C 
BRANCH  24  25
ATOM     25  C   UNK A   0      34.653 -22.561 -18.793  0.00  0.00    +0.025 C 
BRANCH  25  26
ATOM     26  C   UNK A   0      34.375 -21.344 -19.637  0.00  0.00    -0.022 C 
ATOM     27  C   UNK A   0      33.064 -20.903 -19.815  0.00  0.00    -0.004 C 
ATOM     28  C   UNK A   0      35.429 -20.658 -20.240  0.00  0.00    -0.004 C 
ATOM     29  C   UNK A   0      32.806 -19.777 -20.596  0.00  0.00    -0.000 C 
ATOM     30  C   UNK A   0      35.172 -19.531 -21.021  0.00  0.00    -0.000 C 
ATOM     31  C   UNK A   0      33.860 -19.091 -21.199  0.00  0.00    -0.000 C 
ENDBRANCH  25  26
ENDBRANCH  24  25
ENDBRANCH  18  24
ENDBRANCH   1  18
TORSDOF 10
ENDMDL
MODEL 2
REMARK VINA RESULT:      -9.2      2.028      5.683
REMARK  Name = 40466903
REMARK  10 active torsions:
REMARK  status: ('A' for Active; 'I' for Inactive)
REMARK    1  A    between atoms: N_1  and  CA_4
REMARK    2  A    between atoms: N_1  and  C_18
REMARK    3  A    between atoms: CA_4  and  C_11
REMARK    4  A    between atoms: C_10  and  C_17
REMARK    5  A    between atoms: C_18  and  C_20
REMARK    6  A    between atoms: C_18  and  C_24
REMARK    7  A    between atoms: C_20  and  O_21
REMARK    8  A    between atoms: O_21  and  C_22
REMARK    9  A    between atoms: C_24  and  C_25
REMARK   10  A    between atoms: C_25  and  C_26
REMARK                            x       y       z     vdW  Elec       q    Type
REMARK                         _______ _______ _______ _____ _____    ______ ____
ROOT
ATOM      1  N   ALA A   1      35.330 -22.316 -15.640  0.00  0.00    +0.399 N 
ATOM      2  H1  ALA A   1      35.510 -22.626 -14.686  0.00  0.00    -0.083 HD
ATOM      3  H2  ALA A   1      35.177 -21.310 -15.711  0.00  0.00    -0.083 HD
ENDROOT
BRANCH   1   4
ATOM      4  CA  ALA A   1      34.087 -22.967 -16.112  0.00  0.00    +0.018 C 
ATOM      5  CB  ALA A   1      34.439 -24.225 -16.873  0.00  0.00    -0.014 C 
BRANCH   4  11
ATOM      6  O   ALA A   1      33.740 -23.594 -13.843  0.00  0.00    -0.277 OA
ATOM      7  O   UNK A   2      31.553 -22.657 -17.447  0.00  0.00    -0.252 OA
ATOM      8  N   UNK A   2      31.843 -23.217 -15.137  0.00  0.00    -0.205 N 
ATOM      9  N   UNK A   2      29.743 -22.847 -15.962  0.00  0.00    -0.260 N 
ATOM     10  C   UNK A   2      30.910 -23.534 -14.061  0.00  0.00    +0.206 C 
ATOM     11  C   ALA A   1      33.227 -23.288 -14.919  0.00  0.00    +0.213 C 
ATOM     12  C   UNK A   2      29.559 -23.029 -14.540  0.00  0.00    +0.127 C 
ATOM     13  C   UNK A   2      31.103 -22.877 -16.329  0.00  0.00    +0.313 C 
ATOM     14  C   UNK A   2      28.645 -22.491 -16.832  0.00  0.00    +0.117 C 
BRANCH  10  17
ATOM     15  O   UNK A   2      30.025 -25.630 -14.660  0.00  0.00    -0.244 OA
ATOM     16  O   UNK A   2      31.452 -25.488 -12.878  0.00  0.00    -0.244 OA
ATOM     17  C   UNK A   2      30.781 -25.032 -13.847  0.00  0.00    +0.385 C 
ENDBRANCH  10  17
ENDBRANCH   4  11
ENDBRANCH   1   4
BRANCH   1  18
ATOM     18  C   UNK A   0      36.536 -22.620 -16.461  0.00  0.00    +0.041 C 
BRANCH  18  20
ATOM     19  O   UNK A   0      38.819 -23.287 -15.970  0.00  0.00    -0.252 OA
ATOM     20  C   UNK A   0      37.690 -23.030 -15.572  0.00  0.00    +0.297 C 
BRANCH  20  21
ATOM     21  O   UNK A   0      37.290 -23.027 -14.266  0.00  0.00    -0.450 OA
BRANCH  21  22
ATOM     22  C   UNK A   0      37.644 -24.188 -13.509  0.00  0.00    +0.208 C 
ATOM     23  C   UNK A   0      36.765 -25.344 -13.939  0.00  0.00    +0.051 C 
ENDBRANCH  21  22
ENDBRANCH  20  21
ENDBRANCH  18  20
BRANCH  18  24
ATOM     24  C   UNK A   0      36.838 -21.444 -17.402  0.00  0.00    -0.006 C 
BRANCH  24  25
ATOM     25  C   UNK A   0      36.760 -21.717 -18.913  0.00  0.00    +0.025 C 
BRANCH  25  26
ATOM     26  C   UNK A   0      35.607 -21.052 -19.620  0.00  0.00    -0.022 C 
ATOM     27  C   UNK A   0      34.301 -21.473 -19.373  0.00  0.00    -0.004 C 
ATOM     28  C   UNK A   0      35.846 -20.016 -20.522  0.00  0.00    -0.004 C 
ATOM     29  C   UNK A   0      33.233 -20.858 -20.028  0.00  0.00    -0.000 C 
ATOM     30  C   UNK A   0      34.779 -19.400 -21.178  0.00  0.00    -0.000 C 
ATOM     31  C   UNK A   0      33.473 -19.822 -20.930  0.00  0.00    -0.000 C 
ENDBRANCH  25  26
ENDBRANCH  24  25
ENDBRANCH  18  24
ENDBRANCH   1  18
TORSDOF 10
ENDMDL
MODEL 3
REMARK VINA RESULT:      -9.0      2.047      5.813
REMARK  Name = 40466903
REMARK  10 active torsions:
REMARK  status: ('A' for Active; 'I' for Inactive)
REMARK    1  A    between atoms: N_1  and  CA_4
REMARK    2  A    between atoms: N_1  and  C_18
REMARK    3  A    between atoms: CA_4  and  C_11
REMARK    4  A    between atoms: C_10  and  C_17
REMARK    5  A    between atoms: C_18  and  C_20
REMARK    6  A    between atoms: C_18  and  C_24
REMARK    7  A    between atoms: C_20  and  O_21
REMARK    8  A    between atoms: O_21  and  C_22
REMARK    9  A    between atoms: C_24  and  C_25
REMARK   10  A    between atoms: C_25  and  C_26
REMARK                            x       y       z     vdW  Elec       q    Type
REMARK                         _______ _______ _______ _____ _____    ______ ____
ROOT
ATOM      1  N   ALA A   1      35.299 -22.592 -15.383  0.00  0.00    +0.399 N 
ATOM      2  H1  ALA A   1      35.429 -22.379 -14.395  0.00  0.00    -0.083 HD
ATOM      3  H2  ALA A   1      34.856 -21.832 -15.900  0.00  0.00    -0.083 HD
ENDROOT
BRANCH   1   4
ATOM      4  CA  ALA A   1      34.393 -23.759 -15.490  0.00  0.00    +0.018 C 
ATOM      5  CB  ALA A   1      35.202 -25.031 -15.381  0.00  0.00    -0.014 C 
BRANCH   4  11
ATOM      6  O   ALA A   1      33.709 -23.822 -13.212  0.00  0.00    -0.277 OA
ATOM      7  O   UNK A   2      32.106 -23.359 -17.195  0.00  0.00    -0.252 OA
ATOM      8  N   UNK A   2      32.052 -23.447 -14.804  0.00  0.00    -0.205 N 
ATOM      9  N   UNK A   2      30.148 -22.946 -15.965  0.00  0.00    -0.260 N 
ATOM     10  C   UNK A   2      30.973 -23.378 -13.825  0.00  0.00    +0.206 C 
ATOM     11  C   ALA A   1      33.371 -23.681 -14.387  0.00  0.00    +0.213 C 
ATOM     12  C   UNK A   2      29.790 -22.788 -14.573  0.00  0.00    +0.127 C 
ATOM     13  C   UNK A   2      31.511 -23.262 -16.129  0.00  0.00    +0.313 C 
ATOM     14  C   UNK A   2      29.226 -22.622 -17.031  0.00  0.00    +0.117 C 
BRANCH  10  17
ATOM     15  O   UNK A   2      30.574 -25.663 -14.221  0.00  0.00    -0.244 OA
ATOM     16  O   UNK A   2      30.249 -24.820 -12.120  0.00  0.00    -0.244 OA
ATOM     17  C   UNK A   2      30.558 -24.757 -13.343  0.00  0.00    +0.385 C 
ENDBRANCH  10  17
ENDBRANCH   4  11
ENDBRANCH   1   4
BRANCH   1  18
ATOM     18  C   UNK A   0      36.642 -22.795 -15.995  0.00  0.00    +0.041 C 
BRANCH  18  20
ATOM     19  O   UNK A   0      37.606 -22.658 -13.770  0.00  0.00    -0.252 OA
ATOM     20  C   UNK A   0      37.673 -23.070 -14.922  0.00  0.00    +0.297 C 
BRANCH  20  21
ATOM     21  O   UNK A   0      38.656 -23.875 -15.421  0.00  0.00    -0.450 OA
BRANCH  21  22
ATOM     22  C   UNK A   0      38.908 -25.074 -14.681  0.00  0.00    +0.208 C 
ATOM     23  C   UNK A   0      40.339 -25.508 -14.918  0.00  0.00    +0.051 C 
ENDBRANCH  21  22
ENDBRANCH  20  21
ENDBRANCH  18  20
BRANCH  18  24
ATOM     24  C   UNK A   0      36.978 -21.617 -16.920  0.00  0.00    -0.006 C 
BRANCH  24  25
ATOM     25  C   UNK A   0      37.001 -21.896 -18.432  0.00  0.00    +0.025 C 
BRANCH  25  26
ATOM     26  C   UNK A   0      35.848 -21.311 -19.204  0.00  0.00    -0.022 C 
ATOM     27  C   UNK A   0      34.553 -21.781 -18.988  0.00  0.00    -0.004 C 
ATOM     28  C   UNK A   0      36.075 -20.298 -20.136  0.00  0.00    -0.004 C 
ATOM     29  C   UNK A   0      33.485 -21.240 -19.703  0.00  0.00    -0.000 C 
ATOM     30  C   UNK A   0      35.007 -19.756 -20.852  0.00  0.00    -0.000 C 
ATOM     31  C   UNK A   0      33.711 -20.227 -20.635  0.00  0.00    -0.000 C 
ENDBRANCH  25  26
ENDBRANCH  24  25
ENDBRANCH  18  24
ENDBRANCH   1  18
TORSDOF 10
ENDMDL
MODEL 4
REMARK VINA RESULT:      -8.9      1.755      4.520
REMARK  Name = 40466903
REMARK  10 active torsions:
REMARK  status: ('A' for Active; 'I' for Inactive)
REMARK    1  A    between atoms: N_1  and  CA_4
REMARK    2  A    between atoms: N_1  and  C_18
REMARK    3  A    between atoms: CA_4  and  C_11
REMARK    4  A    between atoms: C_10  and  C_17
REMARK    5  A    between atoms: C_18  and  C_20
REMARK    6  A    between atoms: C_18  and  C_24
REMARK    7  A    between atoms: C_20  and  O_21
REMARK    8  A    between atoms: O_21  and  C_22
REMARK    9  A    between atoms: C_24  and  C_25
REMARK   10  A    between atoms: C_25  and  C_26
REMARK                            x       y       z     vdW  Elec       q    Type
REMARK                         _______ _______ _______ _____ _____    ______ ____
ROOT
ATOM      1  N   ALA A   1      35.094 -22.387 -16.278  0.00  0.00    +0.399 N 
ATOM      2  H1  ALA A   1      35.175 -21.378 -16.396  0.00  0.00    -0.083 HD
ATOM      3  H2  ALA A   1      34.424 -22.651 -15.555  0.00  0.00    -0.083 HD
ENDROOT
BRANCH   1   4
ATOM      4  CA  ALA A   1      36.410 -22.910 -15.846  0.00  0.00    +0.018 C 
ATOM      5  CB  ALA A   1      37.414 -21.781 -15.822  0.00  0.00    -0.014 C 
BRANCH   4  11
ATOM      6  O   ALA A   1      35.234 -23.342 -13.822  0.00  0.00    -0.277 OA
ATOM      7  O   UNK A   2      39.016 -24.134 -15.751  0.00  0.00    -0.252 OA
ATOM      8  N   UNK A   2      37.357 -24.276 -14.032  0.00  0.00    -0.205 N 
ATOM      9  N   UNK A   2      39.299 -25.465 -13.837  0.00  0.00    -0.260 N 
ATOM     10  C   UNK A   2      37.337 -24.892 -12.710  0.00  0.00    +0.206 C 
ATOM     11  C   ALA A   1      36.261 -23.520 -14.477  0.00  0.00    +0.213 C 
ATOM     12  C   UNK A   2      38.492 -25.879 -12.711  0.00  0.00    +0.127 C 
ATOM     13  C   UNK A   2      38.612 -24.570 -14.680  0.00  0.00    +0.313 C 
ATOM     14  C   UNK A   2      40.579 -26.074 -14.121  0.00  0.00    +0.117 C 
BRANCH  10  17
ATOM     15  O   UNK A   2      36.782 -23.885 -10.657  0.00  0.00    -0.244 OA
ATOM     16  O   UNK A   2      38.633 -23.163 -11.791  0.00  0.00    -0.244 OA
ATOM     17  C   UNK A   2      37.609 -23.881 -11.610  0.00  0.00    +0.385 C 
ENDBRANCH  10  17
ENDBRANCH   4  11
ENDBRANCH   1   4
BRANCH   1  18
ATOM     18  C   UNK A   0      34.589 -22.965 -17.556  0.00  0.00    +0.041 C 
BRANCH  18  20
ATOM     19  O   UNK A   0      36.122 -21.850 -19.073  0.00  0.00    -0.252 OA
ATOM     20  C   UNK A   0      34.972 -22.079 -18.721  0.00  0.00    +0.297 C 
BRANCH  20  21
ATOM     21  O   UNK A   0      33.846 -21.616 -19.339  0.00  0.00    -0.450 OA
BRANCH  21  22
ATOM     22  C   UNK A   0      34.047 -20.546 -20.269  0.00  0.00    +0.208 C 
ATOM     23  C   UNK A   0      32.709 -19.912 -20.586  0.00  0.00    +0.051 C 
ENDBRANCH  21  22
ENDBRANCH  20  21
ENDBRANCH  18  20
BRANCH  18  24
ATOM     24  C   UNK A   0      33.087 -23.258 -17.439  0.00  0.00    -0.006 C 
BRANCH  24  25
ATOM     25  C   UNK A   0      32.519 -23.460 -16.024  0.00  0.00    +0.025 C 
BRANCH  25  26
ATOM     26  C   UNK A   0      31.017 -23.556 -15.949  0.00  0.00    -0.022 C 
ATOM     27  C   UNK A   0      30.418 -24.602 -15.248  0.00  0.00    -0.004 C 
ATOM     28  C   UNK A   0      30.225 -22.597 -16.582  0.00  0.00    -0.004 C 
ATOM     29  C   UNK A   0      29.028 -24.691 -15.179  0.00  0.00    -0.000 C 
ATOM     30  C   UNK A   0      28.834 -22.685 -16.513  0.00  0.00    -0.000 C 
ATOM     31  C   UNK A   0      28.236 -23.732 -15.811  0.00  0.00    -0.000 C 
ENDBRANCH  25  26
ENDBRANCH  24  25
ENDBRANCH  18  24
ENDBRANCH   1  18
TORSDOF 10
ENDMDL
MODEL 5
REMARK VINA RESULT:      -8.4      1.642      2.757
REMARK  Name = 40466903
REMARK  10 active torsions:
REMARK  status: ('A' for Active; 'I' for Inactive)
REMARK    1  A    between atoms: N_1  and  CA_4
REMARK    2  A    between atoms: N_1  and  C_18
REMARK    3  A    between atoms: CA_4  and  C_11
REMARK    4  A    between atoms: C_10  and  C_17
REMARK    5  A    between atoms: C_18  and  C_20
REMARK    6  A    between atoms: C_18  and  C_24
REMARK    7  A    between atoms: C_20  and  O_21
REMARK    8  A    between atoms: O_21  and  C_22
REMARK    9  A    between atoms: C_24  and  C_25
REMARK   10  A    between atoms: C_25  and  C_26
REMARK                            x       y       z     vdW  Elec       q    Type
REMARK                         _______ _______ _______ _____ _____    ______ ____
ROOT
ATOM      1  N   ALA A   1      32.858 -24.093 -16.013  0.00  0.00    +0.399 N 
ATOM      2  H1  ALA A   1      32.133 -24.806 -16.082  0.00  0.00    -0.083 HD
ATOM      3  H2  ALA A   1      33.601 -24.212 -16.703  0.00  0.00    -0.083 HD
ENDROOT
BRANCH   1   4
ATOM      4  CA  ALA A   1      33.497 -24.207 -14.682  0.00  0.00    +0.018 C 
ATOM      5  CB  ALA A   1      32.740 -25.215 -13.848  0.00  0.00    -0.014 C 
BRANCH   4  11
ATOM      6  O   ALA A   1      35.297 -25.137 -15.931  0.00  0.00    -0.277 OA
ATOM      7  O   UNK A   2      34.392 -23.513 -12.033  0.00  0.00    -0.252 OA
ATOM      8  N   UNK A   2      35.768 -24.431 -13.763  0.00  0.00    -0.205 N 
ATOM      9  N   UNK A   2      36.711 -23.787 -11.783  0.00  0.00    -0.260 N 
ATOM     10  C   UNK A   2      37.169 -24.834 -13.818  0.00  0.00    +0.206 C 
ATOM     11  C   ALA A   1      34.928 -24.637 -14.868  0.00  0.00    +0.213 C 
ATOM     12  C   UNK A   2      37.826 -24.164 -12.623  0.00  0.00    +0.127 C 
ATOM     13  C   UNK A   2      35.482 -23.863 -12.468  0.00  0.00    +0.313 C 
ATOM     14  C   UNK A   2      36.906 -23.224 -10.466  0.00  0.00    +0.117 C 
BRANCH  10  17
ATOM     15  O   UNK A   2      37.833 -26.941 -14.628  0.00  0.00    -0.244 OA
ATOM     16  O   UNK A   2      36.948 -26.780 -12.525  0.00  0.00    -0.244 OA
ATOM     17  C   UNK A   2      37.334 -26.333 -13.641  0.00  0.00    +0.385 C 
ENDBRANCH  10  17
ENDBRANCH   4  11
ENDBRANCH   1   4
BRANCH   1  18
ATOM     18  C   UNK A   0      32.234 -22.768 -16.287  0.00  0.00    +0.041 C 
BRANCH  18  20
ATOM     19  O   UNK A   0      30.523 -22.487 -14.586  0.00  0.00    -0.252 OA
ATOM     20  C   UNK A   0      30.820 -22.732 -15.749  0.00  0.00    +0.297 C 
BRANCH  20  21
ATOM     21  O   UNK A   0      29.934 -22.969 -16.760  0.00  0.00    -0.450 OA
BRANCH  21  22
ATOM     22  C   UNK A   0      28.825 -23.809 -16.426  0.00  0.00    +0.208 C 
ATOM     23  C   UNK A   0      29.346 -25.104 -15.838  0.00  0.00    +0.051 C 
ENDBRANCH  21  22
ENDBRANCH  20  21
ENDBRANCH  18  20
BRANCH  18  24
ATOM     24  C   UNK A   0      32.362 -22.428 -17.778  0.00  0.00    -0.006 C 
BRANCH  24  25
ATOM     25  C   UNK A   0      33.696 -22.768 -18.464  0.00  0.00    +0.025 C 
BRANCH  25  26
ATOM     26  C   UNK A   0      34.262 -21.675 -19.333  0.00  0.00    -0.022 C 
ATOM     27  C   UNK A   0      35.643 -21.534 -19.467  0.00  0.00    -0.004 C 
ATOM     28  C   UNK A   0      33.404 -20.804 -20.004  0.00  0.00    -0.004 C 
ATOM     29  C   UNK A   0      36.167 -20.522 -20.271  0.00  0.00    -0.000 C 
ATOM     30  C   UNK A   0      33.927 -19.791 -20.809  0.00  0.00    -0.000 C 
ATOM     31  C   UNK A   0      35.309 -19.651 -20.942  0.00  0.00    -0.000 C 
ENDBRANCH  25  26
ENDBRANCH  24  25
ENDBRANCH  18  24
ENDBRANCH   1  18
TORSDOF 10
ENDMDL
MODEL 6
REMARK VINA RESULT:      -8.4      9.875     14.260
REMARK  Name = 40466903
REMARK  10 active torsions:
REMARK  status: ('A' for Active; 'I' for Inactive)
REMARK    1  A    between atoms: N_1  and  CA_4
REMARK    2  A    between atoms: N_1  and  C_18
REMARK    3  A    between atoms: CA_4  and  C_11
REMARK    4  A    between atoms: C_10  and  C_17
REMARK    5  A    between atoms: C_18  and  C_20
REMARK    6  A    between atoms: C_18  and  C_24
REMARK    7  A    between atoms: C_20  and  O_21
REMARK    8  A    between atoms: O_21  and  C_22
REMARK    9  A    between atoms: C_24  and  C_25
REMARK   10  A    between atoms: C_25  and  C_26
REMARK                            x       y       z     vdW  Elec       q    Type
REMARK                         _______ _______ _______ _____ _____    ______ ____
ROOT
ATOM      1  N   ALA A   1      34.045 -13.122 -24.296  0.00  0.00    +0.399 N 
ATOM      2  H1  ALA A   1      34.938 -13.127 -24.789  0.00  0.00    -0.083 HD
ATOM      3  H2  ALA A   1      34.130 -13.386 -23.314  0.00  0.00    -0.083 HD
ENDROOT
BRANCH   1   4
ATOM      4  CA  ALA A   1      33.160 -14.126 -24.928  0.00  0.00    +0.018 C 
ATOM      5  CB  ALA A   1      32.583 -13.554 -26.203  0.00  0.00    -0.014 C 
BRANCH   4  11
ATOM      6  O   ALA A   1      34.214 -15.692 -26.378  0.00  0.00    -0.277 OA
ATOM      7  O   UNK A   2      33.489 -14.947 -22.186  0.00  0.00    -0.252 OA
ATOM      8  N   UNK A   2      34.384 -16.088 -24.090  0.00  0.00    -0.205 N 
ATOM      9  N   UNK A   2      34.907 -16.809 -21.985  0.00  0.00    -0.260 N 
ATOM     10  C   UNK A   2      35.148 -17.321 -24.249  0.00  0.00    +0.206 C 
ATOM     11  C   ALA A   1      33.965 -15.365 -25.217  0.00  0.00    +0.213 C 
ATOM     12  C   UNK A   2      35.704 -17.628 -22.869  0.00  0.00    +0.127 C 
ATOM     13  C   UNK A   2      34.171 -15.833 -22.686  0.00  0.00    +0.313 C 
ATOM     14  C   UNK A   2      35.030 -16.896 -20.547  0.00  0.00    +0.117 C 
BRANCH  10  17
ATOM     15  O   UNK A   2      33.575 -18.313 -25.690  0.00  0.00    -0.244 OA
ATOM     16  O   UNK A   2      34.327 -19.489 -23.879  0.00  0.00    -0.244 OA
ATOM     17  C   UNK A   2      34.262 -18.489 -24.647  0.00  0.00    +0.385 C 
ENDBRANCH  10  17
ENDBRANCH   4  11
ENDBRANCH   1   4
BRANCH   1  18
ATOM     18  C   UNK A   0      33.512 -11.730 -24.317  0.00  0.00    +0.041 C 
BRANCH  18  20
ATOM     19  O   UNK A   0      35.024 -10.858 -26.006  0.00  0.00    -0.252 OA
ATOM     20  C   UNK A   0      34.545 -10.779 -24.881  0.00  0.00    +0.297 C 
BRANCH  20  21
ATOM     21  O   UNK A   0      34.826  -9.805 -23.967  0.00  0.00    -0.450 OA
BRANCH  21  22
ATOM     22  C   UNK A   0      34.729  -8.460 -24.446  0.00  0.00    +0.208 C 
ATOM     23  C   UNK A   0      34.905  -7.508 -23.282  0.00  0.00    +0.051 C 
ENDBRANCH  21  22
ENDBRANCH  20  21
ENDBRANCH  18  20
BRANCH  18  24
ATOM     24  C   UNK A   0      32.985 -11.352 -22.925  0.00  0.00    -0.006 C 
BRANCH  24  25
ATOM     25  C   UNK A   0      31.625 -10.636 -22.861  0.00  0.00    +0.025 C 
BRANCH  25  26
ATOM     26  C   UNK A   0      31.680  -9.208 -22.386  0.00  0.00    -0.022 C 
ATOM     27  C   UNK A   0      31.209  -8.182 -23.205  0.00  0.00    -0.004 C 
ATOM     28  C   UNK A   0      32.201  -8.910 -21.127  0.00  0.00    -0.004 C 
ATOM     29  C   UNK A   0      31.260  -6.859 -22.766  0.00  0.00    -0.000 C 
ATOM     30  C   UNK A   0      32.253  -7.587 -20.687  0.00  0.00    -0.000 C 
ATOM     31  C   UNK A   0      31.781  -6.562 -21.507  0.00  0.00    -0.000 C 
ENDBRANCH  25  26
ENDBRANCH  24  25
ENDBRANCH  18  24
ENDBRANCH   1  18
TORSDOF 10
ENDMDL
MODEL 7
REMARK VINA RESULT:      -8.1      9.207     13.900
REMARK  Name = 40466903
REMARK  10 active torsions:
REMARK  status: ('A' for Active; 'I' for Inactive)
REMARK    1  A    between atoms: N_1  and  CA_4
REMARK    2  A    between atoms: N_1  and  C_18
REMARK    3  A    between atoms: CA_4  and  C_11
REMARK    4  A    between atoms: C_10  and  C_17
REMARK    5  A    between atoms: C_18  and  C_20
REMARK    6  A    between atoms: C_18  and  C_24
REMARK    7  A    between atoms: C_20  and  O_21
REMARK    8  A    between atoms: O_21  and  C_22
REMARK    9  A    between atoms: C_24  and  C_25
REMARK   10  A    between atoms: C_25  and  C_26
REMARK                            x       y       z     vdW  Elec       q    Type
REMARK                         _______ _______ _______ _____ _____    ______ ____
ROOT
ATOM      1  N   ALA A   1      32.912 -14.662 -23.750  0.00  0.00    +0.399 N 
ATOM      2  H1  ALA A   1      32.729 -14.416 -24.722  0.00  0.00    -0.083 HD
ATOM      3  H2  ALA A   1      32.124 -15.128 -23.301  0.00  0.00    -0.083 HD
ENDROOT
BRANCH   1   4
ATOM      4  CA  ALA A   1      33.150 -13.412 -22.992  0.00  0.00    +0.018 C 
ATOM      5  CB  ALA A   1      34.309 -13.615 -22.044  0.00  0.00    -0.014 C 
BRANCH   4  11
ATOM      6  O   ALA A   1      33.966 -12.553 -25.056  0.00  0.00    -0.277 OA
ATOM      7  O   UNK A   2      32.224 -11.253 -21.324  0.00  0.00    -0.252 OA
ATOM      8  N   UNK A   2      33.097 -11.015 -23.540  0.00  0.00    -0.205 N 
ATOM      9  N   UNK A   2      32.254  -9.191 -22.449  0.00  0.00    -0.260 N 
ATOM     10  C   UNK A   2      33.363  -9.860 -24.390  0.00  0.00    +0.206 C 
ATOM     11  C   ALA A   1      33.447 -12.304 -23.968  0.00  0.00    +0.213 C 
ATOM     12  C   UNK A   2      32.566  -8.719 -23.778  0.00  0.00    +0.127 C 
ATOM     13  C   UNK A   2      32.489 -10.574 -22.307  0.00  0.00    +0.313 C 
ATOM     14  C   UNK A   2      31.602  -8.346 -21.473  0.00  0.00    +0.117 C 
BRANCH  10  17
ATOM     15  O   UNK A   2      35.576 -10.077 -25.157  0.00  0.00    -0.244 OA
ATOM     16  O   UNK A   2      35.105  -8.546 -23.525  0.00  0.00    -0.244 OA
ATOM     17  C   UNK A   2      34.827  -9.456 -24.355  0.00  0.00    +0.385 C 
ENDBRANCH  10  17
ENDBRANCH   4  11
ENDBRANCH   1   4
BRANCH   1  18
ATOM     18  C   UNK A   0      34.048 -15.626 -23.721  0.00  0.00    +0.041 C 
BRANCH  18  20
ATOM     19  O   UNK A   0      33.837 -15.781 -26.135  0.00  0.00    -0.252 OA
ATOM     20  C   UNK A   0      34.232 -16.263 -25.081  0.00  0.00    +0.297 C 
BRANCH  20  21
ATOM     21  O   UNK A   0      34.937 -17.426 -24.956  0.00  0.00    -0.450 OA
BRANCH  21  22
ATOM     22  C   UNK A   0      34.213 -18.624 -25.252  0.00  0.00    +0.208 C 
ATOM     23  C   UNK A   0      34.853 -19.782 -24.516  0.00  0.00    +0.051 C 
ENDBRANCH  21  22
ENDBRANCH  20  21
ENDBRANCH  18  20
BRANCH  18  24
ATOM     24  C   UNK A   0      33.860 -16.621 -22.567  0.00  0.00    -0.006 C 
BRANCH  24  25
ATOM     25  C   UNK A   0      35.126 -17.093 -21.833  0.00  0.00    +0.025 C 
BRANCH  25  26
ATOM     26  C   UNK A   0      35.027 -18.460 -21.209  0.00  0.00    -0.022 C 
ATOM     27  C   UNK A   0      36.186 -19.147 -20.845  0.00  0.00    -0.004 C 
ATOM     28  C   UNK A   0      33.777 -19.041 -20.995  0.00  0.00    -0.004 C 
ATOM     29  C   UNK A   0      36.095 -20.413 -20.268  0.00  0.00    -0.000 C 
ATOM     30  C   UNK A   0      33.685 -20.307 -20.418  0.00  0.00    -0.000 C 
ATOM     31  C   UNK A   0      34.845 -20.993 -20.053  0.00  0.00    -0.000 C 
ENDBRANCH  25  26
ENDBRANCH  24  25
ENDBRANCH  18  24
ENDBRANCH   1  18
TORSDOF 10
ENDMDL
MODEL 8
REMARK VINA RESULT:      -8.1      8.139     12.701
REMARK  Name = 40466903
REMARK  10 active torsions:
REMARK  status: ('A' for Active; 'I' for Inactive)
REMARK    1  A    between atoms: N_1  and  CA_4
REMARK    2  A    between atoms: N_1  and  C_18
REMARK    3  A    between atoms: CA_4  and  C_11
REMARK    4  A    between atoms: C_10  and  C_17
REMARK    5  A    between atoms: C_18  and  C_20
REMARK    6  A    between atoms: C_18  and  C_24
REMARK    7  A    between atoms: C_20  and  O_21
REMARK    8  A    between atoms: O_21  and  C_22
REMARK    9  A    between atoms: C_24  and  C_25
REMARK   10  A    between atoms: C_25  and  C_26
REMARK                            x       y       z     vdW  Elec       q    Type
REMARK                         _______ _______ _______ _____ _____    ______ ____
ROOT
ATOM      1  N   ALA A   1      33.363 -15.920 -22.575  0.00  0.00    +0.399 N 
ATOM      2  H1  ALA A   1      32.926 -15.747 -23.479  0.00  0.00    -0.083 HD
ATOM      3  H2  ALA A   1      32.856 -16.602 -22.011  0.00  0.00    -0.083 HD
ENDROOT
BRANCH   1   4
ATOM      4  CA  ALA A   1      33.362 -14.654 -21.808  0.00  0.00    +0.018 C 
ATOM      5  CB  ALA A   1      34.768 -14.350 -21.342  0.00  0.00    -0.014 C 
BRANCH   4  11
ATOM      6  O   ALA A   1      32.994 -13.612 -23.916  0.00  0.00    -0.277 OA
ATOM      7  O   UNK A   2      32.348 -12.981 -19.692  0.00  0.00    -0.252 OA
ATOM      8  N   UNK A   2      32.210 -12.492 -22.031  0.00  0.00    -0.205 N 
ATOM      9  N   UNK A   2      31.188 -11.115 -20.520  0.00  0.00    -0.260 N 
ATOM     10  C   UNK A   2      31.693 -11.355 -22.786  0.00  0.00    +0.206 C 
ATOM     11  C   ALA A   1      32.845 -13.552 -22.695  0.00  0.00    +0.213 C 
ATOM     12  C   UNK A   2      30.799 -10.603 -21.815  0.00  0.00    +0.127 C 
ATOM     13  C   UNK A   2      31.964 -12.286 -20.624  0.00  0.00    +0.313 C 
ATOM     14  C   UNK A   2      30.658 -10.564 -19.293  0.00  0.00    +0.117 C 
BRANCH  10  17
ATOM     15  O   UNK A   2      32.934  -9.379 -22.485  0.00  0.00    -0.244 OA
ATOM     16  O   UNK A   2      33.448 -10.766 -24.229  0.00  0.00    -0.244 OA
ATOM     17  C   UNK A   2      32.801 -10.405 -23.207  0.00  0.00    +0.385 C 
ENDBRANCH  10  17
ENDBRANCH   4  11
ENDBRANCH   1   4
BRANCH   1  18
ATOM     18  C   UNK A   0      34.717 -16.494 -22.817  0.00  0.00    +0.041 C 
BRANCH  18  20
ATOM     19  O   UNK A   0      34.675 -16.161 -25.222  0.00  0.00    -0.252 OA
ATOM     20  C   UNK A   0      34.864 -16.904 -24.266  0.00  0.00    +0.297 C 
BRANCH  20  21
ATOM     21  O   UNK A   0      35.278 -18.202 -24.340  0.00  0.00    -0.450 OA
BRANCH  21  22
ATOM     22  C   UNK A   0      34.377 -19.101 -24.996  0.00  0.00    +0.208 C 
ATOM     23  C   UNK A   0      35.022 -20.469 -25.081  0.00  0.00    +0.051 C 
ENDBRANCH  21  22
ENDBRANCH  20  21
ENDBRANCH  18  20
BRANCH  18  24
ATOM     24  C   UNK A   0      35.000 -17.612 -21.803  0.00  0.00    -0.006 C 
BRANCH  24  25
ATOM     25  C   UNK A   0      33.802 -18.457 -21.337  0.00  0.00    +0.025 C 
BRANCH  25  26
ATOM     26  C   UNK A   0      34.163 -19.747 -20.648  0.00  0.00    -0.022 C 
ATOM     27  C   UNK A   0      33.167 -20.530 -20.066  0.00  0.00    -0.004 C 
ATOM     28  C   UNK A   0      35.495 -20.159 -20.593  0.00  0.00    -0.004 C 
ATOM     29  C   UNK A   0      33.501 -21.724 -19.428  0.00  0.00    -0.000 C 
ATOM     30  C   UNK A   0      35.830 -21.354 -19.955  0.00  0.00    -0.000 C 
ATOM     31  C   UNK A   0      34.833 -22.136 -19.373  0.00  0.00    -0.000 C 
ENDBRANCH  25  26
ENDBRANCH  24  25
ENDBRANCH  18  24
ENDBRANCH   1  18
TORSDOF 10
ENDMDL
MODEL 9
REMARK VINA RESULT:      -8.0      9.390     13.547
REMARK  Name = 40466903
REMARK  10 active torsions:
REMARK  status: ('A' for Active; 'I' for Inactive)
REMARK    1  A    between atoms: N_1  and  CA_4
REMARK    2  A    between atoms: N_1  and  C_18
REMARK    3  A    between atoms: CA_4  and  C_11
REMARK    4  A    between atoms: C_10  and  C_17
REMARK    5  A    between atoms: C_18  and  C_20
REMARK    6  A    between atoms: C_18  and  C_24
REMARK    7  A    between atoms: C_20  and  O_21
REMARK    8  A    between atoms: O_21  and  C_22
REMARK    9  A    between atoms: C_24  and  C_25
REMARK   10  A    between atoms: C_25  and  C_26
REMARK                            x       y       z     vdW  Elec       q    Type
REMARK                         _______ _______ _______ _____ _____    ______ ____
ROOT
ATOM      1  N   ALA A   1      34.262 -13.055 -22.498  0.00  0.00    +0.399 N 
ATOM      2  H1  ALA A   1      35.083 -13.073 -23.103  0.00  0.00    -0.083 HD
ATOM      3  H2  ALA A   1      34.441 -12.614 -21.596  0.00  0.00    -0.083 HD
ENDROOT
BRANCH   1   4
ATOM      4  CA  ALA A   1      33.866 -14.453 -22.212  0.00  0.00    +0.018 C 
ATOM      5  CB  ALA A   1      32.361 -14.533 -22.097  0.00  0.00    -0.014 C 
BRANCH   4  11
ATOM      6  O   ALA A   1      34.233 -14.988 -24.502  0.00  0.00    -0.277 OA
ATOM      7  O   UNK A   2      34.801 -16.602 -20.537  0.00  0.00    -0.252 OA
ATOM      8  N   UNK A   2      34.958 -16.539 -22.925  0.00  0.00    -0.205 N 
ATOM      9  N   UNK A   2      35.918 -18.261 -21.769  0.00  0.00    -0.260 N 
ATOM     10  C   UNK A   2      35.451 -17.485 -23.919  0.00  0.00    +0.206 C 
ATOM     11  C   ALA A   1      34.362 -15.334 -23.328  0.00  0.00    +0.213 C 
ATOM     12  C   UNK A   2      36.310 -18.470 -23.144  0.00  0.00    +0.127 C 
ATOM     13  C   UNK A   2      35.178 -17.074 -21.603  0.00  0.00    +0.313 C 
ATOM     14  C   UNK A   2      36.414 -19.099 -20.700  0.00  0.00    +0.117 C 
BRANCH  10  17
ATOM     15  O   UNK A   2      33.948 -19.294 -23.915  0.00  0.00    -0.244 OA
ATOM     16  O   UNK A   2      33.903 -17.810 -25.654  0.00  0.00    -0.244 OA
ATOM     17  C   UNK A   2      34.323 -18.276 -24.558  0.00  0.00    +0.385 C 
ENDBRANCH  10  17
ENDBRANCH   4  11
ENDBRANCH   1   4
BRANCH   1  18
ATOM     18  C   UNK A   0      33.210 -12.241 -23.168  0.00  0.00    +0.041 C 
BRANCH  18  20
ATOM     19  O   UNK A   0      33.625 -11.535 -25.455  0.00  0.00    -0.252 OA
ATOM     20  C   UNK A   0      33.820 -11.383 -24.255  0.00  0.00    +0.297 C 
BRANCH  20  21
ATOM     21  O   UNK A   0      34.581 -10.398 -23.694  0.00  0.00    -0.450 OA
BRANCH  21  22
ATOM     22  C   UNK A   0      34.842  -9.266 -24.531  0.00  0.00    +0.208 C 
ATOM     23  C   UNK A   0      34.843  -8.014 -23.680  0.00  0.00    +0.051 C 
ENDBRANCH  21  22
ENDBRANCH  20  21
ENDBRANCH  18  20
BRANCH  18  24
ATOM     24  C   UNK A   0      32.401 -11.465 -22.118  0.00  0.00    -0.006 C 
BRANCH  24  25
ATOM     25  C   UNK A   0      31.336 -10.485 -22.636  0.00  0.00    +0.025 C 
BRANCH  25  26
ATOM     26  C   UNK A   0      31.591  -9.037 -22.307  0.00  0.00    -0.022 C 
ATOM     27  C   UNK A   0      32.209  -8.693 -21.105  0.00  0.00    -0.004 C 
ATOM     28  C   UNK A   0      31.209  -8.040 -23.204  0.00  0.00    -0.004 C 
ATOM     29  C   UNK A   0      32.445  -7.353 -20.799  0.00  0.00    -0.000 C 
ATOM     30  C   UNK A   0      31.444  -6.699 -22.899  0.00  0.00    -0.000 C 
ATOM     31  C   UNK A   0      32.063  -6.355 -21.697  0.00  0.00    -0.000 C 
ENDBRANCH  25  26
ENDBRANCH  24  25
ENDBRANCH  18  24
ENDBRANCH   1  18
TORSDOF 10
ENDMDL
