MODEL 1
REMARK VINA RESULT:      -9.5      0.000      0.000
REMARK  Name = 7020128
REMARK  7 active torsions:
REMARK  status: ('A' for Active; 'I' for Inactive)
REMARK    1  A    between atoms: C_1  and  C_15
REMARK    2  A    between atoms: C_4  and  C_8
REMARK    3  A    between atoms: C_8  and  C_9
REMARK    4  A    between atoms: C_15  and  CA_16
REMARK    5  A    between atoms: CA_16  and  N_17
REMARK    6  A    between atoms: CA_16  and  C_22
REMARK    7  A    between atoms: C_22  and  O_23
REMARK                            x       y       z     vdW  Elec       q    Type
REMARK                         _______ _______ _______ _____ _____    ______ ____
ROOT
ATOM      1  C   UNL     1      35.156 -19.623 -20.731  0.00  0.00    -0.024 C 
ATOM      2  C   UNL     1      36.098 -20.487 -20.197  0.00  0.00    -0.004 C 
ATOM      3  C   UNL     1      33.800 -19.886 -20.639  0.00  0.00    -0.004 C 
ATOM      4  C   UNL     1      34.307 -21.928 -19.452  0.00  0.00    +0.039 C 
ATOM      5  C   UNL     1      35.670 -21.649 -19.552  0.00  0.00    +0.003 C 
ATOM      6  C   UNL     1      33.372 -21.047 -19.995  0.00  0.00    +0.003 C 
ENDROOT
BRANCH   4   8
ATOM      7  O   UNL     1      33.838 -24.219 -19.390  0.00  0.00    -0.287 OA
ATOM      8  C   UNL     1      33.861 -23.139 -18.781  0.00  0.00    +0.196 C 
BRANCH   8   9
ATOM      9  C   UNL     1      33.416 -23.146 -17.355  0.00  0.00    +0.039 C 
ATOM     10  C   UNL     1      32.070 -23.083 -17.085  0.00  0.00    +0.003 C 
ATOM     11  C   UNL     1      34.373 -23.217 -16.368  0.00  0.00    +0.003 C 
ATOM     12  C   UNL     1      31.654 -23.091 -15.753  0.00  0.00    +0.000 C 
ATOM     13  C   UNL     1      33.958 -23.225 -15.037  0.00  0.00    +0.000 C 
ATOM     14  C   UNL     1      32.598 -23.162 -14.730  0.00  0.00    +0.000 C 
ENDBRANCH   8   9
ENDBRANCH   4   8
BRANCH   1  15
ATOM     15  C   UNL     1      35.620 -18.365 -21.428  0.00  0.00    +0.015 C 
BRANCH  15  16
ATOM     16  CA  UNL     1      34.740 -17.989 -22.631  0.00  0.00    +0.040 C 
BRANCH  16  17
ATOM     17  N   UNL     1      35.279 -18.593 -23.846  0.00  0.00    +0.389 N 
ATOM     18  H1  UNL     1      36.261 -18.830 -23.702  0.00  0.00    -0.088 HD
ATOM     19  H2  UNL     1      35.199 -17.933 -24.619  0.00  0.00    -0.088 HD
ATOM     20  H3  UNL     1      34.755 -19.440 -24.067  0.00  0.00    -0.088 HD
ENDBRANCH  16  17
BRANCH  16  22
ATOM     21  OXT UNL     1      33.873 -15.724 -22.402  0.00  0.00    -0.253 OA
ATOM     22  C   UNL     1      34.708 -16.489 -22.868  0.00  0.00    +0.293 C 
BRANCH  22  23
ATOM     23  O   UNL     1      35.743 -16.065 -23.638  0.00  0.00    -0.482 OA
ATOM     24  H   UNL     1      36.545 -15.791 -23.237  0.00  0.00    +0.295 HD
ENDBRANCH  22  23
ENDBRANCH  16  22
ENDBRANCH  15  16
ENDBRANCH   1  15
TORSDOF 7
ENDMDL
MODEL 2
REMARK VINA RESULT:      -9.4      3.443      5.540
REMARK  Name = 7020128
REMARK  7 active torsions:
REMARK  status: ('A' for Active; 'I' for Inactive)
REMARK    1  A    between atoms: C_1  and  C_15
REMARK    2  A    between atoms: C_4  and  C_8
REMARK    3  A    between atoms: C_8  and  C_9
REMARK    4  A    between atoms: C_15  and  CA_16
REMARK    5  A    between atoms: CA_16  and  N_17
REMARK    6  A    between atoms: CA_16  and  C_22
REMARK    7  A    between atoms: C_22  and  O_23
REMARK                            x       y       z     vdW  Elec       q    Type
REMARK                         _______ _______ _______ _____ _____    ______ ____
ROOT
ATOM      1  C   UNL     1      33.957 -15.163 -23.395  0.00  0.00    -0.024 C 
ATOM      2  C   UNL     1      34.324 -16.236 -24.190  0.00  0.00    -0.004 C 
ATOM      3  C   UNL     1      34.180 -15.167 -22.029  0.00  0.00    -0.004 C 
ATOM      4  C   UNL     1      35.165 -17.364 -22.225  0.00  0.00    +0.039 C 
ATOM      5  C   UNL     1      34.933 -17.346 -23.601  0.00  0.00    +0.003 C 
ATOM      6  C   UNL     1      34.789 -16.275 -21.439  0.00  0.00    +0.003 C 
ENDROOT
BRANCH   4   8
ATOM      7  O   UNL     1      37.028 -18.664 -21.670  0.00  0.00    -0.287 OA
ATOM      8  C   UNL     1      35.798 -18.519 -21.611  0.00  0.00    +0.196 C 
BRANCH   8   9
ATOM      9  C   UNL     1      35.019 -19.571 -20.889  0.00  0.00    +0.039 C 
ATOM     10  C   UNL     1      33.646 -19.511 -20.924  0.00  0.00    +0.003 C 
ATOM     11  C   UNL     1      35.707 -20.557 -20.220  0.00  0.00    +0.003 C 
ATOM     12  C   UNL     1      32.917 -20.493 -20.251  0.00  0.00    +0.000 C 
ATOM     13  C   UNL     1      34.979 -21.538 -19.548  0.00  0.00    +0.000 C 
ATOM     14  C   UNL     1      33.585 -21.506 -19.563  0.00  0.00    +0.000 C 
ENDBRANCH   8   9
ENDBRANCH   4   8
BRANCH   1  15
ATOM     15  C   UNL     1      33.298 -13.962 -24.034  0.00  0.00    +0.015 C 
BRANCH  15  16
ATOM     16  CA  UNL     1      33.178 -12.766 -23.076  0.00  0.00    +0.040 C 
BRANCH  16  17
ATOM     17  N   UNL     1      31.813 -12.674 -22.567  0.00  0.00    +0.389 N 
ATOM     18  H1  UNL     1      31.420 -13.612 -22.477  0.00  0.00    -0.088 HD
ATOM     19  H2  UNL     1      31.244 -12.129 -23.215  0.00  0.00    -0.088 HD
ATOM     20  H3  UNL     1      31.819 -12.220 -21.654  0.00  0.00    -0.088 HD
ENDBRANCH  16  17
BRANCH  16  22
ATOM     21  OXT UNL     1      32.847 -10.409 -23.596  0.00  0.00    -0.253 OA
ATOM     22  C   UNL     1      33.474 -11.447 -23.770  0.00  0.00    +0.293 C 
BRANCH  22  23
ATOM     23  O   UNL     1      34.549 -11.527 -24.595  0.00  0.00    -0.482 OA
ATOM     24  H   UNL     1      35.182 -12.208 -24.476  0.00  0.00    +0.295 HD
ENDBRANCH  22  23
ENDBRANCH  16  22
ENDBRANCH  15  16
ENDBRANCH   1  15
TORSDOF 7
ENDMDL
MODEL 3
REMARK VINA RESULT:      -9.4      3.462      5.683
REMARK  Name = 7020128
REMARK  7 active torsions:
REMARK  status: ('A' for Active; 'I' for Inactive)
REMARK    1  A    between atoms: C_1  and  C_15
REMARK    2  A    between atoms: C_4  and  C_8
REMARK    3  A    between atoms: C_8  and  C_9
REMARK    4  A    between atoms: C_15  and  CA_16
REMARK    5  A    between atoms: CA_16  and  N_17
REMARK    6  A    between atoms: CA_16  and  C_22
REMARK    7  A    between atoms: C_22  and  O_23
REMARK                            x       y       z     vdW  Elec       q    Type
REMARK                         _______ _______ _______ _____ _____    ______ ____
ROOT
ATOM      1  C   UNL     1      33.947 -15.235 -23.575  0.00  0.00    -0.024 C 
ATOM      2  C   UNL     1      34.346 -16.323 -24.334  0.00  0.00    -0.004 C 
ATOM      3  C   UNL     1      34.146 -15.199 -22.206  0.00  0.00    -0.004 C 
ATOM      4  C   UNL     1      35.169 -17.384 -22.326  0.00  0.00    +0.039 C 
ATOM      5  C   UNL     1      34.961 -17.406 -23.705  0.00  0.00    +0.003 C 
ATOM      6  C   UNL     1      34.762 -16.281 -21.576  0.00  0.00    +0.003 C 
ENDROOT
BRANCH   4   8
ATOM      7  O   UNL     1      37.042 -18.641 -21.708  0.00  0.00    -0.287 OA
ATOM      8  C   UNL     1      35.810 -18.512 -21.669  0.00  0.00    +0.196 C 
BRANCH   8   9
ATOM      9  C   UNL     1      35.035 -19.553 -20.929  0.00  0.00    +0.039 C 
ATOM     10  C   UNL     1      35.727 -20.531 -20.253  0.00  0.00    +0.003 C 
ATOM     11  C   UNL     1      33.661 -19.491 -20.951  0.00  0.00    +0.003 C 
ATOM     12  C   UNL     1      35.004 -21.503 -19.560  0.00  0.00    +0.000 C 
ATOM     13  C   UNL     1      32.938 -20.462 -20.260  0.00  0.00    +0.000 C 
ATOM     14  C   UNL     1      33.610 -21.468 -19.564  0.00  0.00    +0.000 C 
ENDBRANCH   8   9
ENDBRANCH   4   8
BRANCH   1  15
ATOM     15  C   UNL     1      33.281 -14.063 -24.257  0.00  0.00    +0.015 C 
BRANCH  15  16
ATOM     16  CA  UNL     1      33.678 -12.710 -23.643  0.00  0.00    +0.040 C 
BRANCH  16  17
ATOM     17  N   UNL     1      32.542 -12.142 -22.922  0.00  0.00    +0.389 N 
ATOM     18  H1  UNL     1      32.854 -11.800 -22.012  0.00  0.00    -0.088 HD
ATOM     19  H2  UNL     1      31.830 -12.860 -22.789  0.00  0.00    -0.088 HD
ATOM     20  H3  UNL     1      32.150 -11.369 -23.458  0.00  0.00    -0.088 HD
ENDBRANCH  16  17
BRANCH  16  22
ATOM     21  OXT UNL     1      33.771 -11.771 -25.890  0.00  0.00    -0.253 OA
ATOM     22  C   UNL     1      34.070 -11.695 -24.704  0.00  0.00    +0.293 C 
BRANCH  22  23
ATOM     23  O   UNL     1      34.772 -10.654 -24.188  0.00  0.00    -0.482 OA
ATOM     24  H   UNL     1      34.340 -10.014 -23.656  0.00  0.00    +0.295 HD
ENDBRANCH  22  23
ENDBRANCH  16  22
ENDBRANCH  15  16
ENDBRANCH   1  15
TORSDOF 7
ENDMDL
MODEL 4
REMARK VINA RESULT:      -9.2      4.348      8.136
REMARK  Name = 7020128
REMARK  7 active torsions:
REMARK  status: ('A' for Active; 'I' for Inactive)
REMARK    1  A    between atoms: C_1  and  C_15
REMARK    2  A    between atoms: C_4  and  C_8
REMARK    3  A    between atoms: C_8  and  C_9
REMARK    4  A    between atoms: C_15  and  CA_16
REMARK    5  A    between atoms: CA_16  and  N_17
REMARK    6  A    between atoms: CA_16  and  C_22
REMARK    7  A    between atoms: C_22  and  O_23
REMARK                            x       y       z     vdW  Elec       q    Type
REMARK                         _______ _______ _______ _____ _____    ______ ____
ROOT
ATOM      1  C   UNL     1      35.522 -22.979 -15.003  0.00  0.00    -0.024 C 
ATOM      2  C   UNL     1      34.253 -23.414 -15.345  0.00  0.00    -0.004 C 
ATOM      3  C   UNL     1      36.381 -22.445 -15.948  0.00  0.00    -0.004 C 
ATOM      4  C   UNL     1      34.684 -22.776 -17.635  0.00  0.00    +0.039 C 
ATOM      5  C   UNL     1      33.830 -23.312 -16.671  0.00  0.00    +0.003 C 
ATOM      6  C   UNL     1      35.959 -22.342 -17.274  0.00  0.00    +0.003 C 
ENDROOT
BRANCH   4   8
ATOM      7  O   UNL     1      33.891 -23.680 -19.641  0.00  0.00    -0.287 OA
ATOM      8  C   UNL     1      34.244 -22.669 -19.017  0.00  0.00    +0.196 C 
BRANCH   8   9
ATOM      9  C   UNL     1      34.195 -21.364 -19.743  0.00  0.00    +0.039 C 
ATOM     10  C   UNL     1      35.373 -20.820 -20.199  0.00  0.00    +0.003 C 
ATOM     11  C   UNL     1      32.973 -20.759 -19.928  0.00  0.00    +0.003 C 
ATOM     12  C   UNL     1      35.328 -19.602 -20.878  0.00  0.00    +0.000 C 
ATOM     13  C   UNL     1      32.928 -19.542 -20.606  0.00  0.00    +0.000 C 
ATOM     14  C   UNL     1      34.105 -18.963 -21.081  0.00  0.00    +0.000 C 
ENDBRANCH   8   9
ENDBRANCH   4   8
BRANCH   1  15
ATOM     15  C   UNL     1      35.979 -23.091 -13.567  0.00  0.00    +0.015 C 
BRANCH  15  16
ATOM     16  CA  UNL     1      37.282 -23.893 -13.415  0.00  0.00    +0.040 C 
BRANCH  16  17
ATOM     17  N   UNL     1      37.041 -25.294 -13.749  0.00  0.00    +0.389 N 
ATOM     18  H1  UNL     1      37.471 -25.507 -14.649  0.00  0.00    -0.088 HD
ATOM     19  H2  UNL     1      36.037 -25.464 -13.803  0.00  0.00    -0.088 HD
ATOM     20  H3  UNL     1      37.449 -25.891 -13.029  0.00  0.00    -0.088 HD
ENDBRANCH  16  17
BRANCH  16  22
ATOM     21  OXT UNL     1      37.787 -24.825 -11.221  0.00  0.00    -0.253 OA
ATOM     22  C   UNL     1      37.802 -23.870 -11.987  0.00  0.00    +0.293 C 
BRANCH  22  23
ATOM     23  O   UNL     1      38.331 -22.665 -11.650  0.00  0.00    -0.482 OA
ATOM     24  H   UNL     1      39.234 -22.484 -11.823  0.00  0.00    +0.295 HD
ENDBRANCH  22  23
ENDBRANCH  16  22
ENDBRANCH  15  16
ENDBRANCH   1  15
TORSDOF 7
ENDMDL
MODEL 5
REMARK VINA RESULT:      -9.2      4.398      8.138
REMARK  Name = 7020128
REMARK  7 active torsions:
REMARK  status: ('A' for Active; 'I' for Inactive)
REMARK    1  A    between atoms: C_1  and  C_15
REMARK    2  A    between atoms: C_4  and  C_8
REMARK    3  A    between atoms: C_8  and  C_9
REMARK    4  A    between atoms: C_15  and  CA_16
REMARK    5  A    between atoms: CA_16  and  N_17
REMARK    6  A    between atoms: CA_16  and  C_22
REMARK    7  A    between atoms: C_22  and  O_23
REMARK                            x       y       z     vdW  Elec       q    Type
REMARK                         _______ _______ _______ _____ _____    ______ ____
ROOT
ATOM      1  C   UNL     1      35.492 -22.993 -14.986  0.00  0.00    -0.024 C 
ATOM      2  C   UNL     1      34.233 -23.436 -15.355  0.00  0.00    -0.004 C 
ATOM      3  C   UNL     1      36.364 -22.444 -15.910  0.00  0.00    -0.004 C 
ATOM      4  C   UNL     1      34.702 -22.776 -17.632  0.00  0.00    +0.039 C 
ATOM      5  C   UNL     1      33.835 -23.327 -16.689  0.00  0.00    +0.003 C 
ATOM      6  C   UNL     1      35.967 -22.335 -17.243  0.00  0.00    +0.003 C 
ENDROOT
BRANCH   4   8
ATOM      7  O   UNL     1      33.900 -23.663 -19.641  0.00  0.00    -0.287 OA
ATOM      8  C   UNL     1      34.289 -22.663 -19.021  0.00  0.00    +0.196 C 
BRANCH   8   9
ATOM      9  C   UNL     1      34.308 -21.364 -19.759  0.00  0.00    +0.039 C 
ATOM     10  C   UNL     1      33.114 -20.730 -20.006  0.00  0.00    +0.003 C 
ATOM     11  C   UNL     1      35.521 -20.853 -20.160  0.00  0.00    +0.003 C 
ATOM     12  C   UNL     1      33.131 -19.516 -20.693  0.00  0.00    +0.000 C 
ATOM     13  C   UNL     1      35.539 -19.640 -20.848  0.00  0.00    +0.000 C 
ATOM     14  C   UNL     1      34.344 -18.972 -21.114  0.00  0.00    +0.000 C 
ENDBRANCH   8   9
ENDBRANCH   4   8
BRANCH   1  15
ATOM     15  C   UNL     1      35.922 -23.111 -13.542  0.00  0.00    +0.015 C 
BRANCH  15  16
ATOM     16  CA  UNL     1      37.051 -24.134 -13.336  0.00  0.00    +0.040 C 
BRANCH  16  17
ATOM     17  N   UNL     1      36.488 -25.475 -13.216  0.00  0.00    +0.389 N 
ATOM     18  H1  UNL     1      35.571 -25.421 -12.771  0.00  0.00    -0.088 HD
ATOM     19  H2  UNL     1      37.106 -26.055 -12.649  0.00  0.00    -0.088 HD
ATOM     20  H3  UNL     1      36.389 -25.888 -14.144  0.00  0.00    -0.088 HD
ENDBRANCH  16  17
BRANCH  16  22
ATOM     21  OXT UNL     1      38.301 -22.790 -11.734  0.00  0.00    -0.253 OA
ATOM     22  C   UNL     1      37.831 -23.874 -12.059  0.00  0.00    +0.293 C 
BRANCH  22  23
ATOM     23  O   UNL     1      37.928 -24.980 -11.278  0.00  0.00    -0.482 OA
ATOM     24  H   UNL     1      38.249 -25.783 -11.639  0.00  0.00    +0.295 HD
ENDBRANCH  22  23
ENDBRANCH  16  22
ENDBRANCH  15  16
ENDBRANCH   1  15
TORSDOF 7
ENDMDL
MODEL 6
REMARK VINA RESULT:      -9.2      2.768      7.735
REMARK  Name = 7020128
REMARK  7 active torsions:
REMARK  status: ('A' for Active; 'I' for Inactive)
REMARK    1  A    between atoms: C_1  and  C_15
REMARK    2  A    between atoms: C_4  and  C_8
REMARK    3  A    between atoms: C_8  and  C_9
REMARK    4  A    between atoms: C_15  and  CA_16
REMARK    5  A    between atoms: CA_16  and  N_17
REMARK    6  A    between atoms: CA_16  and  C_22
REMARK    7  A    between atoms: C_22  and  O_23
REMARK                            x       y       z     vdW  Elec       q    Type
REMARK                         _______ _______ _______ _____ _____    ______ ____
ROOT
ATOM      1  C   UNL     1      34.009 -21.920 -19.259  0.00  0.00    -0.024 C 
ATOM      2  C   UNL     1      35.350 -21.625 -19.445  0.00  0.00    -0.004 C 
ATOM      3  C   UNL     1      33.014 -21.076 -19.720  0.00  0.00    -0.004 C 
ATOM      4  C   UNL     1      34.714 -19.590 -20.582  0.00  0.00    +0.039 C 
ATOM      5  C   UNL     1      35.705 -20.452 -20.111  0.00  0.00    +0.003 C 
ATOM      6  C   UNL     1      33.368 -19.902 -20.387  0.00  0.00    +0.003 C 
ENDROOT
BRANCH   4   8
ATOM      7  O   UNL     1      35.610 -17.432 -20.656  0.00  0.00    -0.287 OA
ATOM      8  C   UNL     1      35.083 -18.367 -21.276  0.00  0.00    +0.196 C 
BRANCH   8   9
ATOM      9  C   UNL     1      34.853 -18.177 -22.740  0.00  0.00    +0.039 C 
ATOM     10  C   UNL     1      34.750 -16.895 -23.228  0.00  0.00    +0.003 C 
ATOM     11  C   UNL     1      34.755 -19.291 -23.541  0.00  0.00    +0.003 C 
ATOM     12  C   UNL     1      34.536 -16.716 -24.595  0.00  0.00    +0.000 C 
ATOM     13  C   UNL     1      34.541 -19.113 -24.907  0.00  0.00    +0.000 C 
ATOM     14  C   UNL     1      34.432 -17.826 -25.434  0.00  0.00    +0.000 C 
ENDBRANCH   8   9
ENDBRANCH   4   8
BRANCH   1  15
ATOM     15  C   UNL     1      33.626 -23.191 -18.538  0.00  0.00    +0.015 C 
BRANCH  15  16
ATOM     16  CA  UNL     1      33.435 -22.986 -17.026  0.00  0.00    +0.040 C 
BRANCH  16  17
ATOM     17  N   UNL     1      34.172 -24.010 -16.291  0.00  0.00    +0.389 N 
ATOM     18  H1  UNL     1      34.631 -24.638 -16.952  0.00  0.00    -0.088 HD
ATOM     19  H2  UNL     1      33.526 -24.544 -15.709  0.00  0.00    -0.088 HD
ATOM     20  H3  UNL     1      34.876 -23.567 -15.701  0.00  0.00    -0.088 HD
ENDBRANCH  16  17
BRANCH  16  22
ATOM     21  OXT UNL     1      31.039 -22.571 -17.177  0.00  0.00    -0.253 OA
ATOM     22  C   UNL     1      31.979 -23.116 -16.611  0.00  0.00    +0.293 C 
BRANCH  22  23
ATOM     23  O   UNL     1      31.817 -23.945 -15.548  0.00  0.00    -0.482 OA
ATOM     24  H   UNL     1      31.138 -23.779 -14.923  0.00  0.00    +0.295 HD
ENDBRANCH  22  23
ENDBRANCH  16  22
ENDBRANCH  15  16
ENDBRANCH   1  15
TORSDOF 7
ENDMDL
MODEL 7
REMARK VINA RESULT:      -8.9      1.654      2.324
REMARK  Name = 7020128
REMARK  7 active torsions:
REMARK  status: ('A' for Active; 'I' for Inactive)
REMARK    1  A    between atoms: C_1  and  C_15
REMARK    2  A    between atoms: C_4  and  C_8
REMARK    3  A    between atoms: C_8  and  C_9
REMARK    4  A    between atoms: C_15  and  CA_16
REMARK    5  A    between atoms: CA_16  and  N_17
REMARK    6  A    between atoms: CA_16  and  C_22
REMARK    7  A    between atoms: C_22  and  O_23
REMARK                            x       y       z     vdW  Elec       q    Type
REMARK                         _______ _______ _______ _____ _____    ______ ____
ROOT
ATOM      1  C   UNL     1      34.259 -19.300 -21.276  0.00  0.00    -0.024 C 
ATOM      2  C   UNL     1      35.485 -19.891 -21.018  0.00  0.00    -0.004 C 
ATOM      3  C   UNL     1      33.096 -19.764 -20.686  0.00  0.00    -0.004 C 
ATOM      4  C   UNL     1      34.385 -21.457 -19.542  0.00  0.00    +0.039 C 
ATOM      5  C   UNL     1      35.549 -20.978 -20.145  0.00  0.00    +0.003 C 
ATOM      6  C   UNL     1      33.159 -20.850 -19.813  0.00  0.00    +0.003 C 
ENDROOT
BRANCH   4   8
ATOM      7  O   UNL     1      33.803 -23.619 -18.870  0.00  0.00    -0.287 OA
ATOM      8  C   UNL     1      34.451 -22.589 -18.633  0.00  0.00    +0.196 C 
BRANCH   8   9
ATOM      9  C   UNL     1      35.284 -22.573 -17.393  0.00  0.00    +0.039 C 
ATOM     10  C   UNL     1      36.545 -22.028 -17.455  0.00  0.00    +0.003 C 
ATOM     11  C   UNL     1      34.756 -23.103 -16.238  0.00  0.00    +0.003 C 
ATOM     12  C   UNL     1      37.323 -22.011 -16.297  0.00  0.00    +0.000 C 
ATOM     13  C   UNL     1      35.533 -23.087 -15.081  0.00  0.00    +0.000 C 
ATOM     14  C   UNL     1      36.817 -22.541 -15.110  0.00  0.00    +0.000 C 
ENDBRANCH   8   9
ENDBRANCH   4   8
BRANCH   1  15
ATOM     15  C   UNL     1      34.191 -18.123 -22.221  0.00  0.00    +0.015 C 
BRANCH  15  16
ATOM     16  CA  UNL     1      35.141 -16.981 -21.824  0.00  0.00    +0.040 C 
BRANCH  16  17
ATOM     17  N   UNL     1      34.789 -16.485 -20.496  0.00  0.00    +0.389 N 
ATOM     18  H1  UNL     1      33.794 -16.259 -20.470  0.00  0.00    -0.088 HD
ATOM     19  H2  UNL     1      35.333 -15.647 -20.290  0.00  0.00    -0.088 HD
ATOM     20  H3  UNL     1      34.992 -17.202 -19.800  0.00  0.00    -0.088 HD
ENDBRANCH  16  17
BRANCH  16  22
ATOM     21  OXT UNL     1      34.553 -14.711 -22.483  0.00  0.00    -0.253 OA
ATOM     22  C   UNL     1      35.038 -15.798 -22.771  0.00  0.00    +0.293 C 
BRANCH  22  23
ATOM     23  O   UNL     1      35.583 -16.060 -23.987  0.00  0.00    -0.482 OA
ATOM     24  H   UNL     1      35.365 -16.853 -24.437  0.00  0.00    +0.295 HD
ENDBRANCH  22  23
ENDBRANCH  16  22
ENDBRANCH  15  16
ENDBRANCH   1  15
TORSDOF 7
ENDMDL
MODEL 8
REMARK VINA RESULT:      -8.9      4.021      8.056
REMARK  Name = 7020128
REMARK  7 active torsions:
REMARK  status: ('A' for Active; 'I' for Inactive)
REMARK    1  A    between atoms: C_1  and  C_15
REMARK    2  A    between atoms: C_4  and  C_8
REMARK    3  A    between atoms: C_8  and  C_9
REMARK    4  A    between atoms: C_15  and  CA_16
REMARK    5  A    between atoms: CA_16  and  N_17
REMARK    6  A    between atoms: CA_16  and  C_22
REMARK    7  A    between atoms: C_22  and  O_23
REMARK                            x       y       z     vdW  Elec       q    Type
REMARK                         _______ _______ _______ _____ _____    ______ ____
ROOT
ATOM      1  C   UNL     1      35.786 -23.255 -15.774  0.00  0.00    -0.024 C 
ATOM      2  C   UNL     1      34.471 -23.585 -16.057  0.00  0.00    -0.004 C 
ATOM      3  C   UNL     1      36.536 -22.476 -16.639  0.00  0.00    -0.004 C 
ATOM      4  C   UNL     1      34.632 -22.338 -18.120  0.00  0.00    +0.039 C 
ATOM      5  C   UNL     1      33.889 -23.124 -17.238  0.00  0.00    +0.003 C 
ATOM      6  C   UNL     1      35.955 -22.014 -17.820  0.00  0.00    +0.003 C 
ENDROOT
BRANCH   4   8
ATOM      7  O   UNL     1      33.035 -22.429 -19.825  0.00  0.00    -0.287 OA
ATOM      8  C   UNL     1      34.027 -21.857 -19.351  0.00  0.00    +0.196 C 
BRANCH   8   9
ATOM      9  C   UNL     1      34.557 -20.673 -20.094  0.00  0.00    +0.039 C 
ATOM     10  C   UNL     1      35.919 -20.518 -20.199  0.00  0.00    +0.003 C 
ATOM     11  C   UNL     1      33.660 -19.788 -20.645  0.00  0.00    +0.003 C 
ATOM     12  C   UNL     1      36.414 -19.414 -20.893  0.00  0.00    +0.000 C 
ATOM     13  C   UNL     1      34.154 -18.684 -21.339  0.00  0.00    +0.000 C 
ATOM     14  C   UNL     1      35.531 -18.497 -21.463  0.00  0.00    +0.000 C 
ENDBRANCH   8   9
ENDBRANCH   4   8
BRANCH   1  15
ATOM     15  C   UNL     1      36.415 -23.755 -14.495  0.00  0.00    +0.015 C 
BRANCH  15  16
ATOM     16  CA  UNL     1      36.135 -25.244 -14.233  0.00  0.00    +0.040 C 
BRANCH  16  17
ATOM     17  N   UNL     1      36.438 -25.567 -12.842  0.00  0.00    +0.389 N 
ATOM     18  H1  UNL     1      35.745 -25.131 -12.233  0.00  0.00    -0.088 HD
ATOM     19  H2  UNL     1      37.366 -25.216 -12.605  0.00  0.00    -0.088 HD
ATOM     20  H3  UNL     1      36.413 -26.578 -12.714  0.00  0.00    -0.088 HD
ENDBRANCH  16  17
BRANCH  16  22
ATOM     21  OXT UNL     1      38.228 -26.217 -15.014  0.00  0.00    -0.253 OA
ATOM     22  C   UNL     1      37.007 -26.147 -15.089  0.00  0.00    +0.293 C 
BRANCH  22  23
ATOM     23  O   UNL     1      36.278 -26.912 -15.942  0.00  0.00    -0.482 OA
ATOM     24  H   UNL     1      36.700 -27.354 -16.652  0.00  0.00    +0.295 HD
ENDBRANCH  22  23
ENDBRANCH  16  22
ENDBRANCH  15  16
ENDBRANCH   1  15
TORSDOF 7
ENDMDL
MODEL 9
REMARK VINA RESULT:      -8.8      2.526      7.435
REMARK  Name = 7020128
REMARK  7 active torsions:
REMARK  status: ('A' for Active; 'I' for Inactive)
REMARK    1  A    between atoms: C_1  and  C_15
REMARK    2  A    between atoms: C_4  and  C_8
REMARK    3  A    between atoms: C_8  and  C_9
REMARK    4  A    between atoms: C_15  and  CA_16
REMARK    5  A    between atoms: CA_16  and  N_17
REMARK    6  A    between atoms: CA_16  and  C_22
REMARK    7  A    between atoms: C_22  and  O_23
REMARK                            x       y       z     vdW  Elec       q    Type
REMARK                         _______ _______ _______ _____ _____    ______ ____
ROOT
ATOM      1  C   UNL     1      35.531 -20.475 -20.478  0.00  0.00    -0.024 C 
ATOM      2  C   UNL     1      36.587 -19.636 -20.792  0.00  0.00    -0.004 C 
ATOM      3  C   UNL     1      34.239 -20.195 -20.887  0.00  0.00    -0.004 C 
ATOM      4  C   UNL     1      35.046 -18.184 -21.957  0.00  0.00    +0.039 C 
ATOM      5  C   UNL     1      36.343 -18.481 -21.537  0.00  0.00    +0.003 C 
ATOM      6  C   UNL     1      33.994 -19.041 -21.632  0.00  0.00    +0.003 C 
ENDROOT
BRANCH   4   8
ATOM      7  O   UNL     1      35.261 -16.861 -23.873  0.00  0.00    -0.287 OA
ATOM      8  C   UNL     1      34.790 -16.982 -22.733  0.00  0.00    +0.196 C 
BRANCH   8   9
ATOM      9  C   UNL     1      33.964 -15.852 -22.210  0.00  0.00    +0.039 C 
ATOM     10  C   UNL     1      33.405 -14.975 -23.109  0.00  0.00    +0.003 C 
ATOM     11  C   UNL     1      33.795 -15.735 -20.849  0.00  0.00    +0.003 C 
ATOM     12  C   UNL     1      32.632 -13.920 -22.621  0.00  0.00    +0.000 C 
ATOM     13  C   UNL     1      33.023 -14.681 -20.361  0.00  0.00    +0.000 C 
ATOM     14  C   UNL     1      32.442 -13.774 -21.247  0.00  0.00    +0.000 C 
ENDBRANCH   8   9
ENDBRANCH   4   8
BRANCH   1  15
ATOM     15  C   UNL     1      35.796 -21.725 -19.671  0.00  0.00    +0.015 C 
BRANCH  15  16
ATOM     16  CA  UNL     1      34.895 -21.839 -18.431  0.00  0.00    +0.040 C 
BRANCH  16  17
ATOM     17  N   UNL     1      35.643 -22.438 -17.330  0.00  0.00    +0.389 N 
ATOM     18  H1  UNL     1      36.616 -22.569 -17.610  0.00  0.00    -0.088 HD
ATOM     19  H2  UNL     1      35.235 -23.342 -17.092  0.00  0.00    -0.088 HD
ATOM     20  H3  UNL     1      35.605 -21.823 -16.517  0.00  0.00    -0.088 HD
ENDBRANCH  16  17
BRANCH  16  22
ATOM     21  OXT UNL     1      32.554 -22.499 -18.297  0.00  0.00    -0.253 OA
ATOM     22  C   UNL     1      33.693 -22.735 -18.679  0.00  0.00    +0.293 C 
BRANCH  22  23
ATOM     23  O   UNL     1      34.009 -23.832 -19.414  0.00  0.00    -0.482 OA
ATOM     24  H   UNL     1      34.693 -23.787 -20.054  0.00  0.00    +0.295 HD
ENDBRANCH  22  23
ENDBRANCH  16  22
ENDBRANCH  15  16
ENDBRANCH   1  15
TORSDOF 7
ENDMDL
