MODEL 1
REMARK VINA RESULT:     -11.4      0.000      0.000
REMARK  Name = 447649
REMARK  5 active torsions:
REMARK  status: ('A' for Active; 'I' for Inactive)
REMARK    1  A    between atoms: N_5  and  C_14
REMARK    2  A    between atoms: C_6  and  O_22
REMARK    3  A    between atoms: C_19  and  O_20
REMARK    4  A    between atoms: O_22  and  C_23
REMARK    5  A    between atoms: C_23  and  C_24
REMARK                            x       y       z     vdW  Elec       q    Type
REMARK                         _______ _______ _______ _____ _____    ______ ____
ROOT
ATOM      1  N   UNL     1      33.694 -23.555 -15.746  0.00  0.00    -0.293 NA
ATOM      2  N   UNL     1      37.370 -23.696 -15.752  0.00  0.00    -0.266 NA
ATOM      3  N   UNL     1      34.658 -24.555 -13.741  0.00  0.00    -0.316 NA
ATOM      4  N   UNL     1      37.087 -24.643 -13.755  0.00  0.00    -0.296 N 
ATOM      5  N   UNL     1      32.344 -24.340 -14.001  0.00  0.00    -0.238 N 
ATOM      6  C   UNL     1      34.918 -23.346 -16.281  0.00  0.00    +0.288 C 
ATOM      7  C   UNL     1      36.020 -23.740 -15.551  0.00  0.00    +0.215 C 
ATOM      8  C   UNL     1      35.870 -24.332 -14.304  0.00  0.00    +0.196 C 
ATOM      9  C   UNL     1      33.641 -24.139 -14.526  0.00  0.00    +0.207 C 
ATOM     10  C   UNL     1      37.967 -24.247 -14.651  0.00  0.00    +0.164 C 
ATOM     11  H   UNL     1      37.829 -23.333 -16.545  0.00  0.00    +0.126 HD
ATOM     12  H   UNL     1      37.265 -25.067 -12.884  0.00  0.00    +0.150 HD
ATOM     13  H   UNL     1      32.336 -24.765 -13.114  0.00  0.00    +0.166 HD
ENDROOT
BRANCH   5  14
ATOM     14  C   UNL     1      31.062 -24.051 -14.502  0.00  0.00    +0.059 C 
ATOM     15  C   UNL     1      30.191 -25.089 -14.841  0.00  0.00    +0.018 C 
ATOM     16  C   UNL     1      30.653 -22.725 -14.665  0.00  0.00    +0.018 C 
ATOM     17  C   UNL     1      28.920 -24.803 -15.339  0.00  0.00    +0.038 C 
ATOM     18  C   UNL     1      29.383 -22.439 -15.163  0.00  0.00    +0.038 C 
ATOM     19  C   UNL     1      28.515 -23.477 -15.500  0.00  0.00    +0.134 C 
BRANCH  19  20
ATOM     20  O   UNL     1      27.275 -23.199 -15.984  0.00  0.00    -0.506 OA
ATOM     21  H   UNL     1      26.772 -22.500 -15.615  0.00  0.00    +0.292 HD
ENDBRANCH  19  20
ENDBRANCH   5  14
BRANCH   6  22
ATOM     22  O   UNL     1      35.007 -22.757 -17.519  0.00  0.00    -0.453 OA
BRANCH  22  23
ATOM     23  C   UNL     1      33.827 -22.716 -18.298  0.00  0.00    +0.208 C 
BRANCH  23  24
ATOM     24  C   UNL     1      34.101 -21.880 -19.547  0.00  0.00    +0.044 C 
ATOM     25  C   UNL     1      33.026 -20.800 -19.725  0.00  0.00    +0.004 C 
ATOM     26  C   UNL     1      35.501 -21.252 -19.483  0.00  0.00    +0.004 C 
ATOM     27  C   UNL     1      33.308 -19.917 -20.939  0.00  0.00    +0.000 C 
ATOM     28  C   UNL     1      35.779 -20.368 -20.696  0.00  0.00    +0.000 C 
ATOM     29  C   UNL     1      34.702 -19.302 -20.874  0.00  0.00    +0.000 C 
ENDBRANCH  23  24
ENDBRANCH  22  23
ENDBRANCH   6  22
TORSDOF 5
ENDMDL
MODEL 2
REMARK VINA RESULT:     -11.3      1.937      5.493
REMARK  Name = 447649
REMARK  5 active torsions:
REMARK  status: ('A' for Active; 'I' for Inactive)
REMARK    1  A    between atoms: N_5  and  C_14
REMARK    2  A    between atoms: C_6  and  O_22
REMARK    3  A    between atoms: C_19  and  O_20
REMARK    4  A    between atoms: O_22  and  C_23
REMARK    5  A    between atoms: C_23  and  C_24
REMARK                            x       y       z     vdW  Elec       q    Type
REMARK                         _______ _______ _______ _____ _____    ______ ____
ROOT
ATOM      1  N   UNL     1      33.014 -23.399 -16.057  0.00  0.00    -0.293 NA
ATOM      2  N   UNL     1      29.543 -22.656 -17.023  0.00  0.00    -0.266 NA
ATOM      3  N   UNL     1      31.353 -24.046 -14.391  0.00  0.00    -0.316 NA
ATOM      4  N   UNL     1      29.064 -23.552 -15.039  0.00  0.00    -0.296 N 
ATOM      5  N   UNL     1      33.638 -24.403 -14.035  0.00  0.00    -0.238 N 
ATOM      6  C   UNL     1      32.058 -22.927 -16.887  0.00  0.00    +0.288 C 
ATOM      7  C   UNL     1      30.743 -23.012 -16.477  0.00  0.00    +0.215 C 
ATOM      8  C   UNL     1      30.419 -23.566 -15.246  0.00  0.00    +0.196 C 
ATOM      9  C   UNL     1      32.607 -23.921 -14.875  0.00  0.00    +0.207 C 
ATOM     10  C   UNL     1      28.567 -22.999 -16.126  0.00  0.00    +0.164 C 
ATOM     11  H   UNL     1      29.405 -22.231 -17.901  0.00  0.00    +0.126 HD
ATOM     12  H   UNL     1      28.571 -23.882 -14.254  0.00  0.00    +0.150 HD
ATOM     13  H   UNL     1      33.313 -24.778 -13.185  0.00  0.00    +0.166 HD
ENDROOT
BRANCH   5  14
ATOM     14  C   UNL     1      35.036 -24.449 -14.178  0.00  0.00    +0.059 C 
ATOM     15  C   UNL     1      35.631 -25.468 -14.927  0.00  0.00    +0.018 C 
ATOM     16  C   UNL     1      35.837 -23.479 -13.572  0.00  0.00    +0.018 C 
ATOM     17  C   UNL     1      37.018 -25.515 -15.068  0.00  0.00    +0.038 C 
ATOM     18  C   UNL     1      37.223 -23.526 -13.713  0.00  0.00    +0.038 C 
ATOM     19  C   UNL     1      37.814 -24.543 -14.462  0.00  0.00    +0.134 C 
BRANCH  19  20
ATOM     20  O   UNL     1      39.167 -24.588 -14.601  0.00  0.00    -0.506 OA
ATOM     21  H   UNL     1      39.682 -23.823 -14.438  0.00  0.00    +0.292 HD
ENDBRANCH  19  20
ENDBRANCH   5  14
BRANCH   6  22
ATOM     22  O   UNL     1      32.436 -22.389 -18.094  0.00  0.00    -0.453 OA
BRANCH  22  23
ATOM     23  C   UNL     1      33.759 -22.645 -18.526  0.00  0.00    +0.208 C 
BRANCH  23  24
ATOM     24  C   UNL     1      34.056 -21.751 -19.728  0.00  0.00    +0.044 C 
ATOM     25  C   UNL     1      32.982 -20.665 -19.876  0.00  0.00    +0.004 C 
ATOM     26  C   UNL     1      35.452 -21.125 -19.606  0.00  0.00    +0.004 C 
ATOM     27  C   UNL     1      33.286 -19.725 -21.041  0.00  0.00    +0.000 C 
ATOM     28  C   UNL     1      35.753 -20.184 -20.770  0.00  0.00    +0.000 C 
ATOM     29  C   UNL     1      34.677 -19.112 -20.919  0.00  0.00    +0.000 C 
ENDBRANCH  23  24
ENDBRANCH  22  23
ENDBRANCH   6  22
TORSDOF 5
ENDMDL
MODEL 3
REMARK VINA RESULT:     -10.5      1.445      2.146
REMARK  Name = 447649
REMARK  5 active torsions:
REMARK  status: ('A' for Active; 'I' for Inactive)
REMARK    1  A    between atoms: N_5  and  C_14
REMARK    2  A    between atoms: C_6  and  O_22
REMARK    3  A    between atoms: C_19  and  O_20
REMARK    4  A    between atoms: O_22  and  C_23
REMARK    5  A    between atoms: C_23  and  C_24
REMARK                            x       y       z     vdW  Elec       q    Type
REMARK                         _______ _______ _______ _____ _____    ______ ____
ROOT
ATOM      1  N   UNL     1      34.526 -23.889 -14.562  0.00  0.00    -0.293 NA
ATOM      2  N   UNL     1      38.002 -23.775 -13.365  0.00  0.00    -0.266 NA
ATOM      3  N   UNL     1      34.751 -24.018 -12.136  0.00  0.00    -0.316 NA
ATOM      4  N   UNL     1      37.052 -23.943 -11.356  0.00  0.00    -0.296 N 
ATOM      5  N   UNL     1      32.652 -24.069 -13.168  0.00  0.00    -0.238 N 
ATOM      6  C   UNL     1      35.865 -23.809 -14.724  0.00  0.00    +0.288 C 
ATOM      7  C   UNL     1      36.657 -23.833 -13.595  0.00  0.00    +0.215 C 
ATOM      8  C   UNL     1      36.089 -23.937 -12.332  0.00  0.00    +0.196 C 
ATOM      9  C   UNL     1      34.058 -23.988 -13.294  0.00  0.00    +0.207 C 
ATOM     10  C   UNL     1      38.190 -23.844 -12.010  0.00  0.00    +0.164 C 
ATOM     11  H   UNL     1      38.707 -23.698 -14.048  0.00  0.00    +0.126 HD
ATOM     12  H   UNL     1      36.922 -24.006 -10.382  0.00  0.00    +0.150 HD
ATOM     13  H   UNL     1      32.341 -24.139 -12.237  0.00  0.00    +0.166 HD
ENDROOT
BRANCH   5  14
ATOM     14  C   UNL     1      31.612 -24.070 -14.114  0.00  0.00    +0.059 C 
ATOM     15  C   UNL     1      31.370 -22.935 -14.891  0.00  0.00    +0.018 C 
ATOM     16  C   UNL     1      30.816 -25.205 -14.282  0.00  0.00    +0.018 C 
ATOM     17  C   UNL     1      30.338 -22.935 -15.829  0.00  0.00    +0.038 C 
ATOM     18  C   UNL     1      29.784 -25.206 -15.220  0.00  0.00    +0.038 C 
ATOM     19  C   UNL     1      29.545 -24.071 -15.994  0.00  0.00    +0.134 C 
BRANCH  19  20
ATOM     20  O   UNL     1      28.539 -24.071 -16.910  0.00  0.00    -0.506 OA
ATOM     21  H   UNL     1      28.697 -24.380 -17.781  0.00  0.00    +0.292 HD
ENDBRANCH  19  20
ENDBRANCH   5  14
BRANCH   6  22
ATOM     22  O   UNL     1      36.373 -23.709 -15.997  0.00  0.00    -0.453 OA
BRANCH  22  23
ATOM     23  C   UNL     1      36.573 -22.405 -16.508  0.00  0.00    +0.208 C 
BRANCH  23  24
ATOM     24  C   UNL     1      35.993 -22.345 -17.920  0.00  0.00    +0.044 C 
ATOM     25  C   UNL     1      34.459 -22.333 -17.876  0.00  0.00    +0.004 C 
ATOM     26  C   UNL     1      36.527 -21.120 -18.674  0.00  0.00    +0.004 C 
ATOM     27  C   UNL     1      33.855 -22.220 -19.274  0.00  0.00    +0.000 C 
ATOM     28  C   UNL     1      35.920 -21.008 -20.070  0.00  0.00    +0.000 C 
ATOM     29  C   UNL     1      34.395 -21.006 -20.022  0.00  0.00    +0.000 C 
ENDBRANCH  23  24
ENDBRANCH  22  23
ENDBRANCH   6  22
TORSDOF 5
ENDMDL
MODEL 4
REMARK VINA RESULT:     -10.4      2.501      6.755
REMARK  Name = 447649
REMARK  5 active torsions:
REMARK  status: ('A' for Active; 'I' for Inactive)
REMARK    1  A    between atoms: N_5  and  C_14
REMARK    2  A    between atoms: C_6  and  O_22
REMARK    3  A    between atoms: C_19  and  O_20
REMARK    4  A    between atoms: O_22  and  C_23
REMARK    5  A    between atoms: C_23  and  C_24
REMARK                            x       y       z     vdW  Elec       q    Type
REMARK                         _______ _______ _______ _____ _____    ______ ____
ROOT
ATOM      1  N   UNL     1      35.208 -23.042 -17.035  0.00  0.00    -0.293 NA
ATOM      2  N   UNL     1      34.166 -21.182 -20.032  0.00  0.00    -0.266 NA
ATOM      3  N   UNL     1      36.930 -21.576 -17.948  0.00  0.00    -0.316 NA
ATOM      4  N   UNL     1      36.231 -20.351 -19.928  0.00  0.00    -0.296 N 
ATOM      5  N   UNL     1      37.324 -22.876 -16.044  0.00  0.00    -0.238 N 
ATOM      6  C   UNL     1      34.332 -22.683 -17.999  0.00  0.00    +0.288 C 
ATOM      7  C   UNL     1      34.747 -21.768 -18.944  0.00  0.00    +0.215 C 
ATOM      8  C   UNL     1      36.028 -21.236 -18.901  0.00  0.00    +0.196 C 
ATOM      9  C   UNL     1      36.437 -22.474 -17.070  0.00  0.00    +0.207 C 
ATOM     10  C   UNL     1      35.092 -20.342 -20.589  0.00  0.00    +0.164 C 
ATOM     11  H   UNL     1      33.248 -21.335 -20.356  0.00  0.00    +0.126 HD
ATOM     12  H   UNL     1      37.046 -19.836 -20.128  0.00  0.00    +0.150 HD
ATOM     13  H   UNL     1      38.208 -22.447 -16.094  0.00  0.00    +0.166 HD
ENDROOT
BRANCH   5  14
ATOM     14  C   UNL     1      37.188 -23.771 -14.968  0.00  0.00    +0.059 C 
ATOM     15  C   UNL     1      36.379 -23.439 -13.878  0.00  0.00    +0.018 C 
ATOM     16  C   UNL     1      37.860 -24.995 -14.983  0.00  0.00    +0.018 C 
ATOM     17  C   UNL     1      36.245 -24.326 -12.810  0.00  0.00    +0.038 C 
ATOM     18  C   UNL     1      37.726 -25.882 -13.915  0.00  0.00    +0.038 C 
ATOM     19  C   UNL     1      36.918 -25.548 -12.829  0.00  0.00    +0.134 C 
BRANCH  19  20
ATOM     20  O   UNL     1      36.785 -26.414 -11.787  0.00  0.00    -0.506 OA
ATOM     21  H   UNL     1      36.045 -26.987 -11.744  0.00  0.00    +0.292 HD
ENDBRANCH  19  20
ENDBRANCH   5  14
BRANCH   6  22
ATOM     22  O   UNL     1      33.076 -23.242 -17.994  0.00  0.00    -0.453 OA
BRANCH  22  23
ATOM     23  C   UNL     1      32.125 -22.678 -17.111  0.00  0.00    +0.208 C 
BRANCH  23  24
ATOM     24  C   UNL     1      31.707 -23.747 -16.103  0.00  0.00    +0.044 C 
ATOM     25  C   UNL     1      32.560 -23.655 -14.830  0.00  0.00    +0.004 C 
ATOM     26  C   UNL     1      30.214 -23.624 -15.770  0.00  0.00    +0.004 C 
ATOM     27  C   UNL     1      32.125 -24.681 -13.786  0.00  0.00    +0.000 C 
ATOM     28  C   UNL     1      29.783 -24.649 -14.723  0.00  0.00    +0.000 C 
ATOM     29  C   UNL     1      30.640 -24.561 -13.464  0.00  0.00    +0.000 C 
ENDBRANCH  23  24
ENDBRANCH  22  23
ENDBRANCH   6  22
TORSDOF 5
ENDMDL
MODEL 5
REMARK VINA RESULT:     -10.4      8.153     11.887
REMARK  Name = 447649
REMARK  5 active torsions:
REMARK  status: ('A' for Active; 'I' for Inactive)
REMARK    1  A    between atoms: N_5  and  C_14
REMARK    2  A    between atoms: C_6  and  O_22
REMARK    3  A    between atoms: C_19  and  O_20
REMARK    4  A    between atoms: O_22  and  C_23
REMARK    5  A    between atoms: C_23  and  C_24
REMARK                            x       y       z     vdW  Elec       q    Type
REMARK                         _______ _______ _______ _____ _____    ______ ____
ROOT
ATOM      1  N   UNL     1      34.155 -15.752 -23.389  0.00  0.00    -0.293 NA
ATOM      2  N   UNL     1      33.058 -12.983 -25.546  0.00  0.00    -0.266 NA
ATOM      3  N   UNL     1      34.116 -16.294 -25.767  0.00  0.00    -0.316 NA
ATOM      4  N   UNL     1      33.389 -14.458 -27.183  0.00  0.00    -0.296 N 
ATOM      5  N   UNL     1      34.774 -17.872 -24.170  0.00  0.00    -0.238 N 
ATOM      6  C   UNL     1      33.724 -14.494 -23.626  0.00  0.00    +0.288 C 
ATOM      7  C   UNL     1      33.485 -14.126 -24.934  0.00  0.00    +0.215 C 
ATOM      8  C   UNL     1      33.684 -15.027 -25.971  0.00  0.00    +0.196 C 
ATOM      9  C   UNL     1      34.321 -16.564 -24.460  0.00  0.00    +0.207 C 
ATOM     10  C   UNL     1      33.016 -13.229 -26.892  0.00  0.00    +0.164 C 
ATOM     11  H   UNL     1      32.823 -12.136 -25.101  0.00  0.00    +0.126 HD
ATOM     12  H   UNL     1      33.444 -14.874 -28.073  0.00  0.00    +0.150 HD
ATOM     13  H   UNL     1      34.886 -18.439 -24.966  0.00  0.00    +0.166 HD
ENDROOT
BRANCH   5  14
ATOM     14  C   UNL     1      35.093 -18.520 -22.963  0.00  0.00    +0.059 C 
ATOM     15  C   UNL     1      34.134 -19.299 -22.311  0.00  0.00    +0.018 C 
ATOM     16  C   UNL     1      36.369 -18.388 -22.411  0.00  0.00    +0.018 C 
ATOM     17  C   UNL     1      34.450 -19.942 -21.114  0.00  0.00    +0.038 C 
ATOM     18  C   UNL     1      36.685 -19.031 -21.214  0.00  0.00    +0.038 C 
ATOM     19  C   UNL     1      35.726 -19.808 -20.565  0.00  0.00    +0.134 C 
BRANCH  19  20
ATOM     20  O   UNL     1      36.033 -20.436 -19.398  0.00  0.00    -0.506 OA
ATOM     21  H   UNL     1      36.640 -21.150 -19.395  0.00  0.00    +0.292 HD
ENDBRANCH  19  20
ENDBRANCH   5  14
BRANCH   6  22
ATOM     22  O   UNL     1      33.543 -13.644 -22.561  0.00  0.00    -0.453 OA
BRANCH  22  23
ATOM     23  C   UNL     1      32.402 -13.859 -21.753  0.00  0.00    +0.208 C 
BRANCH  23  24
ATOM     24  C   UNL     1      31.720 -12.513 -21.511  0.00  0.00    +0.044 C 
ATOM     25  C   UNL     1      31.888 -12.075 -20.050  0.00  0.00    +0.004 C 
ATOM     26  C   UNL     1      32.271 -11.447 -22.468  0.00  0.00    +0.004 C 
ATOM     27  C   UNL     1      31.260 -10.706 -19.797  0.00  0.00    +0.000 C 
ATOM     28  C   UNL     1      31.644 -10.080 -22.210  0.00  0.00    +0.000 C 
ATOM     29  C   UNL     1      31.805  -9.652 -20.755  0.00  0.00    +0.000 C 
ENDBRANCH  23  24
ENDBRANCH  22  23
ENDBRANCH   6  22
TORSDOF 5
ENDMDL
MODEL 6
REMARK VINA RESULT:     -10.3      2.113      5.941
REMARK  Name = 447649
REMARK  5 active torsions:
REMARK  status: ('A' for Active; 'I' for Inactive)
REMARK    1  A    between atoms: N_5  and  C_14
REMARK    2  A    between atoms: C_6  and  O_22
REMARK    3  A    between atoms: C_19  and  O_20
REMARK    4  A    between atoms: O_22  and  C_23
REMARK    5  A    between atoms: C_23  and  C_24
REMARK                            x       y       z     vdW  Elec       q    Type
REMARK                         _______ _______ _______ _____ _____    ______ ____
ROOT
ATOM      1  N   UNL     1      35.485 -23.543 -15.869  0.00  0.00    -0.293 NA
ATOM      2  N   UNL     1      36.357 -25.444 -12.843  0.00  0.00    -0.266 NA
ATOM      3  N   UNL     1      37.859 -23.495 -15.309  0.00  0.00    -0.316 NA
ATOM      4  N   UNL     1      38.424 -24.753 -13.309  0.00  0.00    -0.296 N 
ATOM      5  N   UNL     1      37.027 -22.370 -17.184  0.00  0.00    -0.238 N 
ATOM      6  C   UNL     1      35.206 -24.321 -14.800  0.00  0.00    +0.288 C 
ATOM      7  C   UNL     1      36.250 -24.691 -13.978  0.00  0.00    +0.215 C 
ATOM      8  C   UNL     1      37.546 -24.274 -14.246  0.00  0.00    +0.196 C 
ATOM      9  C   UNL     1      36.777 -23.183 -16.055  0.00  0.00    +0.207 C 
ATOM     10  C   UNL     1      37.677 -25.453 -12.480  0.00  0.00    +0.164 C 
ATOM     11  H   UNL     1      35.620 -25.897 -12.372  0.00  0.00    +0.126 HD
ATOM     12  H   UNL     1      39.397 -24.609 -13.265  0.00  0.00    +0.150 HD
ATOM     13  H   UNL     1      37.973 -22.124 -17.295  0.00  0.00    +0.166 HD
ENDROOT
BRANCH   5  14
ATOM     14  C   UNL     1      36.185 -21.843 -18.180  0.00  0.00    +0.059 C 
ATOM     15  C   UNL     1      34.829 -22.179 -18.202  0.00  0.00    +0.018 C 
ATOM     16  C   UNL     1      36.700 -20.981 -19.151  0.00  0.00    +0.018 C 
ATOM     17  C   UNL     1      33.994 -21.658 -19.190  0.00  0.00    +0.038 C 
ATOM     18  C   UNL     1      35.864 -20.460 -20.139  0.00  0.00    +0.038 C 
ATOM     19  C   UNL     1      34.512 -20.797 -20.159  0.00  0.00    +0.134 C 
BRANCH  19  20
ATOM     20  O   UNL     1      33.696 -20.287 -21.121  0.00  0.00    -0.506 OA
ATOM     21  H   UNL     1      33.388 -20.837 -21.814  0.00  0.00    +0.292 HD
ENDBRANCH  19  20
ENDBRANCH   5  14
BRANCH   6  22
ATOM     22  O   UNL     1      33.904 -24.704 -14.581  0.00  0.00    -0.453 OA
BRANCH  22  23
ATOM     23  C   UNL     1      33.173 -23.975 -13.613  0.00  0.00    +0.208 C 
BRANCH  23  24
ATOM     24  C   UNL     1      31.752 -23.768 -14.134  0.00  0.00    +0.044 C 
ATOM     25  C   UNL     1      31.775 -23.215 -15.565  0.00  0.00    +0.004 C 
ATOM     26  C   UNL     1      30.955 -25.078 -14.068  0.00  0.00    +0.004 C 
ATOM     27  C   UNL     1      30.365 -23.049 -16.128  0.00  0.00    +0.000 C 
ATOM     28  C   UNL     1      29.547 -24.910 -14.633  0.00  0.00    +0.000 C 
ATOM     29  C   UNL     1      29.573 -24.351 -16.052  0.00  0.00    +0.000 C 
ENDBRANCH  23  24
ENDBRANCH  22  23
ENDBRANCH   6  22
TORSDOF 5
ENDMDL
MODEL 7
REMARK VINA RESULT:     -10.2      2.512      6.844
REMARK  Name = 447649
REMARK  5 active torsions:
REMARK  status: ('A' for Active; 'I' for Inactive)
REMARK    1  A    between atoms: N_5  and  C_14
REMARK    2  A    between atoms: C_6  and  O_22
REMARK    3  A    between atoms: C_19  and  O_20
REMARK    4  A    between atoms: O_22  and  C_23
REMARK    5  A    between atoms: C_23  and  C_24
REMARK                            x       y       z     vdW  Elec       q    Type
REMARK                         _______ _______ _______ _____ _____    ______ ____
ROOT
ATOM      1  N   UNL     1      33.719 -22.842 -16.368  0.00  0.00    -0.293 NA
ATOM      2  N   UNL     1      32.446 -24.694 -13.457  0.00  0.00    -0.266 NA
ATOM      3  N   UNL     1      31.439 -23.669 -16.630  0.00  0.00    -0.316 NA
ATOM      4  N   UNL     1      30.607 -24.891 -14.701  0.00  0.00    -0.296 N 
ATOM      5  N   UNL     1      32.497 -22.457 -18.329  0.00  0.00    -0.238 N 
ATOM      6  C   UNL     1      33.812 -23.369 -15.127  0.00  0.00    +0.288 C 
ATOM      7  C   UNL     1      32.720 -24.048 -14.628  0.00  0.00    +0.215 C 
ATOM      8  C   UNL     1      31.563 -24.184 -15.383  0.00  0.00    +0.196 C 
ATOM      9  C   UNL     1      32.554 -23.023 -17.034  0.00  0.00    +0.207 C 
ATOM     10  C   UNL     1      31.170 -25.182 -13.546  0.00  0.00    +0.164 C 
ATOM     11  H   UNL     1      33.055 -24.792 -12.688  0.00  0.00    +0.126 HD
ATOM     12  H   UNL     1      29.701 -25.127 -15.004  0.00  0.00    +0.150 HD
ATOM     13  H   UNL     1      31.639 -22.604 -18.788  0.00  0.00    +0.166 HD
ENDROOT
BRANCH   5  14
ATOM     14  C   UNL     1      33.429 -21.728 -19.088  0.00  0.00    +0.059 C 
ATOM     15  C   UNL     1      33.003 -20.662 -19.885  0.00  0.00    +0.018 C 
ATOM     16  C   UNL     1      34.784 -22.064 -19.050  0.00  0.00    +0.018 C 
ATOM     17  C   UNL     1      33.927 -19.938 -20.639  0.00  0.00    +0.038 C 
ATOM     18  C   UNL     1      35.708 -21.341 -19.804  0.00  0.00    +0.038 C 
ATOM     19  C   UNL     1      35.280 -20.278 -20.598  0.00  0.00    +0.134 C 
BRANCH  19  20
ATOM     20  O   UNL     1      36.181 -19.571 -21.332  0.00  0.00    -0.506 OA
ATOM     21  H   UNL     1      36.524 -19.929 -22.127  0.00  0.00    +0.292 HD
ENDBRANCH  19  20
ENDBRANCH   5  14
BRANCH   6  22
ATOM     22  O   UNL     1      34.981 -23.204 -14.424  0.00  0.00    -0.453 OA
BRANCH  22  23
ATOM     23  C   UNL     1      36.159 -22.984 -15.178  0.00  0.00    +0.208 C 
BRANCH  23  24
ATOM     24  C   UNL     1      37.312 -23.722 -14.499  0.00  0.00    +0.044 C 
ATOM     25  C   UNL     1      37.252 -23.539 -12.977  0.00  0.00    +0.004 C 
ATOM     26  C   UNL     1      37.297 -25.210 -14.872  0.00  0.00    +0.004 C 
ATOM     27  C   UNL     1      38.365 -24.312 -12.272  0.00  0.00    +0.000 C 
ATOM     28  C   UNL     1      38.409 -25.980 -14.164  0.00  0.00    +0.000 C 
ATOM     29  C   UNL     1      38.351 -25.789 -12.652  0.00  0.00    +0.000 C 
ENDBRANCH  23  24
ENDBRANCH  22  23
ENDBRANCH   6  22
TORSDOF 5
ENDMDL
MODEL 8
REMARK VINA RESULT:      -9.3      6.108      9.370
REMARK  Name = 447649
REMARK  5 active torsions:
REMARK  status: ('A' for Active; 'I' for Inactive)
REMARK    1  A    between atoms: N_5  and  C_14
REMARK    2  A    between atoms: C_6  and  O_22
REMARK    3  A    between atoms: C_19  and  O_20
REMARK    4  A    between atoms: O_22  and  C_23
REMARK    5  A    between atoms: C_23  and  C_24
REMARK                            x       y       z     vdW  Elec       q    Type
REMARK                         _______ _______ _______ _____ _____    ______ ____
ROOT
ATOM      1  N   UNL     1      34.769 -18.068 -21.338  0.00  0.00    -0.293 NA
ATOM      2  N   UNL     1      34.344 -15.381 -23.814  0.00  0.00    -0.266 NA
ATOM      3  N   UNL     1      35.003 -18.798 -23.654  0.00  0.00    -0.316 NA
ATOM      4  N   UNL     1      34.721 -17.015 -25.281  0.00  0.00    -0.296 N 
ATOM      5  N   UNL     1      35.226 -20.301 -21.875  0.00  0.00    -0.238 N 
ATOM      6  C   UNL     1      34.536 -16.793 -21.720  0.00  0.00    +0.288 C 
ATOM      7  C   UNL     1      34.534 -16.510 -23.070  0.00  0.00    +0.215 C 
ATOM      8  C   UNL     1      34.767 -17.511 -24.004  0.00  0.00    +0.196 C 
ATOM      9  C   UNL     1      34.985 -18.979 -22.316  0.00  0.00    +0.207 C 
ATOM     10  C   UNL     1      34.466 -15.732 -25.132  0.00  0.00    +0.164 C 
ATOM     11  H   UNL     1      34.155 -14.479 -23.466  0.00  0.00    +0.126 HD
ATOM     12  H   UNL     1      34.851 -17.508 -26.124  0.00  0.00    +0.150 HD
ATOM     13  H   UNL     1      35.380 -20.941 -22.607  0.00  0.00    +0.166 HD
ENDROOT
BRANCH   5  14
ATOM     14  C   UNL     1      35.285 -20.879 -20.595  0.00  0.00    +0.059 C 
ATOM     15  C   UNL     1      34.131 -21.402 -20.007  0.00  0.00    +0.018 C 
ATOM     16  C   UNL     1      36.498 -20.932 -19.904  0.00  0.00    +0.018 C 
ATOM     17  C   UNL     1      34.190 -21.974 -18.736  0.00  0.00    +0.038 C 
ATOM     18  C   UNL     1      36.557 -21.504 -18.633  0.00  0.00    +0.038 C 
ATOM     19  C   UNL     1      35.403 -22.026 -18.049  0.00  0.00    +0.134 C 
BRANCH  19  20
ATOM     20  O   UNL     1      35.460 -22.585 -16.810  0.00  0.00    -0.506 OA
ATOM     21  H   UNL     1      36.213 -23.079 -16.552  0.00  0.00    +0.292 HD
ENDBRANCH  19  20
ENDBRANCH   5  14
BRANCH   6  22
ATOM     22  O   UNL     1      34.311 -15.843 -20.753  0.00  0.00    -0.453 OA
BRANCH  22  23
ATOM     23  C   UNL     1      32.972 -15.431 -20.554  0.00  0.00    +0.208 C 
BRANCH  23  24
ATOM     24  C   UNL     1      32.874 -13.939 -20.865  0.00  0.00    +0.044 C 
ATOM     25  C   UNL     1      32.234 -13.712 -22.241  0.00  0.00    +0.004 C 
ATOM     26  C   UNL     1      32.086 -13.208 -19.769  0.00  0.00    +0.004 C 
ATOM     27  C   UNL     1      32.076 -12.225 -22.551  0.00  0.00    +0.000 C 
ATOM     28  C   UNL     1      31.928 -11.722 -20.083  0.00  0.00    +0.000 C 
ATOM     29  C   UNL     1      31.300 -11.501 -21.456  0.00  0.00    +0.000 C 
ENDBRANCH  23  24
ENDBRANCH  22  23
ENDBRANCH   6  22
TORSDOF 5
ENDMDL
MODEL 9
REMARK VINA RESULT:      -9.3      2.020      6.550
REMARK  Name = 447649
REMARK  5 active torsions:
REMARK  status: ('A' for Active; 'I' for Inactive)
REMARK    1  A    between atoms: N_5  and  C_14
REMARK    2  A    between atoms: C_6  and  O_22
REMARK    3  A    between atoms: C_19  and  O_20
REMARK    4  A    between atoms: O_22  and  C_23
REMARK    5  A    between atoms: C_23  and  C_24
REMARK                            x       y       z     vdW  Elec       q    Type
REMARK                         _______ _______ _______ _____ _____    ______ ____
ROOT
ATOM      1  N   UNL     1      35.152 -22.389 -17.590  0.00  0.00    -0.293 NA
ATOM      2  N   UNL     1      35.541 -24.473 -14.584  0.00  0.00    -0.266 NA
ATOM      3  N   UNL     1      37.379 -22.305 -16.598  0.00  0.00    -0.316 NA
ATOM      4  N   UNL     1      37.625 -23.686 -14.613  0.00  0.00    -0.296 N 
ATOM      5  N   UNL     1      36.855 -21.075 -18.517  0.00  0.00    -0.238 N 
ATOM      6  C   UNL     1      34.717 -23.250 -16.643  0.00  0.00    +0.288 C 
ATOM      7  C   UNL     1      35.609 -23.645 -15.668  0.00  0.00    +0.215 C 
ATOM      8  C   UNL     1      36.913 -23.168 -15.664  0.00  0.00    +0.196 C 
ATOM      9  C   UNL     1      36.439 -21.975 -17.509  0.00  0.00    +0.207 C 
ATOM     10  C   UNL     1      36.771 -24.466 -13.984  0.00  0.00    +0.164 C 
ATOM     11  H   UNL     1      34.751 -24.983 -14.289  0.00  0.00    +0.126 HD
ATOM     12  H   UNL     1      38.566 -23.513 -14.380  0.00  0.00    +0.150 HD
ATOM     13  H   UNL     1      37.794 -20.792 -18.434  0.00  0.00    +0.166 HD
ENDROOT
BRANCH   5  14
ATOM     14  C   UNL     1      36.186 -20.505 -19.615  0.00  0.00    +0.059 C 
ATOM     15  C   UNL     1      34.851 -20.830 -19.869  0.00  0.00    +0.018 C 
ATOM     16  C   UNL     1      36.853 -19.612 -20.457  0.00  0.00    +0.018 C 
ATOM     17  C   UNL     1      34.188 -20.265 -20.959  0.00  0.00    +0.038 C 
ATOM     18  C   UNL     1      36.190 -19.048 -21.547  0.00  0.00    +0.038 C 
ATOM     19  C   UNL     1      34.858 -19.374 -21.798  0.00  0.00    +0.134 C 
BRANCH  19  20
ATOM     20  O   UNL     1      34.210 -18.822 -22.860  0.00  0.00    -0.506 OA
ATOM     21  H   UNL     1      33.713 -18.036 -22.750  0.00  0.00    +0.292 HD
ENDBRANCH  19  20
ENDBRANCH   5  14
BRANCH   6  22
ATOM     22  O   UNL     1      33.416 -23.689 -16.695  0.00  0.00    -0.453 OA
BRANCH  22  23
ATOM     23  C   UNL     1      32.588 -23.378 -15.591  0.00  0.00    +0.208 C 
BRANCH  23  24
ATOM     24  C   UNL     1      31.159 -23.804 -15.923  0.00  0.00    +0.044 C 
ATOM     25  C   UNL     1      30.468 -24.394 -14.687  0.00  0.00    +0.004 C 
ATOM     26  C   UNL     1      30.358 -22.621 -16.485  0.00  0.00    +0.004 C 
ATOM     27  C   UNL     1      29.019 -24.779 -14.982  0.00  0.00    +0.000 C 
ATOM     28  C   UNL     1      28.910 -23.008 -16.776  0.00  0.00    +0.000 C 
ATOM     29  C   UNL     1      28.229 -23.604 -15.547  0.00  0.00    +0.000 C 
ENDBRANCH  23  24
ENDBRANCH  22  23
ENDBRANCH   6  22
TORSDOF 5
ENDMDL
