MODEL 1
REMARK VINA RESULT:      -8.9      0.000      0.000
REMARK  Name = 447867
REMARK  14 active torsions:
REMARK  status: ('A' for Active; 'I' for Inactive)
REMARK    1  A    between atoms: C_1  and  N_3
REMARK    2  A    between atoms: C_1  and  C_15
REMARK    3  A    between atoms: C_1  and  C_22
REMARK    4  A    between atoms: C_4  and  C_6
REMARK    5  A    between atoms: C_6  and  C_7
REMARK    6  A    between atoms: C_7  and  C_8
REMARK    7  A    between atoms: C_8  and  N_9
REMARK    8  A    between atoms: N_14  and  CA_17
REMARK    9  A    between atoms: CA_17  and  C_19
REMARK   10  A    between atoms: C_19  and  O_20
REMARK   11  A    between atoms: C_22  and  S_23
REMARK   12  A    between atoms: S_23  and  C_24
REMARK   13  A    between atoms: C_24  and  C_25
REMARK   14  A    between atoms: C_30  and  O_31
REMARK                            x       y       z     vdW  Elec       q    Type
REMARK                         _______ _______ _______ _____ _____    ______ ____
ROOT
ATOM      1  C   UNK A   1      35.551 -23.768 -15.737  0.00  0.00    +0.159 C 
ENDROOT
BRANCH   1   3
ATOM      2  O   UNK A   0      32.798 -23.319 -16.475  0.00  0.00    -0.275 OA
ATOM      3  N   UNK A   1      34.416 -23.677 -14.848  0.00  0.00    -0.298 N 
ATOM      4  C   UNK A   0      33.123 -23.458 -15.299  0.00  0.00    +0.223 C 
ATOM      5  H   UNK A   1      34.568 -23.775 -13.880  0.00  0.00    +0.150 HD
BRANCH   4   6
ATOM      6  C   UNK A   0      32.135 -23.378 -14.146  0.00  0.00    +0.083 C 
BRANCH   6   7
ATOM      7  C   UNK A   0      30.708 -23.039 -14.580  0.00  0.00    -0.014 C 
BRANCH   7   8
ATOM      8  C   UNK A   0      29.895 -24.290 -14.920  0.00  0.00    -0.086 C 
BRANCH   8   9
ATOM      9  N   UNK A   0      29.951 -25.242 -13.816  0.00  0.00    +0.380 N 
ATOM     10  H   UNK A   0      30.921 -25.512 -13.650  0.00  0.00    -0.089 HD
ATOM     11  H   UNK A   0      29.403 -26.069 -14.053  0.00  0.00    -0.089 HD
ATOM     12  H   UNK A   0      29.569 -24.809 -12.975  0.00  0.00    -0.089 HD
ENDBRANCH   8   9
ENDBRANCH   7   8
ENDBRANCH   6   7
ENDBRANCH   4   6
ENDBRANCH   1   3
BRANCH   1  15
ATOM     13  O   UNK A   1      35.877 -26.161 -15.500  0.00  0.00    -0.273 OA
ATOM     14  N   GLY A   2      37.624 -24.738 -14.947  0.00  0.00    -0.294 N 
ATOM     15  C   UNK A   1      36.345 -25.028 -15.399  0.00  0.00    +0.242 C 
ATOM     16  H   GLY A   2      37.907 -23.796 -14.903  0.00  0.00    +0.150 HD
BRANCH  14  17
ATOM     17  CA  GLY A   2      38.558 -25.762 -14.541  0.00  0.00    +0.200 C 
BRANCH  17  19
ATOM     18  OXT GLY A   2      40.749 -24.831 -14.186  0.00  0.00    -0.248 OA
ATOM     19  C   GLY A   2      39.981 -25.442 -14.919  0.00  0.00    +0.334 C 
BRANCH  19  20
ATOM     20  O   GLY A   2      40.329 -25.891 -16.147  0.00  0.00    -0.479 OA
ATOM     21  H   GLY A   2      39.840 -25.623 -16.900  0.00  0.00    +0.295 HD
ENDBRANCH  19  20
ENDBRANCH  17  19
ENDBRANCH  14  17
ENDBRANCH   1  15
BRANCH   1  22
ATOM     22  C   UNK A   1      36.401 -22.495 -15.731  0.00  0.00    +0.087 C 
BRANCH  22  23
ATOM     23  S   UNK A   1      36.865 -21.915 -17.395  0.00  0.00    -0.133 S 
BRANCH  23  24
ATOM     24  C   UNK A   1      35.330 -22.330 -18.249  0.00  0.00    +0.084 C 
BRANCH  24  25
ATOM     25  C   UNK A   1      35.008 -21.353 -19.347  0.00  0.00    -0.011 C 
ATOM     26  C   UNK A   1      36.037 -20.686 -20.011  0.00  0.00    -0.000 C 
ATOM     27  C   UNK A   1      33.679 -21.115 -19.700  0.00  0.00    -0.000 C 
ATOM     28  C   UNK A   1      35.737 -19.780 -21.029  0.00  0.00    +0.037 C 
ATOM     29  C   UNK A   1      33.380 -20.209 -20.718  0.00  0.00    +0.037 C 
ATOM     30  C   UNK A   1      34.409 -19.542 -21.382  0.00  0.00    +0.139 C 
BRANCH  30  31
ATOM     31  O   UNK A   1      34.116 -18.659 -22.375  0.00  0.00    -0.471 OA
ATOM     32  C   UNK A   1      35.084 -18.504 -23.412  0.00  0.00    +0.252 C 
ENDBRANCH  30  31
ENDBRANCH  24  25
ENDBRANCH  23  24
ENDBRANCH  22  23
ENDBRANCH   1  22
TORSDOF 14
ENDMDL
MODEL 2
REMARK VINA RESULT:      -8.7      6.579     12.123
REMARK  Name = 447867
REMARK  14 active torsions:
REMARK  status: ('A' for Active; 'I' for Inactive)
REMARK    1  A    between atoms: C_1  and  N_3
REMARK    2  A    between atoms: C_1  and  C_15
REMARK    3  A    between atoms: C_1  and  C_22
REMARK    4  A    between atoms: C_4  and  C_6
REMARK    5  A    between atoms: C_6  and  C_7
REMARK    6  A    between atoms: C_7  and  C_8
REMARK    7  A    between atoms: C_8  and  N_9
REMARK    8  A    between atoms: N_14  and  CA_17
REMARK    9  A    between atoms: CA_17  and  C_19
REMARK   10  A    between atoms: C_19  and  O_20
REMARK   11  A    between atoms: C_22  and  S_23
REMARK   12  A    between atoms: S_23  and  C_24
REMARK   13  A    between atoms: C_24  and  C_25
REMARK   14  A    between atoms: C_30  and  O_31
REMARK                            x       y       z     vdW  Elec       q    Type
REMARK                         _______ _______ _______ _____ _____    ______ ____
ROOT
ATOM      1  C   UNK A   1      33.759 -15.720 -23.605  0.00  0.00    +0.159 C 
ENDROOT
BRANCH   1   3
ATOM      2  O   UNK A   0      33.004 -16.097 -26.365  0.00  0.00    -0.275 OA
ATOM      3  N   UNK A   1      33.726 -14.715 -24.643  0.00  0.00    -0.298 N 
ATOM      4  C   UNK A   0      33.347 -14.993 -25.948  0.00  0.00    +0.223 C 
ATOM      5  H   UNK A   1      33.983 -13.793 -24.413  0.00  0.00    +0.150 HD
BRANCH   4   6
ATOM      6  C   UNK A   0      33.433 -13.759 -26.831  0.00  0.00    +0.083 C 
BRANCH   6   7
ATOM      7  C   UNK A   0      33.212 -12.446 -26.078  0.00  0.00    -0.014 C 
BRANCH   7   8
ATOM      8  C   UNK A   0      34.473 -11.581 -26.042  0.00  0.00    -0.086 C 
BRANCH   8   9
ATOM      9  N   UNK A   0      34.574 -10.893 -24.760  0.00  0.00    +0.380 N 
ATOM     10  H   UNK A   0      35.434 -11.177 -24.289  0.00  0.00    -0.089 HD
ATOM     11  H   UNK A   0      33.772 -11.136 -24.179  0.00  0.00    -0.089 HD
ATOM     12  H   UNK A   0      34.589  -9.884 -24.915  0.00  0.00    -0.089 HD
ENDBRANCH   8   9
ENDBRANCH   7   8
ENDBRANCH   6   7
ENDBRANCH   4   6
ENDBRANCH   1   3
BRANCH   1  15
ATOM     13  O   UNK A   1      33.112 -15.753 -21.267  0.00  0.00    -0.273 OA
ATOM     14  N   GLY A   2      32.724 -13.828 -22.505  0.00  0.00    -0.294 N 
ATOM     15  C   UNK A   1      33.179 -15.127 -22.324  0.00  0.00    +0.242 C 
ATOM     16  H   GLY A   2      32.824 -13.412 -23.392  0.00  0.00    +0.150 HD
BRANCH  14  17
ATOM     17  CA  GLY A   2      32.111 -13.063 -21.445  0.00  0.00    +0.200 C 
BRANCH  17  19
ATOM     18  OXT GLY A   2      32.217 -10.975 -22.639  0.00  0.00    -0.248 OA
ATOM     19  C   GLY A   2      31.583 -11.732 -21.913  0.00  0.00    +0.334 C 
BRANCH  19  20
ATOM     20  O   GLY A   2      30.342 -11.449 -21.453  0.00  0.00    -0.479 OA
ATOM     21  H   GLY A   2      30.077 -11.751 -20.606  0.00  0.00    +0.295 HD
ENDBRANCH  19  20
ENDBRANCH  17  19
ENDBRANCH  14  17
ENDBRANCH   1  15
BRANCH   1  22
ATOM     22  C   UNK A   1      35.155 -16.321 -23.421  0.00  0.00    +0.087 C 
BRANCH  22  23
ATOM     23  S   UNK A   1      35.185 -18.142 -23.494  0.00  0.00    -0.133 S 
BRANCH  23  24
ATOM     24  C   UNK A   1      35.875 -18.453 -21.855  0.00  0.00    +0.084 C 
BRANCH  24  25
ATOM     25  C   UNK A   1      35.065 -19.453 -21.077  0.00  0.00    -0.011 C 
ATOM     26  C   UNK A   1      35.705 -20.462 -20.357  0.00  0.00    -0.000 C 
ATOM     27  C   UNK A   1      33.672 -19.372 -21.077  0.00  0.00    -0.000 C 
ATOM     28  C   UNK A   1      34.952 -21.389 -19.636  0.00  0.00    +0.037 C 
ATOM     29  C   UNK A   1      32.919 -20.299 -20.356  0.00  0.00    +0.037 C 
ATOM     30  C   UNK A   1      33.560 -21.307 -19.636  0.00  0.00    +0.139 C 
BRANCH  30  31
ATOM     31  O   UNK A   1      32.825 -22.211 -18.932  0.00  0.00    -0.471 OA
ATOM     32  C   UNK A   1      33.516 -22.993 -17.958  0.00  0.00    +0.252 C 
ENDBRANCH  30  31
ENDBRANCH  24  25
ENDBRANCH  23  24
ENDBRANCH  22  23
ENDBRANCH   1  22
TORSDOF 14
ENDMDL
MODEL 3
REMARK VINA RESULT:      -8.7      2.977      6.050
REMARK  Name = 447867
REMARK  14 active torsions:
REMARK  status: ('A' for Active; 'I' for Inactive)
REMARK    1  A    between atoms: C_1  and  N_3
REMARK    2  A    between atoms: C_1  and  C_15
REMARK    3  A    between atoms: C_1  and  C_22
REMARK    4  A    between atoms: C_4  and  C_6
REMARK    5  A    between atoms: C_6  and  C_7
REMARK    6  A    between atoms: C_7  and  C_8
REMARK    7  A    between atoms: C_8  and  N_9
REMARK    8  A    between atoms: N_14  and  CA_17
REMARK    9  A    between atoms: CA_17  and  C_19
REMARK   10  A    between atoms: C_19  and  O_20
REMARK   11  A    between atoms: C_22  and  S_23
REMARK   12  A    between atoms: S_23  and  C_24
REMARK   13  A    between atoms: C_24  and  C_25
REMARK   14  A    between atoms: C_30  and  O_31
REMARK                            x       y       z     vdW  Elec       q    Type
REMARK                         _______ _______ _______ _____ _____    ______ ____
ROOT
ATOM      1  C   UNK A   1      35.771 -24.126 -14.970  0.00  0.00    +0.159 C 
ENDROOT
BRANCH   1   3
ATOM      2  O   UNK A   0      37.805 -22.145 -15.485  0.00  0.00    -0.275 OA
ATOM      3  N   UNK A   1      35.906 -23.305 -16.151  0.00  0.00    -0.298 N 
ATOM      4  C   UNK A   0      36.923 -22.374 -16.309  0.00  0.00    +0.223 C 
ATOM      5  H   UNK A   1      35.247 -23.410 -16.876  0.00  0.00    +0.150 HD
BRANCH   4   6
ATOM      6  C   UNK A   0      36.803 -21.634 -17.631  0.00  0.00    +0.083 C 
BRANCH   6   7
ATOM      7  C   UNK A   0      35.552 -21.998 -18.431  0.00  0.00    -0.014 C 
BRANCH   7   8
ATOM      8  C   UNK A   0      35.574 -21.405 -19.840  0.00  0.00    -0.086 C 
BRANCH   8   9
ATOM      9  N   UNK A   0      36.398 -20.202 -19.868  0.00  0.00    +0.380 N 
ATOM     10  H   UNK A   0      37.284 -20.387 -19.396  0.00  0.00    -0.089 HD
ATOM     11  H   UNK A   0      35.911 -19.445 -19.390  0.00  0.00    -0.089 HD
ATOM     12  H   UNK A   0      36.578 -19.935 -20.836  0.00  0.00    -0.089 HD
ENDBRANCH   8   9
ENDBRANCH   7   8
ENDBRANCH   6   7
ENDBRANCH   4   6
ENDBRANCH   1   3
BRANCH   1  15
ATOM     13  O   UNK A   1      36.716 -26.262 -15.627  0.00  0.00    -0.273 OA
ATOM     14  N   GLY A   2      37.944 -24.884 -14.220  0.00  0.00    -0.294 N 
ATOM     15  C   UNK A   1      36.843 -25.212 -14.998  0.00  0.00    +0.242 C 
ATOM     16  H   GLY A   2      37.951 -24.017 -13.754  0.00  0.00    +0.150 HD
BRANCH  14  17
ATOM     17  CA  GLY A   2      39.079 -25.763 -14.066  0.00  0.00    +0.200 C 
BRANCH  17  19
ATOM     18  OXT GLY A   2      41.128 -24.572 -14.489  0.00  0.00    -0.248 OA
ATOM     19  C   GLY A   2      40.264 -25.341 -14.894  0.00  0.00    +0.334 C 
BRANCH  19  20
ATOM     20  O   GLY A   2      40.283 -25.889 -16.131  0.00  0.00    -0.479 OA
ATOM     21  H   GLY A   2      41.082 -26.236 -16.477  0.00  0.00    +0.295 HD
ENDBRANCH  19  20
ENDBRANCH  17  19
ENDBRANCH  14  17
ENDBRANCH   1  15
BRANCH   1  22
ATOM     22  C   UNK A   1      34.352 -24.676 -14.802  0.00  0.00    +0.087 C 
BRANCH  22  23
ATOM     23  S   UNK A   1      33.225 -23.542 -13.926  0.00  0.00    -0.133 S 
BRANCH  23  24
ATOM     24  C   UNK A   1      31.805 -24.648 -13.788  0.00  0.00    +0.084 C 
BRANCH  24  25
ATOM     25  C   UNK A   1      30.720 -24.305 -14.772  0.00  0.00    -0.011 C 
ATOM     26  C   UNK A   1      29.601 -25.129 -14.892  0.00  0.00    -0.000 C 
ATOM     27  C   UNK A   1      30.834 -23.162 -15.564  0.00  0.00    -0.000 C 
ATOM     28  C   UNK A   1      28.596 -24.811 -15.805  0.00  0.00    +0.037 C 
ATOM     29  C   UNK A   1      29.828 -22.843 -16.476  0.00  0.00    +0.037 C 
ATOM     30  C   UNK A   1      28.709 -23.667 -16.597  0.00  0.00    +0.139 C 
BRANCH  30  31
ATOM     31  O   UNK A   1      27.728 -23.356 -17.487  0.00  0.00    -0.471 OA
ATOM     32  C   UNK A   1      27.053 -22.112 -17.300  0.00  0.00    +0.252 C 
ENDBRANCH  30  31
ENDBRANCH  24  25
ENDBRANCH  23  24
ENDBRANCH  22  23
ENDBRANCH   1  22
TORSDOF 14
ENDMDL
MODEL 4
REMARK VINA RESULT:      -8.7      5.852     11.323
REMARK  Name = 447867
REMARK  14 active torsions:
REMARK  status: ('A' for Active; 'I' for Inactive)
REMARK    1  A    between atoms: C_1  and  N_3
REMARK    2  A    between atoms: C_1  and  C_15
REMARK    3  A    between atoms: C_1  and  C_22
REMARK    4  A    between atoms: C_4  and  C_6
REMARK    5  A    between atoms: C_6  and  C_7
REMARK    6  A    between atoms: C_7  and  C_8
REMARK    7  A    between atoms: C_8  and  N_9
REMARK    8  A    between atoms: N_14  and  CA_17
REMARK    9  A    between atoms: CA_17  and  C_19
REMARK   10  A    between atoms: C_19  and  O_20
REMARK   11  A    between atoms: C_22  and  S_23
REMARK   12  A    between atoms: S_23  and  C_24
REMARK   13  A    between atoms: C_24  and  C_25
REMARK   14  A    between atoms: C_30  and  O_31
REMARK                            x       y       z     vdW  Elec       q    Type
REMARK                         _______ _______ _______ _____ _____    ______ ____
ROOT
ATOM      1  C   UNK A   1      34.865 -16.469 -23.581  0.00  0.00    +0.159 C 
ENDROOT
BRANCH   1   3
ATOM      2  O   UNK A   0      35.163 -14.477 -21.515  0.00  0.00    -0.275 OA
ATOM      3  N   UNK A   1      33.879 -16.080 -22.599  0.00  0.00    -0.298 N 
ATOM      4  C   UNK A   0      34.116 -15.106 -21.640  0.00  0.00    +0.223 C 
ATOM      5  H   UNK A   1      33.001 -16.525 -22.611  0.00  0.00    +0.150 HD
BRANCH   4   6
ATOM      6  C   UNK A   0      32.918 -14.922 -20.722  0.00  0.00    +0.083 C 
BRANCH   6   7
ATOM      7  C   UNK A   0      32.400 -13.484 -20.665  0.00  0.00    -0.014 C 
BRANCH   7   8
ATOM      8  C   UNK A   0      32.063 -12.936 -22.052  0.00  0.00    -0.086 C 
BRANCH   8   9
ATOM      9  N   UNK A   0      31.074 -11.869 -21.944  0.00  0.00    +0.380 N 
ATOM     10  H   UNK A   0      31.366 -11.206 -21.226  0.00  0.00    -0.089 HD
ATOM     11  H   UNK A   0      30.170 -12.267 -21.691  0.00  0.00    -0.089 HD
ATOM     12  H   UNK A   0      30.994 -11.387 -22.840  0.00  0.00    -0.089 HD
ENDBRANCH   8   9
ENDBRANCH   7   8
ENDBRANCH   6   7
ENDBRANCH   4   6
ENDBRANCH   1   3
BRANCH   1  15
ATOM     13  O   UNK A   1      34.655 -16.803 -25.975  0.00  0.00    -0.273 OA
ATOM     14  N   GLY A   2      33.430 -15.105 -24.975  0.00  0.00    -0.294 N 
ATOM     15  C   UNK A   1      34.318 -16.172 -24.975  0.00  0.00    +0.242 C 
ATOM     16  H   GLY A   2      33.222 -14.664 -24.119  0.00  0.00    +0.150 HD
BRANCH  14  17
ATOM     17  CA  GLY A   2      32.798 -14.618 -26.178  0.00  0.00    +0.200 C 
BRANCH  17  19
ATOM     18  OXT GLY A   2      33.497 -12.316 -26.078  0.00  0.00    -0.248 OA
ATOM     19  C   GLY A   2      33.440 -13.363 -26.711  0.00  0.00    +0.334 C 
BRANCH  19  20
ATOM     20  O   GLY A   2      33.948 -13.503 -27.958  0.00  0.00    -0.479 OA
ATOM     21  H   GLY A   2      33.416 -13.856 -28.643  0.00  0.00    +0.295 HD
ENDBRANCH  19  20
ENDBRANCH  17  19
ENDBRANCH  14  17
ENDBRANCH   1  15
BRANCH   1  22
ATOM     22  C   UNK A   1      35.323 -17.918 -23.404  0.00  0.00    +0.087 C 
BRANCH  22  23
ATOM     23  S   UNK A   1      35.574 -18.401 -21.663  0.00  0.00    -0.133 S 
BRANCH  23  24
ATOM     24  C   UNK A   1      34.152 -19.500 -21.495  0.00  0.00    +0.084 C 
BRANCH  24  25
ATOM     25  C   UNK A   1      34.334 -20.498 -20.385  0.00  0.00    -0.011 C 
ATOM     26  C   UNK A   1      33.220 -21.097 -19.796  0.00  0.00    -0.000 C 
ATOM     27  C   UNK A   1      35.617 -20.825 -19.945  0.00  0.00    -0.000 C 
ATOM     28  C   UNK A   1      33.390 -22.023 -18.766  0.00  0.00    +0.037 C 
ATOM     29  C   UNK A   1      35.786 -21.751 -18.915  0.00  0.00    +0.037 C 
ATOM     30  C   UNK A   1      34.673 -22.349 -18.326  0.00  0.00    +0.139 C 
BRANCH  30  31
ATOM     31  O   UNK A   1      34.839 -23.253 -17.322  0.00  0.00    -0.471 OA
ATOM     32  C   UNK A   1      33.720 -23.489 -16.469  0.00  0.00    +0.252 C 
ENDBRANCH  30  31
ENDBRANCH  24  25
ENDBRANCH  23  24
ENDBRANCH  22  23
ENDBRANCH   1  22
TORSDOF 14
ENDMDL
MODEL 5
REMARK VINA RESULT:      -8.7      1.649      1.822
REMARK  Name = 447867
REMARK  14 active torsions:
REMARK  status: ('A' for Active; 'I' for Inactive)
REMARK    1  A    between atoms: C_1  and  N_3
REMARK    2  A    between atoms: C_1  and  C_15
REMARK    3  A    between atoms: C_1  and  C_22
REMARK    4  A    between atoms: C_4  and  C_6
REMARK    5  A    between atoms: C_6  and  C_7
REMARK    6  A    between atoms: C_7  and  C_8
REMARK    7  A    between atoms: C_8  and  N_9
REMARK    8  A    between atoms: N_14  and  CA_17
REMARK    9  A    between atoms: CA_17  and  C_19
REMARK   10  A    between atoms: C_19  and  O_20
REMARK   11  A    between atoms: C_22  and  S_23
REMARK   12  A    between atoms: S_23  and  C_24
REMARK   13  A    between atoms: C_24  and  C_25
REMARK   14  A    between atoms: C_30  and  O_31
REMARK                            x       y       z     vdW  Elec       q    Type
REMARK                         _______ _______ _______ _____ _____    ______ ____
ROOT
ATOM      1  C   UNK A   1      34.995 -23.838 -15.796  0.00  0.00    +0.159 C 
ENDROOT
BRANCH   1   3
ATOM      2  O   UNK A   0      32.348 -23.350 -16.835  0.00  0.00    -0.275 OA
ATOM      3  N   UNK A   1      33.749 -23.898 -15.066  0.00  0.00    -0.298 N 
ATOM      4  C   UNK A   0      32.519 -23.646 -15.655  0.00  0.00    +0.223 C 
ATOM      5  H   UNK A   1      33.775 -24.127 -14.109  0.00  0.00    +0.150 HD
BRANCH   4   6
ATOM      6  C   UNK A   0      31.385 -23.750 -14.649  0.00  0.00    +0.083 C 
BRANCH   6   7
ATOM      7  C   UNK A   0      30.347 -22.633 -14.772  0.00  0.00    -0.014 C 
BRANCH   7   8
ATOM      8  C   UNK A   0      29.109 -23.078 -15.552  0.00  0.00    -0.086 C 
BRANCH   8   9
ATOM      9  N   UNK A   0      29.267 -22.765 -16.967  0.00  0.00    +0.380 N 
ATOM     10  H   UNK A   0      28.347 -22.661 -17.397  0.00  0.00    -0.089 HD
ATOM     11  H   UNK A   0      29.774 -23.520 -17.429  0.00  0.00    -0.089 HD
ATOM     12  H   UNK A   0      29.789 -21.894 -17.067  0.00  0.00    -0.089 HD
ENDBRANCH   8   9
ENDBRANCH   7   8
ENDBRANCH   6   7
ENDBRANCH   4   6
ENDBRANCH   1   3
BRANCH   1  15
ATOM     13  O   UNK A   1      35.828 -26.105 -15.558  0.00  0.00    -0.273 OA
ATOM     14  N   GLY A   2      36.886 -24.400 -14.392  0.00  0.00    -0.294 N 
ATOM     15  C   UNK A   1      35.934 -24.917 -15.260  0.00  0.00    +0.242 C 
ATOM     16  H   GLY A   2      36.890 -23.431 -14.217  0.00  0.00    +0.150 HD
BRANCH  14  17
ATOM     17  CA  GLY A   2      37.871 -25.226 -13.736  0.00  0.00    +0.200 C 
BRANCH  17  19
ATOM     18  OXT GLY A   2      37.933 -24.695 -11.388  0.00  0.00    -0.248 OA
ATOM     19  C   GLY A   2      37.569 -25.455 -12.278  0.00  0.00    +0.334 C 
BRANCH  19  20
ATOM     20  O   GLY A   2      36.856 -26.582 -12.043  0.00  0.00    -0.479 OA
ATOM     21  H   GLY A   2      37.160 -27.205 -11.413  0.00  0.00    +0.295 HD
ENDBRANCH  19  20
ENDBRANCH  17  19
ENDBRANCH  14  17
ENDBRANCH   1  15
BRANCH   1  22
ATOM     22  C   UNK A   1      35.610 -22.437 -15.786  0.00  0.00    +0.087 C 
BRANCH  22  23
ATOM     23  S   UNK A   1      36.434 -21.986 -17.349  0.00  0.00    -0.133 S 
BRANCH  23  24
ATOM     24  C   UNK A   1      35.071 -22.359 -18.473  0.00  0.00    +0.084 C 
BRANCH  24  25
ATOM     25  C   UNK A   1      34.869 -21.278 -19.499  0.00  0.00    -0.011 C 
ATOM     26  C   UNK A   1      35.971 -20.636 -20.063  0.00  0.00    -0.000 C 
ATOM     27  C   UNK A   1      33.577 -20.917 -19.885  0.00  0.00    -0.000 C 
ATOM     28  C   UNK A   1      35.782 -19.634 -21.014  0.00  0.00    +0.037 C 
ATOM     29  C   UNK A   1      33.389 -19.915 -20.836  0.00  0.00    +0.037 C 
ATOM     30  C   UNK A   1      34.491 -19.273 -21.400  0.00  0.00    +0.139 C 
BRANCH  30  31
ATOM     31  O   UNK A   1      34.306 -18.296 -22.329  0.00  0.00    -0.471 OA
ATOM     32  C   UNK A   1      35.354 -17.339 -22.483  0.00  0.00    +0.252 C 
ENDBRANCH  30  31
ENDBRANCH  24  25
ENDBRANCH  23  24
ENDBRANCH  22  23
ENDBRANCH   1  22
TORSDOF 14
ENDMDL
MODEL 6
REMARK VINA RESULT:      -8.6      3.146      8.706
REMARK  Name = 447867
REMARK  14 active torsions:
REMARK  status: ('A' for Active; 'I' for Inactive)
REMARK    1  A    between atoms: C_1  and  N_3
REMARK    2  A    between atoms: C_1  and  C_15
REMARK    3  A    between atoms: C_1  and  C_22
REMARK    4  A    between atoms: C_4  and  C_6
REMARK    5  A    between atoms: C_6  and  C_7
REMARK    6  A    between atoms: C_7  and  C_8
REMARK    7  A    between atoms: C_8  and  N_9
REMARK    8  A    between atoms: N_14  and  CA_17
REMARK    9  A    between atoms: CA_17  and  C_19
REMARK   10  A    between atoms: C_19  and  O_20
REMARK   11  A    between atoms: C_22  and  S_23
REMARK   12  A    between atoms: S_23  and  C_24
REMARK   13  A    between atoms: C_24  and  C_25
REMARK   14  A    between atoms: C_30  and  O_31
REMARK                            x       y       z     vdW  Elec       q    Type
REMARK                         _______ _______ _______ _____ _____    ______ ____
ROOT
ATOM      1  C   UNK A   1      31.887 -23.643 -16.238  0.00  0.00    +0.159 C 
ENDROOT
BRANCH   1   3
ATOM      2  O   UNK A   0      34.175 -23.547 -17.993  0.00  0.00    -0.275 OA
ATOM      3  N   UNK A   1      32.108 -22.721 -17.328  0.00  0.00    -0.298 N 
ATOM      4  C   UNK A   0      33.247 -22.753 -18.121  0.00  0.00    +0.223 C 
ATOM      5  H   UNK A   1      31.422 -22.041 -17.517  0.00  0.00    +0.150 HD
BRANCH   4   6
ATOM      6  C   UNK A   0      33.228 -21.653 -19.170  0.00  0.00    +0.083 C 
BRANCH   6   7
ATOM      7  C   UNK A   0      34.615 -21.279 -19.695  0.00  0.00    -0.014 C 
BRANCH   7   8
ATOM      8  C   UNK A   0      34.572 -20.071 -20.632  0.00  0.00    -0.086 C 
BRANCH   8   9
ATOM      9  N   UNK A   0      35.826 -19.330 -20.556  0.00  0.00    +0.380 N 
ATOM     10  H   UNK A   0      35.629 -18.348 -20.360  0.00  0.00    -0.089 HD
ATOM     11  H   UNK A   0      36.321 -19.407 -21.444  0.00  0.00    -0.089 HD
ATOM     12  H   UNK A   0      36.404 -19.716 -19.809  0.00  0.00    -0.089 HD
ENDBRANCH   8   9
ENDBRANCH   7   8
ENDBRANCH   6   7
ENDBRANCH   4   6
ENDBRANCH   1   3
BRANCH   1  15
ATOM     13  O   UNK A   1      29.831 -24.904 -15.969  0.00  0.00    -0.273 OA
ATOM     14  N   GLY A   2      29.729 -22.586 -15.937  0.00  0.00    -0.294 N 
ATOM     15  C   UNK A   1      30.383 -23.807 -16.027  0.00  0.00    +0.242 C 
ATOM     16  H   GLY A   2      30.262 -21.760 -15.994  0.00  0.00    +0.150 HD
BRANCH  14  17
ATOM     17  CA  GLY A   2      28.300 -22.480 -15.762  0.00  0.00    +0.200 C 
BRANCH  17  19
ATOM     18  OXT GLY A   2      26.978 -21.376 -17.444  0.00  0.00    -0.248 OA
ATOM     19  C   GLY A   2      27.554 -22.390 -17.067  0.00  0.00    +0.334 C 
BRANCH  19  20
ATOM     20  O   GLY A   2      27.578 -23.537 -17.784  0.00  0.00    -0.479 OA
ATOM     21  H   GLY A   2      27.892 -23.531 -18.668  0.00  0.00    +0.295 HD
ENDBRANCH  19  20
ENDBRANCH  17  19
ENDBRANCH  14  17
ENDBRANCH   1  15
BRANCH   1  22
ATOM     22  C   UNK A   1      32.638 -23.235 -14.968  0.00  0.00    +0.087 C 
BRANCH  22  23
ATOM     23  S   UNK A   1      33.002 -24.629 -13.852  0.00  0.00    -0.133 S 
BRANCH  23  24
ATOM     24  C   UNK A   1      34.479 -23.949 -13.067  0.00  0.00    +0.084 C 
BRANCH  24  25
ATOM     25  C   UNK A   1      35.726 -24.694 -13.460  0.00  0.00    -0.011 C 
ATOM     26  C   UNK A   1      35.852 -25.211 -14.749  0.00  0.00    -0.000 C 
ATOM     27  C   UNK A   1      36.755 -24.867 -12.534  0.00  0.00    -0.000 C 
ATOM     28  C   UNK A   1      37.008 -25.902 -15.112  0.00  0.00    +0.037 C 
ATOM     29  C   UNK A   1      37.911 -25.557 -12.897  0.00  0.00    +0.037 C 
ATOM     30  C   UNK A   1      38.037 -26.075 -14.186  0.00  0.00    +0.139 C 
BRANCH  30  31
ATOM     31  O   UNK A   1      39.166 -26.748 -14.541  0.00  0.00    -0.471 OA
ATOM     32  C   UNK A   1      40.394 -26.023 -14.500  0.00  0.00    +0.252 C 
ENDBRANCH  30  31
ENDBRANCH  24  25
ENDBRANCH  23  24
ENDBRANCH  22  23
ENDBRANCH   1  22
TORSDOF 14
ENDMDL
MODEL 7
REMARK VINA RESULT:      -8.5      2.081      2.493
REMARK  Name = 447867
REMARK  14 active torsions:
REMARK  status: ('A' for Active; 'I' for Inactive)
REMARK    1  A    between atoms: C_1  and  N_3
REMARK    2  A    between atoms: C_1  and  C_15
REMARK    3  A    between atoms: C_1  and  C_22
REMARK    4  A    between atoms: C_4  and  C_6
REMARK    5  A    between atoms: C_6  and  C_7
REMARK    6  A    between atoms: C_7  and  C_8
REMARK    7  A    between atoms: C_8  and  N_9
REMARK    8  A    between atoms: N_14  and  CA_17
REMARK    9  A    between atoms: CA_17  and  C_19
REMARK   10  A    between atoms: C_19  and  O_20
REMARK   11  A    between atoms: C_22  and  S_23
REMARK   12  A    between atoms: S_23  and  C_24
REMARK   13  A    between atoms: C_24  and  C_25
REMARK   14  A    between atoms: C_30  and  O_31
REMARK                            x       y       z     vdW  Elec       q    Type
REMARK                         _______ _______ _______ _____ _____    ______ ____
ROOT
ATOM      1  C   UNK A   1      34.282 -24.683 -14.322  0.00  0.00    +0.159 C 
ENDROOT
BRANCH   1   3
ATOM      2  O   UNK A   0      31.524 -25.454 -13.965  0.00  0.00    -0.275 OA
ATOM      3  N   UNK A   1      33.130 -23.811 -14.308  0.00  0.00    -0.298 N 
ATOM      4  C   UNK A   0      31.835 -24.277 -14.129  0.00  0.00    +0.223 C 
ATOM      5  H   UNK A   1      33.269 -22.844 -14.432  0.00  0.00    +0.150 HD
BRANCH   4   6
ATOM      6  C   UNK A   0      30.821 -23.147 -14.188  0.00  0.00    +0.083 C 
BRANCH   6   7
ATOM      7  C   UNK A   0      30.259 -22.896 -15.588  0.00  0.00    -0.014 C 
BRANCH   7   8
ATOM      8  C   UNK A   0      28.811 -23.370 -15.724  0.00  0.00    -0.086 C 
BRANCH   8   9
ATOM      9  N   UNK A   0      28.679 -24.734 -15.223  0.00  0.00    +0.380 N 
ATOM     10  H   UNK A   0      27.758 -25.098 -15.468  0.00  0.00    -0.089 HD
ATOM     11  H   UNK A   0      28.787 -24.736 -14.209  0.00  0.00    -0.089 HD
ATOM     12  H   UNK A   0      29.400 -25.322 -15.643  0.00  0.00    -0.089 HD
ENDBRANCH   8   9
ENDBRANCH   7   8
ENDBRANCH   6   7
ENDBRANCH   4   6
ENDBRANCH   1   3
BRANCH   1  15
ATOM     13  O   UNK A   1      34.670 -23.774 -12.106  0.00  0.00    -0.273 OA
ATOM     14  N   GLY A   2      36.276 -25.167 -13.037  0.00  0.00    -0.294 N 
ATOM     15  C   UNK A   1      35.068 -24.483 -13.029  0.00  0.00    +0.242 C 
ATOM     16  H   GLY A   2      36.505 -25.711 -13.826  0.00  0.00    +0.150 HD
BRANCH  14  17
ATOM     17  CA  GLY A   2      37.209 -25.114 -11.937  0.00  0.00    +0.200 C 
BRANCH  17  19
ATOM     18  OXT GLY A   2      38.369 -23.038 -11.565  0.00  0.00    -0.248 OA
ATOM     19  C   GLY A   2      38.313 -24.113 -12.151  0.00  0.00    +0.334 C 
BRANCH  19  20
ATOM     20  O   GLY A   2      39.238 -24.512 -13.054  0.00  0.00    -0.479 OA
ATOM     21  H   GLY A   2      40.145 -24.326 -12.908  0.00  0.00    +0.295 HD
ENDBRANCH  19  20
ENDBRANCH  17  19
ENDBRANCH  14  17
ENDBRANCH   1  15
BRANCH   1  22
ATOM     22  C   UNK A   1      35.131 -24.506 -15.583  0.00  0.00    +0.087 C 
BRANCH  22  23
ATOM     23  S   UNK A   1      35.140 -22.802 -16.230  0.00  0.00    -0.133 S 
BRANCH  23  24
ATOM     24  C   UNK A   1      34.082 -23.069 -17.669  0.00  0.00    +0.084 C 
BRANCH  24  25
ATOM     25  C   UNK A   1      34.317 -22.043 -18.744  0.00  0.00    -0.011 C 
ATOM     26  C   UNK A   1      33.233 -21.407 -19.350  0.00  0.00    -0.000 C 
ATOM     27  C   UNK A   1      35.619 -21.730 -19.136  0.00  0.00    -0.000 C 
ATOM     28  C   UNK A   1      33.451 -20.456 -20.347  0.00  0.00    +0.037 C 
ATOM     29  C   UNK A   1      35.837 -20.779 -20.133  0.00  0.00    +0.037 C 
ATOM     30  C   UNK A   1      34.753 -20.142 -20.738  0.00  0.00    +0.139 C 
BRANCH  30  31
ATOM     31  O   UNK A   1      34.967 -19.214 -21.710  0.00  0.00    -0.471 OA
ATOM     32  C   UNK A   1      35.496 -17.954 -21.301  0.00  0.00    +0.252 C 
ENDBRANCH  30  31
ENDBRANCH  24  25
ENDBRANCH  23  24
ENDBRANCH  22  23
ENDBRANCH   1  22
TORSDOF 14
ENDMDL
MODEL 8
REMARK VINA RESULT:      -8.4      2.333      5.887
REMARK  Name = 447867
REMARK  14 active torsions:
REMARK  status: ('A' for Active; 'I' for Inactive)
REMARK    1  A    between atoms: C_1  and  N_3
REMARK    2  A    between atoms: C_1  and  C_15
REMARK    3  A    between atoms: C_1  and  C_22
REMARK    4  A    between atoms: C_4  and  C_6
REMARK    5  A    between atoms: C_6  and  C_7
REMARK    6  A    between atoms: C_7  and  C_8
REMARK    7  A    between atoms: C_8  and  N_9
REMARK    8  A    between atoms: N_14  and  CA_17
REMARK    9  A    between atoms: CA_17  and  C_19
REMARK   10  A    between atoms: C_19  and  O_20
REMARK   11  A    between atoms: C_22  and  S_23
REMARK   12  A    between atoms: S_23  and  C_24
REMARK   13  A    between atoms: C_24  and  C_25
REMARK   14  A    between atoms: C_30  and  O_31
REMARK                            x       y       z     vdW  Elec       q    Type
REMARK                         _______ _______ _______ _____ _____    ______ ____
ROOT
ATOM      1  C   UNK A   1      33.164 -23.329 -15.377  0.00  0.00    +0.159 C 
ENDROOT
BRANCH   1   3
ATOM      2  O   UNK A   0      35.847 -22.819 -14.444  0.00  0.00    -0.275 OA
ATOM      3  N   UNK A   1      33.997 -24.215 -14.595  0.00  0.00    -0.298 N 
ATOM      4  C   UNK A   0      35.281 -23.880 -14.191  0.00  0.00    +0.223 C 
ATOM      5  H   UNK A   1      33.636 -25.094 -14.338  0.00  0.00    +0.150 HD
BRANCH   4   6
ATOM      6  C   UNK A   0      35.934 -25.008 -13.410  0.00  0.00    +0.083 C 
BRANCH   6   7
ATOM      7  C   UNK A   0      37.386 -25.275 -13.808  0.00  0.00    -0.014 C 
BRANCH   7   8
ATOM      8  C   UNK A   0      37.502 -26.374 -14.865  0.00  0.00    -0.086 C 
BRANCH   8   9
ATOM      9  N   UNK A   0      36.202 -26.998 -15.088  0.00  0.00    +0.380 N 
ATOM     10  H   UNK A   0      35.464 -26.316 -14.912  0.00  0.00    -0.089 HD
ATOM     11  H   UNK A   0      36.092 -27.790 -14.454  0.00  0.00    -0.089 HD
ATOM     12  H   UNK A   0      36.142 -27.323 -16.053  0.00  0.00    -0.089 HD
ENDBRANCH   8   9
ENDBRANCH   7   8
ENDBRANCH   6   7
ENDBRANCH   4   6
ENDBRANCH   1   3
BRANCH   1  15
ATOM     13  O   UNK A   1      31.456 -23.293 -13.653  0.00  0.00    -0.273 OA
ATOM     14  N   GLY A   2      30.810 -23.618 -15.858  0.00  0.00    -0.294 N 
ATOM     15  C   UNK A   1      31.734 -23.399 -14.847  0.00  0.00    +0.242 C 
ATOM     16  H   GLY A   2      31.132 -23.688 -16.786  0.00  0.00    +0.150 HD
BRANCH  14  17
ATOM     17  CA  GLY A   2      29.394 -23.746 -15.605  0.00  0.00    +0.200 C 
BRANCH  17  19
ATOM     18  OXT GLY A   2      27.859 -24.091 -17.428  0.00  0.00    -0.248 OA
ATOM     19  C   GLY A   2      28.547 -23.315 -16.774  0.00  0.00    +0.334 C 
BRANCH  19  20
ATOM     20  O   GLY A   2      28.619 -21.990 -17.035  0.00  0.00    -0.479 OA
ATOM     21  H   GLY A   2      29.450 -21.589 -17.200  0.00  0.00    +0.295 HD
ENDBRANCH  19  20
ENDBRANCH  17  19
ENDBRANCH  14  17
ENDBRANCH   1  15
BRANCH   1  22
ATOM     22  C   UNK A   1      33.271 -23.604 -16.879  0.00  0.00    +0.087 C 
BRANCH  22  23
ATOM     23  S   UNK A   1      34.543 -22.605 -17.719  0.00  0.00    -0.133 S 
BRANCH  23  24
ATOM     24  C   UNK A   1      33.618 -22.224 -19.222  0.00  0.00    +0.084 C 
BRANCH  24  25
ATOM     25  C   UNK A   1      34.169 -21.022 -19.939  0.00  0.00    -0.011 C 
ATOM     26  C   UNK A   1      35.548 -20.824 -20.012  0.00  0.00    -0.000 C 
ATOM     27  C   UNK A   1      33.300 -20.104 -20.530  0.00  0.00    -0.000 C 
ATOM     28  C   UNK A   1      36.058 -19.710 -20.678  0.00  0.00    +0.037 C 
ATOM     29  C   UNK A   1      33.810 -18.989 -21.196  0.00  0.00    +0.037 C 
ATOM     30  C   UNK A   1      35.189 -18.792 -21.269  0.00  0.00    +0.139 C 
BRANCH  30  31
ATOM     31  O   UNK A   1      35.686 -17.705 -21.919  0.00  0.00    -0.471 OA
ATOM     32  C   UNK A   1      34.914 -16.507 -21.866  0.00  0.00    +0.252 C 
ENDBRANCH  30  31
ENDBRANCH  24  25
ENDBRANCH  23  24
ENDBRANCH  22  23
ENDBRANCH   1  22
TORSDOF 14
ENDMDL
MODEL 9
REMARK VINA RESULT:      -8.4      6.851     11.896
REMARK  Name = 447867
REMARK  14 active torsions:
REMARK  status: ('A' for Active; 'I' for Inactive)
REMARK    1  A    between atoms: C_1  and  N_3
REMARK    2  A    between atoms: C_1  and  C_15
REMARK    3  A    between atoms: C_1  and  C_22
REMARK    4  A    between atoms: C_4  and  C_6
REMARK    5  A    between atoms: C_6  and  C_7
REMARK    6  A    between atoms: C_7  and  C_8
REMARK    7  A    between atoms: C_8  and  N_9
REMARK    8  A    between atoms: N_14  and  CA_17
REMARK    9  A    between atoms: CA_17  and  C_19
REMARK   10  A    between atoms: C_19  and  O_20
REMARK   11  A    between atoms: C_22  and  S_23
REMARK   12  A    between atoms: S_23  and  C_24
REMARK   13  A    between atoms: C_24  and  C_25
REMARK   14  A    between atoms: C_30  and  O_31
REMARK                            x       y       z     vdW  Elec       q    Type
REMARK                         _______ _______ _______ _____ _____    ______ ____
ROOT
ATOM      1  C   UNK A   1      33.479 -14.597 -22.614  0.00  0.00    +0.159 C 
ENDROOT
BRANCH   1   3
ATOM      2  O   UNK A   0      32.619 -13.311 -20.178  0.00  0.00    -0.275 OA
ATOM      3  N   UNK A   1      32.558 -13.491 -22.493  0.00  0.00    -0.298 N 
ATOM      4  C   UNK A   0      32.203 -12.936 -21.272  0.00  0.00    +0.223 C 
ATOM      5  H   UNK A   1      32.165 -13.114 -23.314  0.00  0.00    +0.150 HD
BRANCH   4   6
ATOM      6  C   UNK A   0      31.198 -11.808 -21.440  0.00  0.00    +0.083 C 
BRANCH   6   7
ATOM      7  C   UNK A   0      30.930 -11.025 -20.155  0.00  0.00    -0.014 C 
BRANCH   7   8
ATOM      8  C   UNK A   0      31.645  -9.672 -20.142  0.00  0.00    -0.086 C 
BRANCH   8   9
ATOM      9  N   UNK A   0      32.586  -9.611 -19.030  0.00  0.00    +0.380 N 
ATOM     10  H   UNK A   0      32.198 -10.110 -18.229  0.00  0.00    -0.089 HD
ATOM     11  H   UNK A   0      32.749  -8.637 -18.776  0.00  0.00    -0.089 HD
ATOM     12  H   UNK A   0      33.468 -10.043 -19.305  0.00  0.00    -0.089 HD
ENDBRANCH   8   9
ENDBRANCH   7   8
ENDBRANCH   6   7
ENDBRANCH   4   6
ENDBRANCH   1   3
BRANCH   1  15
ATOM     13  O   UNK A   1      34.378 -15.845 -24.491  0.00  0.00    -0.273 OA
ATOM     14  N   GLY A   2      32.774 -14.217 -24.899  0.00  0.00    -0.294 N 
ATOM     15  C   UNK A   1      33.605 -14.977 -24.087  0.00  0.00    +0.242 C 
ATOM     16  H   GLY A   2      32.189 -13.546 -24.479  0.00  0.00    +0.150 HD
BRANCH  14  17
ATOM     17  CA  GLY A   2      32.732 -14.373 -26.333  0.00  0.00    +0.200 C 
BRANCH  17  19
ATOM     18  OXT GLY A   2      34.185 -13.554 -28.070  0.00  0.00    -0.248 OA
ATOM     19  C   GLY A   2      33.528 -13.322 -27.061  0.00  0.00    +0.334 C 
BRANCH  19  20
ATOM     20  O   GLY A   2      33.452 -12.095 -26.495  0.00  0.00    -0.479 OA
ATOM     21  H   GLY A   2      33.585 -11.329 -27.017  0.00  0.00    +0.295 HD
ENDBRANCH  19  20
ENDBRANCH  17  19
ENDBRANCH  14  17
ENDBRANCH   1  15
BRANCH   1  22
ATOM     22  C   UNK A   1      33.097 -15.774 -21.713  0.00  0.00    +0.087 C 
BRANCH  22  23
ATOM     23  S   UNK A   1      34.528 -16.620 -20.965  0.00  0.00    -0.133 S 
BRANCH  23  24
ATOM     24  C   UNK A   1      34.463 -18.141 -21.936  0.00  0.00    +0.084 C 
BRANCH  24  25
ATOM     25  C   UNK A   1      34.502 -19.370 -21.070  0.00  0.00    -0.011 C 
ATOM     26  C   UNK A   1      35.724 -19.964 -20.757  0.00  0.00    -0.000 C 
ATOM     27  C   UNK A   1      33.315 -19.916 -20.582  0.00  0.00    -0.000 C 
ATOM     28  C   UNK A   1      35.760 -21.104 -19.954  0.00  0.00    +0.037 C 
ATOM     29  C   UNK A   1      33.350 -21.056 -19.779  0.00  0.00    +0.037 C 
ATOM     30  C   UNK A   1      34.572 -21.650 -19.466  0.00  0.00    +0.139 C 
BRANCH  30  31
ATOM     31  O   UNK A   1      34.606 -22.762 -18.681  0.00  0.00    -0.471 OA
ATOM     32  C   UNK A   1      33.477 -23.001 -17.843  0.00  0.00    +0.252 C 
ENDBRANCH  30  31
ENDBRANCH  24  25
ENDBRANCH  23  24
ENDBRANCH  22  23
ENDBRANCH   1  22
TORSDOF 14
ENDMDL
