MODEL 1
REMARK VINA RESULT:      -8.3      0.000      0.000
REMARK  Name = 6839
REMARK  1 active torsions:
REMARK  status: ('A' for Active; 'I' for Inactive)
REMARK    1  A    between atoms: C_4  and  C_9
REMARK                            x       y       z     vdW  Elec       q    Type
REMARK                         _______ _______ _______ _____ _____    ______ ____
ROOT
ATOM      1  O   UNL     1      35.678 -18.789 -23.839  0.00  0.00    -0.274 OA
ATOM      2  O   UNL     1      33.694 -14.944 -22.214  0.00  0.00    -0.274 OA
ATOM      3  N   UNL     1      34.585 -16.782 -23.352  0.00  0.00    -0.228 N 
ATOM      4  C   UNL     1      35.533 -17.959 -21.567  0.00  0.00    +0.108 C 
ATOM      5  C   UNL     1      34.960 -16.634 -21.054  0.00  0.00    +0.099 C 
ATOM      6  C   UNL     1      35.302 -17.922 -23.060  0.00  0.00    +0.235 C 
ATOM      7  C   UNL     1      34.319 -15.994 -22.255  0.00  0.00    +0.232 C 
ATOM      8  C   UNL     1      34.153 -16.458 -24.699  0.00  0.00    +0.123 C 
ENDROOT
BRANCH   4   9
ATOM      9  C   UNL     1      34.851 -19.135 -20.952  0.00  0.00    -0.013 C 
ATOM     10  C   UNL     1      33.458 -19.199 -20.930  0.00  0.00    -0.004 C 
ATOM     11  C   UNL     1      35.605 -20.169 -20.400  0.00  0.00    -0.004 C 
ATOM     12  C   UNL     1      32.819 -20.297 -20.353  0.00  0.00    -0.000 C 
ATOM     13  C   UNL     1      34.967 -21.268 -19.825  0.00  0.00    -0.000 C 
ATOM     14  C   UNL     1      33.575 -21.331 -19.801  0.00  0.00    -0.000 C 
ENDBRANCH   4   9
TORSDOF 1
ENDMDL
MODEL 2
REMARK VINA RESULT:      -7.8      2.422      4.881
REMARK  Name = 6839
REMARK  1 active torsions:
REMARK  status: ('A' for Active; 'I' for Inactive)
REMARK    1  A    between atoms: C_4  and  C_9
REMARK                            x       y       z     vdW  Elec       q    Type
REMARK                         _______ _______ _______ _____ _____    ______ ____
ROOT
ATOM      1  O   UNL     1      32.689 -19.318 -20.657  0.00  0.00    -0.274 OA
ATOM      2  O   UNL     1      36.733 -21.448 -19.969  0.00  0.00    -0.274 OA
ATOM      3  N   UNL     1      34.540 -20.666 -20.193  0.00  0.00    -0.228 N 
ATOM      4  C   UNL     1      34.944 -18.540 -21.081  0.00  0.00    +0.108 C 
ATOM      5  C   UNL     1      36.279 -19.216 -20.756  0.00  0.00    +0.099 C 
ATOM      6  C   UNL     1      33.895 -19.524 -20.618  0.00  0.00    +0.235 C 
ATOM      7  C   UNL     1      35.913 -20.589 -20.262  0.00  0.00    +0.232 C 
ATOM      8  C   UNL     1      33.822 -21.835 -19.722  0.00  0.00    +0.123 C 
ENDROOT
BRANCH   4   9
ATOM      9  C   UNL     1      34.804 -18.260 -22.540  0.00  0.00    -0.013 C 
ATOM     10  C   UNL     1      34.771 -16.943 -22.997  0.00  0.00    -0.004 C 
ATOM     11  C   UNL     1      34.705 -19.316 -23.446  0.00  0.00    -0.004 C 
ATOM     12  C   UNL     1      34.637 -16.682 -24.362  0.00  0.00    -0.000 C 
ATOM     13  C   UNL     1      34.572 -19.055 -24.809  0.00  0.00    -0.000 C 
ATOM     14  C   UNL     1      34.538 -17.738 -25.267  0.00  0.00    -0.000 C 
ENDBRANCH   4   9
TORSDOF 1
ENDMDL
MODEL 3
REMARK VINA RESULT:      -7.5      1.863      2.724
REMARK  Name = 6839
REMARK  1 active torsions:
REMARK  status: ('A' for Active; 'I' for Inactive)
REMARK    1  A    between atoms: C_4  and  C_9
REMARK                            x       y       z     vdW  Elec       q    Type
REMARK                         _______ _______ _______ _____ _____    ______ ____
ROOT
ATOM      1  O   UNL     1      34.809 -16.839 -25.832  0.00  0.00    -0.274 OA
ATOM      2  O   UNL     1      32.625 -13.370 -23.696  0.00  0.00    -0.274 OA
ATOM      3  N   UNL     1      33.524 -15.050 -25.053  0.00  0.00    -0.228 N 
ATOM      4  C   UNL     1      35.089 -15.980 -23.584  0.00  0.00    +0.108 C 
ATOM      5  C   UNL     1      34.429 -14.767 -22.921  0.00  0.00    +0.099 C 
ATOM      6  C   UNL     1      34.488 -16.032 -24.970  0.00  0.00    +0.235 C 
ATOM      7  C   UNL     1      33.402 -14.291 -23.911  0.00  0.00    +0.232 C 
ATOM      8  C   UNL     1      32.717 -14.851 -26.242  0.00  0.00    +0.123 C 
ENDROOT
BRANCH   4   9
ATOM      9  C   UNL     1      34.810 -17.241 -22.837  0.00  0.00    -0.013 C 
ATOM     10  C   UNL     1      34.110 -17.197 -21.631  0.00  0.00    -0.004 C 
ATOM     11  C   UNL     1      35.249 -18.464 -23.344  0.00  0.00    -0.004 C 
ATOM     12  C   UNL     1      33.851 -18.377 -20.932  0.00  0.00    -0.000 C 
ATOM     13  C   UNL     1      34.989 -19.643 -22.646  0.00  0.00    -0.000 C 
ATOM     14  C   UNL     1      34.290 -19.599 -21.440  0.00  0.00    -0.000 C 
ENDBRANCH   4   9
TORSDOF 1
ENDMDL
MODEL 4
REMARK VINA RESULT:      -7.4      9.619     12.375
REMARK  Name = 6839
REMARK  1 active torsions:
REMARK  status: ('A' for Active; 'I' for Inactive)
REMARK    1  A    between atoms: C_4  and  C_9
REMARK                            x       y       z     vdW  Elec       q    Type
REMARK                         _______ _______ _______ _____ _____    ______ ____
ROOT
ATOM      1  O   UNL     1      31.140  -8.959 -23.236  0.00  0.00    -0.274 OA
ATOM      2  O   UNL     1      32.816  -7.050 -19.375  0.00  0.00    -0.274 OA
ATOM      3  N   UNL     1      31.998  -8.322 -21.158  0.00  0.00    -0.228 N 
ATOM      4  C   UNL     1      31.611  -6.636 -22.732  0.00  0.00    +0.108 C 
ATOM      5  C   UNL     1      32.072  -6.005 -21.414  0.00  0.00    +0.099 C 
ATOM      6  C   UNL     1      31.531  -8.116 -22.438  0.00  0.00    +0.235 C 
ATOM      7  C   UNL     1      32.358  -7.166 -20.503  0.00  0.00    +0.232 C 
ATOM      8  C   UNL     1      32.099  -9.645 -20.570  0.00  0.00    +0.123 C 
ENDROOT
BRANCH   4   9
ATOM      9  C   UNL     1      32.569  -6.365 -23.843  0.00  0.00    -0.013 C 
ATOM     10  C   UNL     1      32.217  -5.490 -24.870  0.00  0.00    -0.004 C 
ATOM     11  C   UNL     1      33.817  -6.989 -23.855  0.00  0.00    -0.004 C 
ATOM     12  C   UNL     1      33.113  -5.239 -25.910  0.00  0.00    -0.000 C 
ATOM     13  C   UNL     1      34.712  -6.738 -24.894  0.00  0.00    -0.000 C 
ATOM     14  C   UNL     1      34.360  -5.863 -25.921  0.00  0.00    -0.000 C 
ENDBRANCH   4   9
TORSDOF 1
ENDMDL
MODEL 5
REMARK VINA RESULT:      -7.4      4.197      6.370
REMARK  Name = 6839
REMARK  1 active torsions:
REMARK  status: ('A' for Active; 'I' for Inactive)
REMARK    1  A    between atoms: C_4  and  C_9
REMARK                            x       y       z     vdW  Elec       q    Type
REMARK                         _______ _______ _______ _____ _____    ______ ____
ROOT
ATOM      1  O   UNL     1      36.890 -21.590 -18.024  0.00  0.00    -0.274 OA
ATOM      2  O   UNL     1      33.045 -23.584 -16.412  0.00  0.00    -0.274 OA
ATOM      3  N   UNL     1      35.091 -22.558 -16.891  0.00  0.00    -0.228 N 
ATOM      4  C   UNL     1      34.943 -22.397 -19.220  0.00  0.00    +0.108 C 
ATOM      5  C   UNL     1      33.719 -23.145 -18.683  0.00  0.00    +0.099 C 
ATOM      6  C   UNL     1      35.790 -22.127 -17.998  0.00  0.00    +0.235 C 
ATOM      7  C   UNL     1      33.876 -23.132 -17.188  0.00  0.00    +0.232 C 
ATOM      8  C   UNL     1      35.602 -22.408 -15.541  0.00  0.00    +0.123 C 
ENDROOT
BRANCH   4   9
ATOM      9  C   UNL     1      34.562 -21.122 -19.894  0.00  0.00    -0.013 C 
ATOM     10  C   UNL     1      33.223 -20.739 -19.958  0.00  0.00    -0.004 C 
ATOM     11  C   UNL     1      35.547 -20.313 -20.463  0.00  0.00    -0.004 C 
ATOM     12  C   UNL     1      32.867 -19.547 -20.591  0.00  0.00    -0.000 C 
ATOM     13  C   UNL     1      35.191 -19.122 -21.095  0.00  0.00    -0.000 C 
ATOM     14  C   UNL     1      33.852 -18.739 -21.159  0.00  0.00    -0.000 C 
ENDBRANCH   4   9
TORSDOF 1
ENDMDL
MODEL 6
REMARK VINA RESULT:      -7.4      2.268      4.745
REMARK  Name = 6839
REMARK  1 active torsions:
REMARK  status: ('A' for Active; 'I' for Inactive)
REMARK    1  A    between atoms: C_4  and  C_9
REMARK                            x       y       z     vdW  Elec       q    Type
REMARK                         _______ _______ _______ _____ _____    ______ ____
ROOT
ATOM      1  O   UNL     1      37.215 -18.837 -21.673  0.00  0.00    -0.274 OA
ATOM      2  O   UNL     1      33.590 -20.943 -19.727  0.00  0.00    -0.274 OA
ATOM      3  N   UNL     1      35.618 -20.049 -20.472  0.00  0.00    -0.228 N 
ATOM      4  C   UNL     1      34.858 -18.687 -22.216  0.00  0.00    +0.108 C 
ATOM      5  C   UNL     1      33.677 -19.466 -21.628  0.00  0.00    +0.099 C 
ATOM      6  C   UNL     1      36.062 -19.185 -21.451  0.00  0.00    +0.235 C 
ATOM      7  C   UNL     1      34.256 -20.248 -20.482  0.00  0.00    +0.232 C 
ATOM      8  C   UNL     1      36.517 -20.678 -19.523  0.00  0.00    +0.123 C 
ENDROOT
BRANCH   4   9
ATOM      9  C   UNL     1      34.692 -17.214 -22.045  0.00  0.00    -0.013 C 
ATOM     10  C   UNL     1      34.614 -16.387 -23.165  0.00  0.00    -0.004 C 
ATOM     11  C   UNL     1      34.617 -16.665 -20.765  0.00  0.00    -0.004 C 
ATOM     12  C   UNL     1      34.461 -15.009 -23.004  0.00  0.00    -0.000 C 
ATOM     13  C   UNL     1      34.463 -15.288 -20.605  0.00  0.00    -0.000 C 
ATOM     14  C   UNL     1      34.385 -14.461 -21.724  0.00  0.00    -0.000 C 
ENDBRANCH   4   9
TORSDOF 1
ENDMDL
MODEL 7
REMARK VINA RESULT:      -7.3      2.831      3.893
REMARK  Name = 6839
REMARK  1 active torsions:
REMARK  status: ('A' for Active; 'I' for Inactive)
REMARK    1  A    between atoms: C_4  and  C_9
REMARK                            x       y       z     vdW  Elec       q    Type
REMARK                         _______ _______ _______ _____ _____    ______ ____
ROOT
ATOM      1  O   UNL     1      34.229 -13.929 -23.896  0.00  0.00    -0.274 OA
ATOM      2  O   UNL     1      32.454 -14.861 -19.731  0.00  0.00    -0.274 OA
ATOM      3  N   UNL     1      33.097 -14.148 -21.863  0.00  0.00    -0.228 N 
ATOM      4  C   UNL     1      34.922 -15.561 -22.244  0.00  0.00    +0.108 C 
ATOM      5  C   UNL     1      34.387 -15.793 -20.828  0.00  0.00    +0.099 C 
ATOM      6  C   UNL     1      34.070 -14.441 -22.795  0.00  0.00    +0.235 C 
ATOM      7  C   UNL     1      33.185 -14.896 -20.711  0.00  0.00    +0.232 C 
ATOM      8  C   UNL     1      32.077 -13.142 -22.094  0.00  0.00    +0.123 C 
ENDROOT
BRANCH   4   9
ATOM      9  C   UNL     1      34.802 -16.785 -23.090  0.00  0.00    -0.013 C 
ATOM     10  C   UNL     1      34.605 -16.665 -24.465  0.00  0.00    -0.004 C 
ATOM     11  C   UNL     1      34.887 -18.048 -22.504  0.00  0.00    -0.004 C 
ATOM     12  C   UNL     1      34.492 -17.809 -25.256  0.00  0.00    -0.000 C 
ATOM     13  C   UNL     1      34.775 -19.191 -23.294  0.00  0.00    -0.000 C 
ATOM     14  C   UNL     1      34.577 -19.072 -24.669  0.00  0.00    -0.000 C 
ENDBRANCH   4   9
TORSDOF 1
ENDMDL
MODEL 8
REMARK VINA RESULT:      -7.3      2.097      5.037
REMARK  Name = 6839
REMARK  1 active torsions:
REMARK  status: ('A' for Active; 'I' for Inactive)
REMARK    1  A    between atoms: C_4  and  C_9
REMARK                            x       y       z     vdW  Elec       q    Type
REMARK                         _______ _______ _______ _____ _____    ______ ____
ROOT
ATOM      1  O   UNL     1      35.332 -17.230 -20.631  0.00  0.00    -0.274 OA
ATOM      2  O   UNL     1      34.308 -18.992 -24.779  0.00  0.00    -0.274 OA
ATOM      3  N   UNL     1      34.784 -18.429 -22.560  0.00  0.00    -0.228 N 
ATOM      4  C   UNL     1      35.165 -16.132 -22.784  0.00  0.00    +0.108 C 
ATOM      5  C   UNL     1      34.923 -16.745 -24.167  0.00  0.00    +0.099 C 
ATOM      6  C   UNL     1      35.123 -17.307 -21.835  0.00  0.00    +0.235 C 
ATOM      7  C   UNL     1      34.621 -18.194 -23.906  0.00  0.00    +0.232 C 
ATOM      8  C   UNL     1      34.612 -19.731 -21.943  0.00  0.00    +0.123 C 
ENDROOT
BRANCH   4   9
ATOM      9  C   UNL     1      34.122 -15.126 -22.431  0.00  0.00    -0.013 C 
ATOM     10  C   UNL     1      33.665 -15.027 -21.118  0.00  0.00    -0.004 C 
ATOM     11  C   UNL     1      33.603 -14.285 -23.416  0.00  0.00    -0.004 C 
ATOM     12  C   UNL     1      32.687 -14.087 -20.788  0.00  0.00    -0.000 C 
ATOM     13  C   UNL     1      32.626 -13.346 -23.086  0.00  0.00    -0.000 C 
ATOM     14  C   UNL     1      32.169 -13.247 -21.773  0.00  0.00    -0.000 C 
ENDBRANCH   4   9
TORSDOF 1
ENDMDL
MODEL 9
REMARK VINA RESULT:      -7.2      3.270      4.933
REMARK  Name = 6839
REMARK  1 active torsions:
REMARK  status: ('A' for Active; 'I' for Inactive)
REMARK    1  A    between atoms: C_4  and  C_9
REMARK                            x       y       z     vdW  Elec       q    Type
REMARK                         _______ _______ _______ _____ _____    ______ ____
ROOT
ATOM      1  O   UNL     1      32.857 -22.089 -19.434  0.00  0.00    -0.274 OA
ATOM      2  O   UNL     1      35.671 -18.845 -21.144  0.00  0.00    -0.274 OA
ATOM      3  N   UNL     1      33.986 -20.268 -20.369  0.00  0.00    -0.228 N 
ATOM      4  C   UNL     1      35.276 -22.048 -19.569  0.00  0.00    +0.108 C 
ATOM      5  C   UNL     1      36.192 -21.012 -20.228  0.00  0.00    +0.099 C 
ATOM      6  C   UNL     1      33.880 -21.508 -19.775  0.00  0.00    +0.235 C 
ATOM      7  C   UNL     1      35.281 -19.890 -20.640  0.00  0.00    +0.232 C 
ATOM      8  C   UNL     1      32.827 -19.448 -20.668  0.00  0.00    +0.123 C 
ENDROOT
BRANCH   4   9
ATOM      9  C   UNL     1      35.574 -22.210 -18.116  0.00  0.00    -0.013 C 
ATOM     10  C   UNL     1      36.778 -21.736 -17.595  0.00  0.00    -0.004 C 
ATOM     11  C   UNL     1      34.650 -22.835 -17.280  0.00  0.00    -0.004 C 
ATOM     12  C   UNL     1      37.058 -21.889 -16.236  0.00  0.00    -0.000 C 
ATOM     13  C   UNL     1      34.929 -22.987 -15.922  0.00  0.00    -0.000 C 
ATOM     14  C   UNL     1      36.133 -22.514 -15.401  0.00  0.00    -0.000 C 
ENDBRANCH   4   9
TORSDOF 1
ENDMDL
