MODEL 1
REMARK VINA RESULT:      -7.2      0.000      0.000
REMARK  Name = 6918986
REMARK  5 active torsions:
REMARK  status: ('A' for Active; 'I' for Inactive)
REMARK    1  A    between atoms: C_1  and  C_3
REMARK    2  A    between atoms: C_1  and  CA_11
REMARK    3  A    between atoms: C_8  and  O_9
REMARK    4  A    between atoms: CA_11  and  N_12
REMARK    5  A    between atoms: CA_11  and  C_18
REMARK                            x       y       z     vdW  Elec       q    Type
REMARK                         _______ _______ _______ _____ _____    ______ ____
ROOT
ATOM      1  C   UNL     1      35.341 -18.280 -21.315  0.00  0.00    +0.016 C 
ENDROOT
BRANCH   1   3
ATOM      2  I   UNL     1      33.461 -13.734 -23.777  0.00  0.00    -0.039 I 
ATOM      3  C   UNL     1      34.946 -17.627 -22.618  0.00  0.00    -0.023 C 
ATOM      4  C   UNL     1      34.498 -16.316 -22.611  0.00  0.00    +0.004 C 
ATOM      5  C   UNL     1      35.039 -18.351 -23.795  0.00  0.00    -0.001 C 
ATOM      6  C   UNL     1      34.133 -15.713 -23.815  0.00  0.00    +0.063 C 
ATOM      7  C   UNL     1      34.675 -17.748 -24.999  0.00  0.00    +0.037 C 
ATOM      8  C   UNL     1      34.222 -16.430 -25.009  0.00  0.00    +0.139 C 
BRANCH   8   9
ATOM      9  O   UNL     1      33.875 -15.878 -26.207  0.00  0.00    -0.505 OA
ATOM     10  H   UNL     1      33.162 -16.236 -26.699  0.00  0.00    +0.292 HD
ENDBRANCH   8   9
ENDBRANCH   1   3
BRANCH   1  11
ATOM     11  CA  UNL     1      34.839 -19.725 -21.203  0.00  0.00    +0.045 C 
BRANCH  11  12
ATOM     12  N   UNL     1      33.387 -19.657 -20.842  0.00  0.00    +0.389 N 
ATOM     13  H1  UNL     1      32.950 -20.562 -21.023  0.00  0.00    -0.088 HD
ATOM     14  H2  UNL     1      32.929 -18.941 -21.406  0.00  0.00    -0.088 HD
ATOM     15  H3  UNL     1      33.293 -19.424 -19.854  0.00  0.00    -0.088 HD
ENDBRANCH  11  12
BRANCH  11  18
ATOM     16  O   UNL     1      36.721 -19.989 -19.801  0.00  0.00    -0.248 OA
ATOM     17  OXT UNL     1      35.146 -21.646 -19.843  0.00  0.00    -0.248 OA
ATOM     18  C   UNL     1      35.649 -20.537 -20.183  0.00  0.00    +0.345 C 
ENDBRANCH  11  18
ENDBRANCH   1  11
TORSDOF 5
ENDMDL
MODEL 2
REMARK VINA RESULT:      -7.1      2.136      2.644
REMARK  Name = 6918986
REMARK  5 active torsions:
REMARK  status: ('A' for Active; 'I' for Inactive)
REMARK    1  A    between atoms: C_1  and  C_3
REMARK    2  A    between atoms: C_1  and  CA_11
REMARK    3  A    between atoms: C_8  and  O_9
REMARK    4  A    between atoms: CA_11  and  N_12
REMARK    5  A    between atoms: CA_11  and  C_18
REMARK                            x       y       z     vdW  Elec       q    Type
REMARK                         _______ _______ _______ _____ _____    ______ ____
ROOT
ATOM      1  C   UNL     1      33.666 -20.464 -20.859  0.00  0.00    +0.016 C 
ENDROOT
BRANCH   1   3
ATOM      2  I   UNL     1      34.198 -14.989 -20.926  0.00  0.00    -0.039 I 
ATOM      3  C   UNL     1      34.189 -19.260 -21.605  0.00  0.00    -0.023 C 
ATOM      4  C   UNL     1      34.005 -17.995 -21.069  0.00  0.00    +0.004 C 
ATOM      5  C   UNL     1      34.842 -19.442 -22.813  0.00  0.00    -0.001 C 
ATOM      6  C   UNL     1      34.488 -16.884 -21.758  0.00  0.00    +0.063 C 
ATOM      7  C   UNL     1      35.326 -18.331 -23.503  0.00  0.00    +0.037 C 
ATOM      8  C   UNL     1      35.149 -17.052 -22.976  0.00  0.00    +0.139 C 
BRANCH   8   9
ATOM      9  O   UNL     1      35.637 -15.992 -23.683  0.00  0.00    -0.505 OA
ATOM     10  H   UNL     1      35.131 -15.206 -23.757  0.00  0.00    +0.292 HD
ENDBRANCH   8   9
ENDBRANCH   1   3
BRANCH   1  11
ATOM     11  CA  UNL     1      34.594 -20.900 -19.719  0.00  0.00    +0.045 C 
BRANCH  11  12
ATOM     12  N   UNL     1      35.926 -21.207 -20.331  0.00  0.00    +0.389 N 
ATOM     13  H1  UNL     1      36.435 -21.857 -19.731  0.00  0.00    -0.088 HD
ATOM     14  H2  UNL     1      36.462 -20.345 -20.428  0.00  0.00    -0.088 HD
ATOM     15  H3  UNL     1      35.789 -21.628 -21.249  0.00  0.00    -0.088 HD
ENDBRANCH  11  12
BRANCH  11  18
ATOM     16  O   UNL     1      32.779 -22.255 -19.051  0.00  0.00    -0.248 OA
ATOM     17  OXT UNL     1      34.873 -22.783 -18.300  0.00  0.00    -0.248 OA
ATOM     18  C   UNL     1      34.028 -22.097 -18.943  0.00  0.00    +0.345 C 
ENDBRANCH  11  18
ENDBRANCH   1  11
TORSDOF 5
ENDMDL
MODEL 3
REMARK VINA RESULT:      -7.0      9.805     11.393
REMARK  Name = 6918986
REMARK  5 active torsions:
REMARK  status: ('A' for Active; 'I' for Inactive)
REMARK    1  A    between atoms: C_1  and  C_3
REMARK    2  A    between atoms: C_1  and  CA_11
REMARK    3  A    between atoms: C_8  and  O_9
REMARK    4  A    between atoms: CA_11  and  N_12
REMARK    5  A    between atoms: CA_11  and  C_18
REMARK                            x       y       z     vdW  Elec       q    Type
REMARK                         _______ _______ _______ _____ _____    ______ ____
ROOT
ATOM      1  C   UNL     1      29.367 -22.439 -16.312  0.00  0.00    +0.016 C 
ENDROOT
BRANCH   1   3
ATOM      2  I   UNL     1      34.711 -23.419 -15.447  0.00  0.00    -0.039 I 
ATOM      3  C   UNL     1      30.397 -23.120 -15.441  0.00  0.00    -0.023 C 
ATOM      4  C   UNL     1      31.741 -22.996 -15.755  0.00  0.00    +0.004 C 
ATOM      5  C   UNL     1      29.978 -23.858 -14.346  0.00  0.00    -0.001 C 
ATOM      6  C   UNL     1      32.690 -23.625 -14.951  0.00  0.00    +0.063 C 
ATOM      7  C   UNL     1      30.927 -24.487 -13.542  0.00  0.00    +0.037 C 
ATOM      8  C   UNL     1      32.284 -24.371 -13.844  0.00  0.00    +0.139 C 
BRANCH   8   9
ATOM      9  O   UNL     1      33.180 -25.002 -13.032  0.00  0.00    -0.505 OA
ATOM     10  H   UNL     1      33.215 -24.790 -12.120  0.00  0.00    +0.292 HD
ENDBRANCH   8   9
ENDBRANCH   1   3
BRANCH   1  11
ATOM     11  CA  UNL     1      27.983 -23.092 -16.209  0.00  0.00    +0.045 C 
BRANCH  11  12
ATOM     12  N   UNL     1      27.965 -24.236 -17.174  0.00  0.00    +0.389 N 
ATOM     13  H1  UNL     1      28.353 -25.067 -16.724  0.00  0.00    -0.088 HD
ATOM     14  H2  UNL     1      28.528 -24.000 -17.992  0.00  0.00    -0.088 HD
ATOM     15  H3  UNL     1      27.005 -24.422 -17.463  0.00  0.00    -0.088 HD
ENDBRANCH  11  12
BRANCH  11  18
ATOM     16  O   UNL     1      27.065 -21.306 -17.451  0.00  0.00    -0.248 OA
ATOM     17  OXT UNL     1      25.850 -22.172 -15.718  0.00  0.00    -0.248 OA
ATOM     18  C   UNL     1      26.854 -22.089 -16.483  0.00  0.00    +0.345 C 
ENDBRANCH  11  18
ENDBRANCH   1  11
TORSDOF 5
ENDMDL
MODEL 4
REMARK VINA RESULT:      -6.8      8.923     10.421
REMARK  Name = 6918986
REMARK  5 active torsions:
REMARK  status: ('A' for Active; 'I' for Inactive)
REMARK    1  A    between atoms: C_1  and  C_3
REMARK    2  A    between atoms: C_1  and  CA_11
REMARK    3  A    between atoms: C_8  and  O_9
REMARK    4  A    between atoms: CA_11  and  N_12
REMARK    5  A    between atoms: CA_11  and  C_18
REMARK                            x       y       z     vdW  Elec       q    Type
REMARK                         _______ _______ _______ _____ _____    ______ ____
ROOT
ATOM      1  C   UNL     1      29.901 -22.721 -14.981  0.00  0.00    +0.016 C 
ENDROOT
BRANCH   1   3
ATOM      2  I   UNL     1      34.925 -24.131 -13.240  0.00  0.00    -0.039 I 
ATOM      3  C   UNL     1      31.333 -23.007 -15.368  0.00  0.00    -0.023 C 
ATOM      4  C   UNL     1      32.247 -23.350 -14.385  0.00  0.00    +0.004 C 
ATOM      5  C   UNL     1      31.705 -22.919 -16.700  0.00  0.00    -0.001 C 
ATOM      6  C   UNL     1      33.568 -23.614 -14.743  0.00  0.00    +0.063 C 
ATOM      7  C   UNL     1      33.027 -23.183 -17.058  0.00  0.00    +0.037 C 
ATOM      8  C   UNL     1      33.958 -23.530 -16.081  0.00  0.00    +0.139 C 
BRANCH   8   9
ATOM      9  O   UNL     1      35.240 -23.780 -16.473  0.00  0.00    -0.505 OA
ATOM     10  H   UNL     1      35.836 -24.204 -15.887  0.00  0.00    +0.292 HD
ENDBRANCH   8   9
ENDBRANCH   1   3
BRANCH   1  11
ATOM     11  CA  UNL     1      28.917 -23.739 -15.568  0.00  0.00    +0.045 C 
BRANCH  11  12
ATOM     12  N   UNL     1      29.678 -25.010 -15.785  0.00  0.00    +0.389 N 
ATOM     13  H1  UNL     1      30.523 -25.002 -15.213  0.00  0.00    -0.088 HD
ATOM     14  H2  UNL     1      29.936 -25.088 -16.769  0.00  0.00    -0.088 HD
ATOM     15  H3  UNL     1      29.096 -25.804 -15.522  0.00  0.00    -0.088 HD
ENDBRANCH  11  12
BRANCH  11  18
ATOM     16  O   UNL     1      27.720 -24.123 -17.568  0.00  0.00    -0.248 OA
ATOM     17  OXT UNL     1      28.345 -21.983 -17.060  0.00  0.00    -0.248 OA
ATOM     18  C   UNL     1      28.266 -23.229 -16.862  0.00  0.00    +0.345 C 
ENDBRANCH  11  18
ENDBRANCH   1  11
TORSDOF 5
ENDMDL
MODEL 5
REMARK VINA RESULT:      -6.8      8.412     10.032
REMARK  Name = 6918986
REMARK  5 active torsions:
REMARK  status: ('A' for Active; 'I' for Inactive)
REMARK    1  A    between atoms: C_1  and  C_3
REMARK    2  A    between atoms: C_1  and  CA_11
REMARK    3  A    between atoms: C_8  and  O_9
REMARK    4  A    between atoms: CA_11  and  N_12
REMARK    5  A    between atoms: CA_11  and  C_18
REMARK                            x       y       z     vdW  Elec       q    Type
REMARK                         _______ _______ _______ _____ _____    ______ ____
ROOT
ATOM      1  C   UNL     1      29.890 -22.769 -15.022  0.00  0.00    +0.016 C 
ENDROOT
BRANCH   1   3
ATOM      2  I   UNL     1      33.809 -22.570 -18.878  0.00  0.00    -0.039 I 
ATOM      3  C   UNL     1      31.332 -23.058 -15.367  0.00  0.00    -0.023 C 
ATOM      4  C   UNL     1      31.799 -22.762 -16.637  0.00  0.00    +0.004 C 
ATOM      5  C   UNL     1      32.160 -23.616 -14.406  0.00  0.00    -0.001 C 
ATOM      6  C   UNL     1      33.130 -23.029 -16.955  0.00  0.00    +0.063 C 
ATOM      7  C   UNL     1      33.491 -23.883 -14.724  0.00  0.00    +0.037 C 
ATOM      8  C   UNL     1      33.977 -23.590 -15.997  0.00  0.00    +0.139 C 
BRANCH   8   9
ATOM      9  O   UNL     1      35.285 -23.867 -16.267  0.00  0.00    -0.505 OA
ATOM     10  H   UNL     1      35.827 -23.218 -16.670  0.00  0.00    +0.292 HD
ENDBRANCH   8   9
ENDBRANCH   1   3
BRANCH   1  11
ATOM     11  CA  UNL     1      28.921 -23.786 -15.638  0.00  0.00    +0.045 C 
BRANCH  11  12
ATOM     12  N   UNL     1      29.706 -25.032 -15.908  0.00  0.00    +0.389 N 
ATOM     13  H1  UNL     1      30.700 -24.804 -15.956  0.00  0.00    -0.088 HD
ATOM     14  H2  UNL     1      29.408 -25.436 -16.795  0.00  0.00    -0.088 HD
ATOM     15  H3  UNL     1      29.546 -25.703 -15.157  0.00  0.00    -0.088 HD
ENDBRANCH  11  12
BRANCH  11  18
ATOM     16  O   UNL     1      28.369 -21.996 -17.078  0.00  0.00    -0.248 OA
ATOM     17  OXT UNL     1      27.667 -24.101 -17.630  0.00  0.00    -0.248 OA
ATOM     18  C   UNL     1      28.249 -23.242 -16.907  0.00  0.00    +0.345 C 
ENDBRANCH  11  18
ENDBRANCH   1  11
TORSDOF 5
ENDMDL
MODEL 6
REMARK VINA RESULT:      -6.7      6.771      8.430
REMARK  Name = 6918986
REMARK  5 active torsions:
REMARK  status: ('A' for Active; 'I' for Inactive)
REMARK    1  A    between atoms: C_1  and  C_3
REMARK    2  A    between atoms: C_1  and  CA_11
REMARK    3  A    between atoms: C_8  and  O_9
REMARK    4  A    between atoms: CA_11  and  N_12
REMARK    5  A    between atoms: CA_11  and  C_18
REMARK                            x       y       z     vdW  Elec       q    Type
REMARK                         _______ _______ _______ _____ _____    ______ ____
ROOT
ATOM      1  C   UNL     1      35.937 -23.531 -15.119  0.00  0.00    +0.016 C 
ENDROOT
BRANCH   1   3
ATOM      2  I   UNL     1      36.099 -20.988 -19.995  0.00  0.00    -0.039 I 
ATOM      3  C   UNL     1      35.166 -23.124 -16.353  0.00  0.00    -0.023 C 
ATOM      4  C   UNL     1      35.812 -22.421 -17.357  0.00  0.00    +0.004 C 
ATOM      5  C   UNL     1      33.826 -23.462 -16.456  0.00  0.00    -0.001 C 
ATOM      6  C   UNL     1      35.099 -22.047 -18.495  0.00  0.00    +0.063 C 
ATOM      7  C   UNL     1      33.113 -23.087 -17.595  0.00  0.00    +0.037 C 
ATOM      8  C   UNL     1      33.749 -22.380 -18.614  0.00  0.00    +0.139 C 
BRANCH   8   9
ATOM      9  O   UNL     1      33.016 -22.032 -19.710  0.00  0.00    -0.505 OA
ATOM     10  H   UNL     1      33.226 -22.395 -20.549  0.00  0.00    +0.292 HD
ENDBRANCH   8   9
ENDBRANCH   1   3
BRANCH   1  11
ATOM     11  CA  UNL     1      35.590 -24.948 -14.647  0.00  0.00    +0.045 C 
BRANCH  11  12
ATOM     12  N   UNL     1      35.435 -24.888 -13.159  0.00  0.00    +0.389 N 
ATOM     13  H1  UNL     1      34.548 -24.439 -12.927  0.00  0.00    -0.088 HD
ATOM     14  H2  UNL     1      36.203 -24.349 -12.758  0.00  0.00    -0.088 HD
ATOM     15  H3  UNL     1      35.447 -25.834 -12.778  0.00  0.00    -0.088 HD
ENDBRANCH  11  12
BRANCH  11  18
ATOM     16  O   UNL     1      37.775 -25.836 -14.515  0.00  0.00    -0.248 OA
ATOM     17  OXT UNL     1      36.273 -26.829 -15.924  0.00  0.00    -0.248 OA
ATOM     18  C   UNL     1      36.650 -25.972 -15.075  0.00  0.00    +0.345 C 
ENDBRANCH  11  18
ENDBRANCH   1  11
TORSDOF 5
ENDMDL
MODEL 7
REMARK VINA RESULT:      -6.7      8.507      9.885
REMARK  Name = 6918986
REMARK  5 active torsions:
REMARK  status: ('A' for Active; 'I' for Inactive)
REMARK    1  A    between atoms: C_1  and  C_3
REMARK    2  A    between atoms: C_1  and  CA_11
REMARK    3  A    between atoms: C_8  and  O_9
REMARK    4  A    between atoms: CA_11  and  N_12
REMARK    5  A    between atoms: CA_11  and  C_18
REMARK                            x       y       z     vdW  Elec       q    Type
REMARK                         _______ _______ _______ _____ _____    ______ ____
ROOT
ATOM      1  C   UNL     1      35.764 -24.609 -14.197  0.00  0.00    +0.016 C 
ENDROOT
BRANCH   1   3
ATOM      2  I   UNL     1      33.979 -22.398 -18.907  0.00  0.00    -0.039 I 
ATOM      3  C   UNL     1      34.576 -24.094 -14.974  0.00  0.00    -0.023 C 
ATOM      4  C   UNL     1      34.764 -23.605 -16.257  0.00  0.00    +0.004 C 
ATOM      5  C   UNL     1      33.320 -24.120 -14.390  0.00  0.00    -0.001 C 
ATOM      6  C   UNL     1      33.667 -23.130 -16.974  0.00  0.00    +0.063 C 
ATOM      7  C   UNL     1      32.222 -23.645 -15.107  0.00  0.00    +0.037 C 
ATOM      8  C   UNL     1      32.395 -23.150 -16.399  0.00  0.00    +0.139 C 
BRANCH   8   9
ATOM      9  O   UNL     1      31.296 -22.695 -17.067  0.00  0.00    -0.505 OA
ATOM     10  H   UNL     1      30.905 -21.878 -16.823  0.00  0.00    +0.292 HD
ENDBRANCH   8   9
ENDBRANCH   1   3
BRANCH   1  11
ATOM     11  CA  UNL     1      36.676 -25.508 -15.040  0.00  0.00    +0.045 C 
BRANCH  11  12
ATOM     12  N   UNL     1      36.052 -26.868 -15.062  0.00  0.00    +0.389 N 
ATOM     13  H1  UNL     1      36.778 -27.578 -14.956  0.00  0.00    -0.088 HD
ATOM     14  H2  UNL     1      35.569 -27.007 -15.950  0.00  0.00    -0.088 HD
ATOM     15  H3  UNL     1      35.384 -26.948 -14.295  0.00  0.00    -0.088 HD
ENDBRANCH  11  12
BRANCH  11  18
ATOM     16  O   UNL     1      38.689 -26.661 -14.594  0.00  0.00    -0.248 OA
ATOM     17  OXT UNL     1      38.544 -24.450 -14.027  0.00  0.00    -0.248 OA
ATOM     18  C   UNL     1      38.111 -25.541 -14.496  0.00  0.00    +0.345 C 
ENDBRANCH  11  18
ENDBRANCH   1  11
TORSDOF 5
ENDMDL
MODEL 8
REMARK VINA RESULT:      -6.6      3.599      6.416
REMARK  Name = 6918986
REMARK  5 active torsions:
REMARK  status: ('A' for Active; 'I' for Inactive)
REMARK    1  A    between atoms: C_1  and  C_3
REMARK    2  A    between atoms: C_1  and  CA_11
REMARK    3  A    between atoms: C_8  and  O_9
REMARK    4  A    between atoms: CA_11  and  N_12
REMARK    5  A    between atoms: CA_11  and  C_18
REMARK                            x       y       z     vdW  Elec       q    Type
REMARK                         _______ _______ _______ _____ _____    ______ ____
ROOT
ATOM      1  C   UNL     1      34.018 -19.349 -21.729  0.00  0.00    +0.016 C 
ENDROOT
BRANCH   1   3
ATOM      2  I   UNL     1      33.373 -23.059 -17.719  0.00  0.00    -0.039 I 
ATOM      3  C   UNL     1      34.693 -20.182 -20.665  0.00  0.00    -0.023 C 
ATOM      4  C   UNL     1      33.928 -21.025 -19.876  0.00  0.00    +0.004 C 
ATOM      5  C   UNL     1      36.065 -20.086 -20.498  0.00  0.00    -0.001 C 
ATOM      6  C   UNL     1      34.552 -21.794 -18.894  0.00  0.00    +0.063 C 
ATOM      7  C   UNL     1      36.689 -20.855 -19.516  0.00  0.00    +0.037 C 
ATOM      8  C   UNL     1      35.933 -21.709 -18.714  0.00  0.00    +0.139 C 
BRANCH   8   9
ATOM      9  O   UNL     1      36.582 -22.443 -17.765  0.00  0.00    -0.505 OA
ATOM     10  H   UNL     1      36.488 -22.225 -16.859  0.00  0.00    +0.292 HD
ENDBRANCH   8   9
ENDBRANCH   1   3
BRANCH   1  11
ATOM     11  CA  UNL     1      34.988 -18.391 -22.432  0.00  0.00    +0.045 C 
BRANCH  11  12
ATOM     12  N   UNL     1      34.652 -17.008 -21.968  0.00  0.00    +0.389 N 
ATOM     13  H1  UNL     1      34.868 -16.921 -20.974  0.00  0.00    -0.088 HD
ATOM     14  H2  UNL     1      33.658 -16.832 -22.115  0.00  0.00    -0.088 HD
ATOM     15  H3  UNL     1      35.200 -16.330 -22.496  0.00  0.00    -0.088 HD
ENDBRANCH  11  12
BRANCH  11  18
ATOM     16  O   UNL     1      34.893 -19.708 -24.391  0.00  0.00    -0.248 OA
ATOM     17  OXT UNL     1      34.880 -17.431 -24.600  0.00  0.00    -0.248 OA
ATOM     18  C   UNL     1      34.916 -18.520 -23.960  0.00  0.00    +0.345 C 
ENDBRANCH  11  18
ENDBRANCH   1  11
TORSDOF 5
ENDMDL
MODEL 9
REMARK VINA RESULT:      -6.5      3.845      5.634
REMARK  Name = 6918986
REMARK  5 active torsions:
REMARK  status: ('A' for Active; 'I' for Inactive)
REMARK    1  A    between atoms: C_1  and  C_3
REMARK    2  A    between atoms: C_1  and  CA_11
REMARK    3  A    between atoms: C_8  and  O_9
REMARK    4  A    between atoms: CA_11  and  N_12
REMARK    5  A    between atoms: CA_11  and  C_18
REMARK                            x       y       z     vdW  Elec       q    Type
REMARK                         _______ _______ _______ _____ _____    ______ ____
ROOT
ATOM      1  C   UNL     1      34.587 -14.447 -22.618  0.00  0.00    +0.016 C 
ENDROOT
BRANCH   1   3
ATOM      2  I   UNL     1      34.960 -19.722 -21.102  0.00  0.00    -0.039 I 
ATOM      3  C   UNL     1      34.678 -15.884 -23.074  0.00  0.00    -0.023 C 
ATOM      4  C   UNL     1      34.758 -16.893 -22.128  0.00  0.00    +0.004 C 
ATOM      5  C   UNL     1      34.680 -16.166 -24.431  0.00  0.00    -0.001 C 
ATOM      6  C   UNL     1      34.842 -18.219 -22.551  0.00  0.00    +0.063 C 
ATOM      7  C   UNL     1      34.764 -17.492 -24.853  0.00  0.00    +0.037 C 
ATOM      8  C   UNL     1      34.845 -18.519 -23.914  0.00  0.00    +0.139 C 
BRANCH   8   9
ATOM      9  O   UNL     1      34.926 -19.802 -24.369  0.00  0.00    -0.505 OA
ATOM     10  H   UNL     1      34.725 -19.995 -25.263  0.00  0.00    +0.292 HD
ENDBRANCH   8   9
ENDBRANCH   1   3
BRANCH   1  11
ATOM     11  CA  UNL     1      33.476 -13.670 -23.334  0.00  0.00    +0.045 C 
BRANCH  11  12
ATOM     12  N   UNL     1      34.098 -12.425 -23.887  0.00  0.00    +0.389 N 
ATOM     13  H1  UNL     1      34.750 -12.673 -24.632  0.00  0.00    -0.088 HD
ATOM     14  H2  UNL     1      34.600 -11.938 -23.145  0.00  0.00    -0.088 HD
ATOM     15  H3  UNL     1      33.368 -11.818 -24.261  0.00  0.00    -0.088 HD
ENDBRANCH  11  12
BRANCH  11  18
ATOM     16  O   UNL     1      31.948 -14.317 -21.653  0.00  0.00    -0.248 OA
ATOM     17  OXT UNL     1      31.827 -12.190 -22.482  0.00  0.00    -0.248 OA
ATOM     18  C   UNL     1      32.298 -13.360 -22.400  0.00  0.00    +0.345 C 
ENDBRANCH  11  18
ENDBRANCH   1  11
TORSDOF 5
ENDMDL
