MODEL 1
REMARK VINA RESULT:      -8.2      0.000      0.000
REMARK  Name = 2562
REMARK  11 active torsions:
REMARK  status: ('A' for Active; 'I' for Inactive)
REMARK    1  A    between atoms: C_2  and  C_3
REMARK    2  A    between atoms: C_2  and  O_14
REMARK    3  A    between atoms: C_3  and  C_8
REMARK    4  A    between atoms: O_14  and  C_15
REMARK    5  A    between atoms: C_15  and  C_16
REMARK    6  A    between atoms: C_16  and  O_17
REMARK    7  A    between atoms: O_17  and  C_18
REMARK    8  A    between atoms: C_18  and  C_19
REMARK    9  A    between atoms: C_19  and  N_20
REMARK   10  A    between atoms: N_20  and  C_22
REMARK   11  A    between atoms: N_20  and  C_24
REMARK                            x       y       z     vdW  Elec       q    Type
REMARK                         _______ _______ _______ _____ _____    ______ ____
ROOT
ATOM      1  O   UNL     1      34.551  -7.722 -22.534  0.00  0.00    -0.250 OA
ATOM      2  C   UNL     1      33.539  -8.248 -22.980  0.00  0.00    +0.320 C 
ENDROOT
BRANCH   2   3
ATOM      3  C   UNL     1      32.160  -8.067 -22.389  0.00  0.00    +0.108 C 
ATOM      4  C   UNL     1      31.123  -7.951 -23.523  0.00  0.00    +0.015 C 
ATOM      5  C   UNL     1      32.051  -6.669 -21.749  0.00  0.00    +0.015 C 
ATOM      6  C   UNL     1      31.245  -6.522 -24.046  0.00  0.00    +0.001 C 
ATOM      7  C   UNL     1      31.834  -5.699 -22.908  0.00  0.00    +0.001 C 
BRANCH   3   8
ATOM      8  C   UNL     1      31.908  -9.218 -21.424  0.00  0.00    -0.013 C 
ATOM      9  C   UNL     1      32.200  -9.070 -20.067  0.00  0.00    -0.004 C 
ATOM     10  C   UNL     1      31.385 -10.423 -21.896  0.00  0.00    -0.004 C 
ATOM     11  C   UNL     1      31.970 -10.125 -19.184  0.00  0.00    -0.000 C 
ATOM     12  C   UNL     1      31.155 -11.478 -21.012  0.00  0.00    -0.000 C 
ATOM     13  C   UNL     1      31.447 -11.329 -19.657  0.00  0.00    -0.000 C 
ENDBRANCH   3   8
ENDBRANCH   2   3
BRANCH   2  14
ATOM     14  O   UNL     1      33.467  -9.073 -24.064  0.00  0.00    -0.446 OA
BRANCH  14  15
ATOM     15  C   UNL     1      34.653  -9.822 -24.347  0.00  0.00    +0.240 C 
BRANCH  15  16
ATOM     16  C   UNL     1      34.260 -11.192 -24.864  0.00  0.00    +0.189 C 
BRANCH  16  17
ATOM     17  O   UNL     1      33.745 -11.965 -23.786  0.00  0.00    -0.352 OA
BRANCH  17  18
ATOM     18  C   UNL     1      33.649 -13.340 -24.129  0.00  0.00    +0.120 C 
BRANCH  18  19
ATOM     19  C   UNL     1      33.292 -14.132 -22.883  0.00  0.00    -0.045 C 
BRANCH  19  20
ATOM     20  N   UNL     1      34.470 -14.789 -22.335  0.00  0.00    +0.389 N 
ATOM     21  H   UNL     1      35.263 -14.157 -22.447  0.00  0.00    -0.080 HD
BRANCH  20  22
ATOM     22  C   UNL     1      34.756 -16.029 -23.060  0.00  0.00    -0.077 C 
ATOM     23  C   UNL     1      35.287 -17.103 -22.134  0.00  0.00    -0.025 C 
ENDBRANCH  20  22
BRANCH  20  24
ATOM     24  C   UNL     1      34.292 -15.067 -20.909  0.00  0.00    -0.077 C 
ATOM     25  C   UNL     1      32.859 -14.847 -20.474  0.00  0.00    -0.025 C 
ENDBRANCH  20  24
ENDBRANCH  19  20
ENDBRANCH  18  19
ENDBRANCH  17  18
ENDBRANCH  16  17
ENDBRANCH  15  16
ENDBRANCH  14  15
ENDBRANCH   2  14
TORSDOF 11
ENDMDL
MODEL 2
REMARK VINA RESULT:      -8.2      0.688      1.765
REMARK  Name = 2562
REMARK  11 active torsions:
REMARK  status: ('A' for Active; 'I' for Inactive)
REMARK    1  A    between atoms: C_2  and  C_3
REMARK    2  A    between atoms: C_2  and  O_14
REMARK    3  A    between atoms: C_3  and  C_8
REMARK    4  A    between atoms: O_14  and  C_15
REMARK    5  A    between atoms: C_15  and  C_16
REMARK    6  A    between atoms: C_16  and  O_17
REMARK    7  A    between atoms: O_17  and  C_18
REMARK    8  A    between atoms: C_18  and  C_19
REMARK    9  A    between atoms: C_19  and  N_20
REMARK   10  A    between atoms: N_20  and  C_22
REMARK   11  A    between atoms: N_20  and  C_24
REMARK                            x       y       z     vdW  Elec       q    Type
REMARK                         _______ _______ _______ _____ _____    ______ ____
ROOT
ATOM      1  O   UNL     1      34.562  -7.721 -22.432  0.00  0.00    -0.250 OA
ATOM      2  C   UNL     1      33.565  -8.241 -22.916  0.00  0.00    +0.320 C 
ENDROOT
BRANCH   2   3
ATOM      3  C   UNL     1      32.169  -8.073 -22.363  0.00  0.00    +0.108 C 
ATOM      4  C   UNL     1      31.162  -7.966 -23.525  0.00  0.00    +0.015 C 
ATOM      5  C   UNL     1      32.030  -6.676 -21.726  0.00  0.00    +0.015 C 
ATOM      6  C   UNL     1      31.285  -6.536 -24.045  0.00  0.00    +0.001 C 
ATOM      7  C   UNL     1      31.836  -5.708 -22.891  0.00  0.00    +0.001 C 
BRANCH   3   8
ATOM      8  C   UNL     1      31.900  -9.226 -21.405  0.00  0.00    -0.013 C 
ATOM      9  C   UNL     1      31.360 -10.421 -21.884  0.00  0.00    -0.004 C 
ATOM     10  C   UNL     1      32.192  -9.090 -20.047  0.00  0.00    -0.004 C 
ATOM     11  C   UNL     1      31.114 -11.477 -21.006  0.00  0.00    -0.000 C 
ATOM     12  C   UNL     1      31.946 -10.145 -19.169  0.00  0.00    -0.000 C 
ATOM     13  C   UNL     1      31.407 -11.339 -19.649  0.00  0.00    -0.000 C 
ENDBRANCH   3   8
ENDBRANCH   2   3
BRANCH   2  14
ATOM     14  O   UNL     1      33.527  -9.049 -24.014  0.00  0.00    -0.446 OA
BRANCH  14  15
ATOM     15  C   UNL     1      34.769  -9.665 -24.368  0.00  0.00    +0.240 C 
BRANCH  15  16
ATOM     16  C   UNL     1      34.497 -11.066 -24.882  0.00  0.00    +0.189 C 
BRANCH  16  17
ATOM     17  O   UNL     1      33.844 -11.815 -23.864  0.00  0.00    -0.352 OA
BRANCH  17  18
ATOM     18  C   UNL     1      33.388 -13.069 -24.352  0.00  0.00    +0.120 C 
BRANCH  18  19
ATOM     19  C   UNL     1      32.975 -13.933 -23.172  0.00  0.00    -0.045 C 
BRANCH  19  20
ATOM     20  N   UNL     1      33.461 -15.294 -23.335  0.00  0.00    +0.389 N 
ATOM     21  H   UNL     1      32.708 -15.931 -23.073  0.00  0.00    -0.080 HD
BRANCH  20  22
ATOM     22  C   UNL     1      34.608 -15.544 -22.458  0.00  0.00    -0.077 C 
ATOM     23  C   UNL     1      34.385 -14.966 -21.075  0.00  0.00    -0.025 C 
ENDBRANCH  20  22
BRANCH  20  24
ATOM     24  C   UNL     1      33.827 -15.551 -24.729  0.00  0.00    -0.077 C 
ATOM     25  C   UNL     1      34.623 -16.831 -24.868  0.00  0.00    -0.025 C 
ENDBRANCH  20  24
ENDBRANCH  19  20
ENDBRANCH  18  19
ENDBRANCH  17  18
ENDBRANCH  16  17
ENDBRANCH  15  16
ENDBRANCH  14  15
ENDBRANCH   2  14
TORSDOF 11
ENDMDL
MODEL 3
REMARK VINA RESULT:      -8.0      3.472      9.258
REMARK  Name = 2562
REMARK  11 active torsions:
REMARK  status: ('A' for Active; 'I' for Inactive)
REMARK    1  A    between atoms: C_2  and  C_3
REMARK    2  A    between atoms: C_2  and  O_14
REMARK    3  A    between atoms: C_3  and  C_8
REMARK    4  A    between atoms: O_14  and  C_15
REMARK    5  A    between atoms: C_15  and  C_16
REMARK    6  A    between atoms: C_16  and  O_17
REMARK    7  A    between atoms: O_17  and  C_18
REMARK    8  A    between atoms: C_18  and  C_19
REMARK    9  A    between atoms: C_19  and  N_20
REMARK   10  A    between atoms: N_20  and  C_22
REMARK   11  A    between atoms: N_20  and  C_24
REMARK                            x       y       z     vdW  Elec       q    Type
REMARK                         _______ _______ _______ _____ _____    ______ ____
ROOT
ATOM      1  O   UNL     1      32.853 -17.746 -20.972  0.00  0.00    -0.250 OA
ATOM      2  C   UNL     1      34.074 -17.812 -21.031  0.00  0.00    +0.320 C 
ENDROOT
BRANCH   2   3
ATOM      3  C   UNL     1      34.832 -18.984 -21.610  0.00  0.00    +0.108 C 
ATOM      4  C   UNL     1      36.257 -18.540 -21.993  0.00  0.00    +0.015 C 
ATOM      5  C   UNL     1      34.254 -19.340 -22.994  0.00  0.00    +0.015 C 
ATOM      6  C   UNL     1      36.113 -17.792 -23.316  0.00  0.00    +0.001 C 
ATOM      7  C   UNL     1      34.833 -18.309 -23.961  0.00  0.00    +0.001 C 
BRANCH   3   8
ATOM      8  C   UNL     1      34.780 -20.123 -20.600  0.00  0.00    -0.013 C 
ATOM      9  C   UNL     1      33.550 -20.648 -20.200  0.00  0.00    -0.004 C 
ATOM     10  C   UNL     1      35.963 -20.641 -20.071  0.00  0.00    -0.004 C 
ATOM     11  C   UNL     1      33.503 -21.689 -19.274  0.00  0.00    -0.000 C 
ATOM     12  C   UNL     1      35.916 -21.684 -19.145  0.00  0.00    -0.000 C 
ATOM     13  C   UNL     1      34.687 -22.207 -18.746  0.00  0.00    -0.000 C 
ENDBRANCH   3   8
ENDBRANCH   2   3
BRANCH   2  14
ATOM     14  O   UNL     1      34.957 -16.867 -20.597  0.00  0.00    -0.446 OA
BRANCH  14  15
ATOM     15  C   UNL     1      34.448 -15.530 -20.540  0.00  0.00    +0.240 C 
BRANCH  15  16
ATOM     16  C   UNL     1      34.662 -14.863 -21.885  0.00  0.00    +0.189 C 
BRANCH  16  17
ATOM     17  O   UNL     1      33.448 -14.913 -22.626  0.00  0.00    -0.352 OA
BRANCH  17  18
ATOM     18  C   UNL     1      32.405 -14.210 -21.966  0.00  0.00    +0.120 C 
BRANCH  18  19
ATOM     19  C   UNL     1      32.371 -12.782 -22.487  0.00  0.00    -0.045 C 
BRANCH  19  20
ATOM     20  N   UNL     1      31.448 -11.972 -21.707  0.00  0.00    +0.389 N 
ATOM     21  H   UNL     1      30.501 -12.299 -21.901  0.00  0.00    -0.080 HD
BRANCH  20  22
ATOM     22  C   UNL     1      31.542 -10.562 -22.093  0.00  0.00    -0.077 C 
ATOM     23  C   UNL     1      32.575 -10.353 -23.181  0.00  0.00    -0.025 C 
ENDBRANCH  20  22
BRANCH  20  24
ATOM     24  C   UNL     1      31.708 -12.122 -20.274  0.00  0.00    -0.077 C 
ATOM     25  C   UNL     1      31.301 -10.885 -19.503  0.00  0.00    -0.025 C 
ENDBRANCH  20  24
ENDBRANCH  19  20
ENDBRANCH  18  19
ENDBRANCH  17  18
ENDBRANCH  16  17
ENDBRANCH  15  16
ENDBRANCH  14  15
ENDBRANCH   2  14
TORSDOF 11
ENDMDL
MODEL 4
REMARK VINA RESULT:      -7.9      3.239      9.065
REMARK  Name = 2562
REMARK  11 active torsions:
REMARK  status: ('A' for Active; 'I' for Inactive)
REMARK    1  A    between atoms: C_2  and  C_3
REMARK    2  A    between atoms: C_2  and  O_14
REMARK    3  A    between atoms: C_3  and  C_8
REMARK    4  A    between atoms: O_14  and  C_15
REMARK    5  A    between atoms: C_15  and  C_16
REMARK    6  A    between atoms: C_16  and  O_17
REMARK    7  A    between atoms: O_17  and  C_18
REMARK    8  A    between atoms: C_18  and  C_19
REMARK    9  A    between atoms: C_19  and  N_20
REMARK   10  A    between atoms: N_20  and  C_22
REMARK   11  A    between atoms: N_20  and  C_24
REMARK                            x       y       z     vdW  Elec       q    Type
REMARK                         _______ _______ _______ _____ _____    ______ ____
ROOT
ATOM      1  O   UNL     1      35.353 -16.780 -20.202  0.00  0.00    -0.250 OA
ATOM      2  C   UNL     1      34.554 -17.337 -20.943  0.00  0.00    +0.320 C 
ENDROOT
BRANCH   2   3
ATOM      3  C   UNL     1      34.864 -18.584 -21.739  0.00  0.00    +0.108 C 
ATOM      4  C   UNL     1      36.240 -18.436 -22.416  0.00  0.00    +0.015 C 
ATOM      5  C   UNL     1      33.939 -18.655 -22.970  0.00  0.00    +0.015 C 
ATOM      6  C   UNL     1      36.007 -17.543 -23.631  0.00  0.00    +0.001 C 
ATOM      7  C   UNL     1      34.534 -17.687 -23.991  0.00  0.00    +0.001 C 
BRANCH   3   8
ATOM      8  C   UNL     1      34.751 -19.779 -20.802  0.00  0.00    -0.013 C 
ATOM      9  C   UNL     1      35.903 -20.410 -20.332  0.00  0.00    -0.004 C 
ATOM     10  C   UNL     1      33.494 -20.246 -20.414  0.00  0.00    -0.004 C 
ATOM     11  C   UNL     1      35.800 -21.506 -19.475  0.00  0.00    -0.000 C 
ATOM     12  C   UNL     1      33.390 -21.341 -19.556  0.00  0.00    -0.000 C 
ATOM     13  C   UNL     1      34.543 -21.971 -19.087  0.00  0.00    -0.000 C 
ENDBRANCH   3   8
ENDBRANCH   2   3
BRANCH   2  14
ATOM     14  O   UNL     1      33.268 -16.949 -21.185  0.00  0.00    -0.446 OA
BRANCH  14  15
ATOM     15  C   UNL     1      32.971 -15.582 -20.881  0.00  0.00    +0.240 C 
BRANCH  15  16
ATOM     16  C   UNL     1      32.789 -14.817 -22.178  0.00  0.00    +0.189 C 
BRANCH  16  17
ATOM     17  O   UNL     1      34.058 -14.354 -22.626  0.00  0.00    -0.352 OA
BRANCH  17  18
ATOM     18  C   UNL     1      33.944 -13.594 -23.820  0.00  0.00    +0.120 C 
BRANCH  18  19
ATOM     19  C   UNL     1      33.301 -12.257 -23.490  0.00  0.00    -0.045 C 
BRANCH  19  20
ATOM     20  N   UNL     1      34.113 -11.158 -23.991  0.00  0.00    +0.389 N 
ATOM     21  H   UNL     1      35.008 -11.180 -23.502  0.00  0.00    -0.080 HD
BRANCH  20  22
ATOM     22  C   UNL     1      33.465  -9.872 -23.723  0.00  0.00    -0.077 C 
ATOM     23  C   UNL     1      32.325 -10.019 -22.737  0.00  0.00    -0.025 C 
ENDBRANCH  20  22
BRANCH  20  24
ATOM     24  C   UNL     1      34.361 -11.310 -25.426  0.00  0.00    -0.077 C 
ATOM     25  C   UNL     1      35.483 -10.407 -25.894  0.00  0.00    -0.025 C 
ENDBRANCH  20  24
ENDBRANCH  19  20
ENDBRANCH  18  19
ENDBRANCH  17  18
ENDBRANCH  16  17
ENDBRANCH  15  16
ENDBRANCH  14  15
ENDBRANCH   2  14
TORSDOF 11
ENDMDL
MODEL 5
REMARK VINA RESULT:      -7.7      9.538     14.832
REMARK  Name = 2562
REMARK  11 active torsions:
REMARK  status: ('A' for Active; 'I' for Inactive)
REMARK    1  A    between atoms: C_2  and  C_3
REMARK    2  A    between atoms: C_2  and  O_14
REMARK    3  A    between atoms: C_3  and  C_8
REMARK    4  A    between atoms: O_14  and  C_15
REMARK    5  A    between atoms: C_15  and  C_16
REMARK    6  A    between atoms: C_16  and  O_17
REMARK    7  A    between atoms: O_17  and  C_18
REMARK    8  A    between atoms: C_18  and  C_19
REMARK    9  A    between atoms: C_19  and  N_20
REMARK   10  A    between atoms: N_20  and  C_22
REMARK   11  A    between atoms: N_20  and  C_24
REMARK                            x       y       z     vdW  Elec       q    Type
REMARK                         _______ _______ _______ _____ _____    ______ ____
ROOT
ATOM      1  O   UNL     1      37.509 -22.928 -13.857  0.00  0.00    -0.250 OA
ATOM      2  C   UNL     1      36.899 -23.585 -14.691  0.00  0.00    +0.320 C 
ENDROOT
BRANCH   2   3
ATOM      3  C   UNL     1      35.929 -24.692 -14.353  0.00  0.00    +0.108 C 
ATOM      4  C   UNL     1      36.199 -25.198 -12.923  0.00  0.00    +0.015 C 
ATOM      5  C   UNL     1      36.271 -25.949 -15.177  0.00  0.00    +0.015 C 
ATOM      6  C   UNL     1      37.422 -26.105 -13.032  0.00  0.00    +0.001 C 
ATOM      7  C   UNL     1      37.465 -26.592 -14.475  0.00  0.00    +0.001 C 
BRANCH   3   8
ATOM      8  C   UNL     1      34.517 -24.164 -14.575  0.00  0.00    -0.013 C 
ATOM      9  C   UNL     1      34.096 -23.814 -15.858  0.00  0.00    -0.004 C 
ATOM     10  C   UNL     1      33.645 -24.028 -13.495  0.00  0.00    -0.004 C 
ATOM     11  C   UNL     1      32.804 -23.329 -16.061  0.00  0.00    -0.000 C 
ATOM     12  C   UNL     1      32.352 -23.544 -13.697  0.00  0.00    -0.000 C 
ATOM     13  C   UNL     1      31.932 -23.194 -14.980  0.00  0.00    -0.000 C 
ENDBRANCH   3   8
ENDBRANCH   2   3
BRANCH   2  14
ATOM     14  O   UNL     1      36.979 -23.445 -16.046  0.00  0.00    -0.446 OA
BRANCH  14  15
ATOM     15  C   UNL     1      37.202 -22.111 -16.514  0.00  0.00    +0.240 C 
BRANCH  15  16
ATOM     16  C   UNL     1      36.378 -21.883 -17.766  0.00  0.00    +0.189 C 
BRANCH  16  17
ATOM     17  O   UNL     1      36.860 -20.724 -18.436  0.00  0.00    -0.352 OA
BRANCH  17  18
ATOM     18  C   UNL     1      36.777 -20.864 -19.846  0.00  0.00    +0.120 C 
BRANCH  18  19
ATOM     19  C   UNL     1      35.344 -20.604 -20.281  0.00  0.00    -0.045 C 
BRANCH  19  20
ATOM     20  N   UNL     1      35.148 -19.197 -20.592  0.00  0.00    +0.389 N 
ATOM     21  H   UNL     1      35.236 -18.667 -19.725  0.00  0.00    -0.080 HD
BRANCH  20  22
ATOM     22  C   UNL     1      33.809 -18.970 -21.143  0.00  0.00    -0.077 C 
ATOM     23  C   UNL     1      32.843 -20.056 -20.719  0.00  0.00    -0.025 C 
ENDBRANCH  20  22
BRANCH  20  24
ATOM     24  C   UNL     1      36.167 -18.726 -21.532  0.00  0.00    -0.077 C 
ATOM     25  C   UNL     1      35.550 -18.261 -22.834  0.00  0.00    -0.025 C 
ENDBRANCH  20  24
ENDBRANCH  19  20
ENDBRANCH  18  19
ENDBRANCH  17  18
ENDBRANCH  16  17
ENDBRANCH  15  16
ENDBRANCH  14  15
ENDBRANCH   2  14
TORSDOF 11
ENDMDL
MODEL 6
REMARK VINA RESULT:      -7.6      3.334      9.221
REMARK  Name = 2562
REMARK  11 active torsions:
REMARK  status: ('A' for Active; 'I' for Inactive)
REMARK    1  A    between atoms: C_2  and  C_3
REMARK    2  A    between atoms: C_2  and  O_14
REMARK    3  A    between atoms: C_3  and  C_8
REMARK    4  A    between atoms: O_14  and  C_15
REMARK    5  A    between atoms: C_15  and  C_16
REMARK    6  A    between atoms: C_16  and  O_17
REMARK    7  A    between atoms: O_17  and  C_18
REMARK    8  A    between atoms: C_18  and  C_19
REMARK    9  A    between atoms: C_19  and  N_20
REMARK   10  A    between atoms: N_20  and  C_22
REMARK   11  A    between atoms: N_20  and  C_24
REMARK                            x       y       z     vdW  Elec       q    Type
REMARK                         _______ _______ _______ _____ _____    ______ ____
ROOT
ATOM      1  O   UNL     1      35.294 -16.779 -20.219  0.00  0.00    -0.250 OA
ATOM      2  C   UNL     1      34.517 -17.355 -20.969  0.00  0.00    +0.320 C 
ENDROOT
BRANCH   2   3
ATOM      3  C   UNL     1      34.860 -18.602 -21.750  0.00  0.00    +0.108 C 
ATOM      4  C   UNL     1      36.243 -18.434 -22.410  0.00  0.00    +0.015 C 
ATOM      5  C   UNL     1      33.953 -18.700 -22.992  0.00  0.00    +0.015 C 
ATOM      6  C   UNL     1      36.009 -17.554 -23.636  0.00  0.00    +0.001 C 
ATOM      7  C   UNL     1      34.543 -17.729 -24.013  0.00  0.00    +0.001 C 
BRANCH   3   8
ATOM      8  C   UNL     1      34.758 -19.792 -20.805  0.00  0.00    -0.013 C 
ATOM      9  C   UNL     1      35.916 -20.395 -20.312  0.00  0.00    -0.004 C 
ATOM     10  C   UNL     1      33.506 -20.283 -20.433  0.00  0.00    -0.004 C 
ATOM     11  C   UNL     1      35.822 -21.486 -19.447  0.00  0.00    -0.000 C 
ATOM     12  C   UNL     1      33.411 -21.373 -19.568  0.00  0.00    -0.000 C 
ATOM     13  C   UNL     1      34.568 -21.974 -19.075  0.00  0.00    -0.000 C 
ENDBRANCH   3   8
ENDBRANCH   2   3
BRANCH   2  14
ATOM     14  O   UNL     1      33.229 -16.991 -21.233  0.00  0.00    -0.446 OA
BRANCH  14  15
ATOM     15  C   UNL     1      32.820 -15.734 -20.685  0.00  0.00    +0.240 C 
BRANCH  15  16
ATOM     16  C   UNL     1      32.598 -14.751 -21.818  0.00  0.00    +0.189 C 
BRANCH  16  17
ATOM     17  O   UNL     1      32.296 -13.472 -21.271  0.00  0.00    -0.352 OA
BRANCH  17  18
ATOM     18  C   UNL     1      31.966 -12.536 -22.287  0.00  0.00    +0.120 C 
BRANCH  18  19
ATOM     19  C   UNL     1      31.169 -11.400 -21.666  0.00  0.00    -0.045 C 
BRANCH  19  20
ATOM     20  N   UNL     1      31.985 -10.201 -21.553  0.00  0.00    +0.389 N 
ATOM     21  H   UNL     1      32.961 -10.472 -21.670  0.00  0.00    -0.080 HD
BRANCH  20  22
ATOM     22  C   UNL     1      31.825  -9.588 -20.232  0.00  0.00    -0.077 C 
ATOM     23  C   UNL     1      31.144 -10.530 -19.262  0.00  0.00    -0.025 C 
ENDBRANCH  20  22
BRANCH  20  24
ATOM     24  C   UNL     1      31.640  -9.238 -22.602  0.00  0.00    -0.077 C 
ATOM     25  C   UNL     1      32.874  -8.726 -23.313  0.00  0.00    -0.025 C 
ENDBRANCH  20  24
ENDBRANCH  19  20
ENDBRANCH  18  19
ENDBRANCH  17  18
ENDBRANCH  16  17
ENDBRANCH  15  16
ENDBRANCH  14  15
ENDBRANCH   2  14
TORSDOF 11
ENDMDL
MODEL 7
REMARK VINA RESULT:      -7.5      2.121      4.451
REMARK  Name = 2562
REMARK  11 active torsions:
REMARK  status: ('A' for Active; 'I' for Inactive)
REMARK    1  A    between atoms: C_2  and  C_3
REMARK    2  A    between atoms: C_2  and  O_14
REMARK    3  A    between atoms: C_3  and  C_8
REMARK    4  A    between atoms: O_14  and  C_15
REMARK    5  A    between atoms: C_15  and  C_16
REMARK    6  A    between atoms: C_16  and  O_17
REMARK    7  A    between atoms: O_17  and  C_18
REMARK    8  A    between atoms: C_18  and  C_19
REMARK    9  A    between atoms: C_19  and  N_20
REMARK   10  A    between atoms: N_20  and  C_22
REMARK   11  A    between atoms: N_20  and  C_24
REMARK                            x       y       z     vdW  Elec       q    Type
REMARK                         _______ _______ _______ _____ _____    ______ ____
ROOT
ATOM      1  O   UNL     1      30.474  -8.088 -23.580  0.00  0.00    -0.250 OA
ATOM      2  C   UNL     1      31.681  -8.159 -23.389  0.00  0.00    +0.320 C 
ENDROOT
BRANCH   2   3
ATOM      3  C   UNL     1      32.549  -6.982 -23.005  0.00  0.00    +0.108 C 
ATOM      4  C   UNL     1      33.676  -7.456 -22.067  0.00  0.00    +0.015 C 
ATOM      5  C   UNL     1      31.763  -6.045 -22.067  0.00  0.00    +0.015 C 
ATOM      6  C   UNL     1      33.029  -7.614 -20.693  0.00  0.00    +0.001 C 
ATOM      7  C   UNL     1      31.806  -6.705 -20.691  0.00  0.00    +0.001 C 
BRANCH   3   8
ATOM      8  C   UNL     1      33.037  -6.320 -24.286  0.00  0.00    -0.013 C 
ATOM      9  C   UNL     1      32.223  -5.402 -24.952  0.00  0.00    -0.004 C 
ATOM     10  C   UNL     1      34.297  -6.631 -24.798  0.00  0.00    -0.004 C 
ATOM     11  C   UNL     1      32.670  -4.796 -26.127  0.00  0.00    -0.000 C 
ATOM     12  C   UNL     1      34.745  -6.025 -25.972  0.00  0.00    -0.000 C 
ATOM     13  C   UNL     1      33.931  -5.108 -26.636  0.00  0.00    -0.000 C 
ENDBRANCH   3   8
ENDBRANCH   2   3
BRANCH   2  14
ATOM     14  O   UNL     1      32.451  -9.281 -23.484  0.00  0.00    -0.446 OA
BRANCH  14  15
ATOM     15  C   UNL     1      31.933 -10.440 -22.822  0.00  0.00    +0.240 C 
BRANCH  15  16
ATOM     16  C   UNL     1      32.751 -11.649 -23.231  0.00  0.00    +0.189 C 
BRANCH  16  17
ATOM     17  O   UNL     1      32.099 -12.828 -22.772  0.00  0.00    -0.352 OA
BRANCH  17  18
ATOM     18  C   UNL     1      33.029 -13.868 -22.507  0.00  0.00    +0.120 C 
BRANCH  18  19
ATOM     19  C   UNL     1      33.879 -14.092 -23.747  0.00  0.00    -0.045 C 
BRANCH  19  20
ATOM     20  N   UNL     1      33.632 -15.410 -24.310  0.00  0.00    +0.389 N 
ATOM     21  H   UNL     1      32.752 -15.757 -23.925  0.00  0.00    -0.080 HD
BRANCH  20  22
ATOM     22  C   UNL     1      34.701 -16.341 -23.940  0.00  0.00    -0.077 C 
ATOM     23  C   UNL     1      34.673 -17.588 -24.798  0.00  0.00    -0.025 C 
ENDBRANCH  20  22
BRANCH  20  24
ATOM     24  C   UNL     1      33.508 -15.337 -25.767  0.00  0.00    -0.077 C 
ATOM     25  C   UNL     1      32.832 -14.054 -26.203  0.00  0.00    -0.025 C 
ENDBRANCH  20  24
ENDBRANCH  19  20
ENDBRANCH  18  19
ENDBRANCH  17  18
ENDBRANCH  16  17
ENDBRANCH  15  16
ENDBRANCH  14  15
ENDBRANCH   2  14
TORSDOF 11
ENDMDL
MODEL 8
REMARK VINA RESULT:      -7.2      1.201      4.004
REMARK  Name = 2562
REMARK  11 active torsions:
REMARK  status: ('A' for Active; 'I' for Inactive)
REMARK    1  A    between atoms: C_2  and  C_3
REMARK    2  A    between atoms: C_2  and  O_14
REMARK    3  A    between atoms: C_3  and  C_8
REMARK    4  A    between atoms: O_14  and  C_15
REMARK    5  A    between atoms: C_15  and  C_16
REMARK    6  A    between atoms: C_16  and  O_17
REMARK    7  A    between atoms: O_17  and  C_18
REMARK    8  A    between atoms: C_18  and  C_19
REMARK    9  A    between atoms: C_19  and  N_20
REMARK   10  A    between atoms: N_20  and  C_22
REMARK   11  A    between atoms: N_20  and  C_24
REMARK                            x       y       z     vdW  Elec       q    Type
REMARK                         _______ _______ _______ _____ _____    ______ ____
ROOT
ATOM      1  O   UNL     1      34.937  -7.544 -22.846  0.00  0.00    -0.250 OA
ATOM      2  C   UNL     1      33.878  -8.096 -23.115  0.00  0.00    +0.320 C 
ENDROOT
BRANCH   2   3
ATOM      3  C   UNL     1      32.525  -7.601 -22.659  0.00  0.00    +0.108 C 
ATOM      4  C   UNL     1      32.525  -7.435 -21.127  0.00  0.00    +0.015 C 
ATOM      5  C   UNL     1      31.480  -8.721 -22.832  0.00  0.00    +0.015 C 
ATOM      6  C   UNL     1      32.362  -8.843 -20.561  0.00  0.00    +0.001 C 
ATOM      7  C   UNL     1      31.687  -9.666 -21.650  0.00  0.00    +0.001 C 
BRANCH   3   8
ATOM      8  C   UNL     1      32.208  -6.325 -23.428  0.00  0.00    -0.013 C 
ATOM      9  C   UNL     1      32.590  -6.201 -24.764  0.00  0.00    -0.004 C 
ATOM     10  C   UNL     1      31.536  -5.278 -22.796  0.00  0.00    -0.004 C 
ATOM     11  C   UNL     1      32.301  -5.032 -25.468  0.00  0.00    -0.000 C 
ATOM     12  C   UNL     1      31.246  -4.108 -23.499  0.00  0.00    -0.000 C 
ATOM     13  C   UNL     1      31.628  -3.985 -24.835  0.00  0.00    -0.000 C 
ENDBRANCH   3   8
ENDBRANCH   2   3
BRANCH   2  14
ATOM     14  O   UNL     1      33.723  -9.230 -23.856  0.00  0.00    -0.446 OA
BRANCH  14  15
ATOM     15  C   UNL     1      34.929  -9.786 -24.391  0.00  0.00    +0.240 C 
BRANCH  15  16
ATOM     16  C   UNL     1      34.590 -11.038 -25.176  0.00  0.00    +0.189 C 
BRANCH  16  17
ATOM     17  O   UNL     1      33.451 -11.659 -24.591  0.00  0.00    -0.352 OA
BRANCH  17  18
ATOM     18  C   UNL     1      33.825 -12.697 -23.698  0.00  0.00    +0.120 C 
BRANCH  18  19
ATOM     19  C   UNL     1      33.242 -14.008 -24.198  0.00  0.00    -0.045 C 
BRANCH  19  20
ATOM     20  N   UNL     1      33.549 -15.093 -23.279  0.00  0.00    +0.389 N 
ATOM     21  H   UNL     1      32.690 -15.617 -23.112  0.00  0.00    -0.080 HD
BRANCH  20  22
ATOM     22  C   UNL     1      34.031 -14.567 -21.999  0.00  0.00    -0.077 C 
ATOM     23  C   UNL     1      33.092 -14.921 -20.865  0.00  0.00    -0.025 C 
ENDBRANCH  20  22
BRANCH  20  24
ATOM     24  C   UNL     1      34.543 -15.998 -23.859  0.00  0.00    -0.077 C 
ATOM     25  C   UNL     1      34.135 -16.459 -25.242  0.00  0.00    -0.025 C 
ENDBRANCH  20  24
ENDBRANCH  19  20
ENDBRANCH  18  19
ENDBRANCH  17  18
ENDBRANCH  16  17
ENDBRANCH  15  16
ENDBRANCH  14  15
ENDBRANCH   2  14
TORSDOF 11
ENDMDL
MODEL 9
REMARK VINA RESULT:      -7.2      1.203      3.817
REMARK  Name = 2562
REMARK  11 active torsions:
REMARK  status: ('A' for Active; 'I' for Inactive)
REMARK    1  A    between atoms: C_2  and  C_3
REMARK    2  A    between atoms: C_2  and  O_14
REMARK    3  A    between atoms: C_3  and  C_8
REMARK    4  A    between atoms: O_14  and  C_15
REMARK    5  A    between atoms: C_15  and  C_16
REMARK    6  A    between atoms: C_16  and  O_17
REMARK    7  A    between atoms: O_17  and  C_18
REMARK    8  A    between atoms: C_18  and  C_19
REMARK    9  A    between atoms: C_19  and  N_20
REMARK   10  A    between atoms: N_20  and  C_22
REMARK   11  A    between atoms: N_20  and  C_24
REMARK                            x       y       z     vdW  Elec       q    Type
REMARK                         _______ _______ _______ _____ _____    ______ ____
ROOT
ATOM      1  O   UNL     1      34.981  -7.611 -22.872  0.00  0.00    -0.250 OA
ATOM      2  C   UNL     1      33.906  -8.131 -23.141  0.00  0.00    +0.320 C 
ENDROOT
BRANCH   2   3
ATOM      3  C   UNL     1      32.569  -7.602 -22.678  0.00  0.00    +0.108 C 
ATOM      4  C   UNL     1      32.576  -7.449 -21.145  0.00  0.00    +0.015 C 
ATOM      5  C   UNL     1      31.492  -8.690 -22.858  0.00  0.00    +0.015 C 
ATOM      6  C   UNL     1      32.375  -8.856 -20.590  0.00  0.00    +0.001 C 
ATOM      7  C   UNL     1      31.675  -9.650 -21.685  0.00  0.00    +0.001 C 
BRANCH   3   8
ATOM      8  C   UNL     1      32.286  -6.311 -23.436  0.00  0.00    -0.013 C 
ATOM      9  C   UNL     1      32.690  -6.178 -24.765  0.00  0.00    -0.004 C 
ATOM     10  C   UNL     1      31.626  -5.258 -22.801  0.00  0.00    -0.004 C 
ATOM     11  C   UNL     1      32.432  -4.996 -25.459  0.00  0.00    -0.000 C 
ATOM     12  C   UNL     1      31.368  -4.075 -23.494  0.00  0.00    -0.000 C 
ATOM     13  C   UNL     1      31.771  -3.944 -24.823  0.00  0.00    -0.000 C 
ENDBRANCH   3   8
ENDBRANCH   2   3
BRANCH   2  14
ATOM     14  O   UNL     1      33.718  -9.256 -23.890  0.00  0.00    -0.446 OA
BRANCH  14  15
ATOM     15  C   UNL     1      34.866  -9.714 -24.612  0.00  0.00    +0.240 C 
BRANCH  15  16
ATOM     16  C   UNL     1      34.603 -11.120 -25.115  0.00  0.00    +0.189 C 
BRANCH  16  17
ATOM     17  O   UNL     1      33.423 -11.622 -24.499  0.00  0.00    -0.352 OA
BRANCH  17  18
ATOM     18  C   UNL     1      33.728 -12.550 -23.468  0.00  0.00    +0.120 C 
BRANCH  18  19
ATOM     19  C   UNL     1      33.539 -13.959 -24.007  0.00  0.00    -0.045 C 
BRANCH  19  20
ATOM     20  N   UNL     1      34.481 -14.878 -23.387  0.00  0.00    +0.389 N 
ATOM     21  H   UNL     1      35.405 -14.691 -23.777  0.00  0.00    -0.080 HD
BRANCH  20  22
ATOM     22  C   UNL     1      34.122 -16.266 -23.683  0.00  0.00    -0.077 C 
ATOM     23  C   UNL     1      34.809 -16.762 -24.938  0.00  0.00    -0.025 C 
ENDBRANCH  20  22
BRANCH  20  24
ATOM     24  C   UNL     1      34.534 -14.668 -21.939  0.00  0.00    -0.077 C 
ATOM     25  C   UNL     1      34.684 -15.976 -21.193  0.00  0.00    -0.025 C 
ENDBRANCH  20  24
ENDBRANCH  19  20
ENDBRANCH  18  19
ENDBRANCH  17  18
ENDBRANCH  16  17
ENDBRANCH  15  16
ENDBRANCH  14  15
ENDBRANCH   2  14
TORSDOF 11
ENDMDL
