MODEL 1
REMARK VINA RESULT:      -8.1      0.000      0.000
REMARK  Name = 6954
REMARK  4 active torsions:
REMARK  status: ('A' for Active; 'I' for Inactive)
REMARK    1  A    between atoms: C_1  and  N_9
REMARK    2  A    between atoms: C_2  and  N_12
REMARK    3  A    between atoms: C_3  and  O_16
REMARK    4  A    between atoms: C_4  and  N_15
REMARK                            x       y       z     vdW  Elec       q    Type
REMARK                         _______ _______ _______ _____ _____    ______ ____
ROOT
ATOM      1  C   UNL     1      34.529 -24.410 -14.417  0.00  0.00    +0.180 C 
ATOM      2  C   UNL     1      35.809 -24.772 -12.400  0.00  0.00    +0.180 C 
ATOM      3  C   UNL     1      34.737 -24.170 -13.059  0.00  0.00    +0.179 C 
ATOM      4  C   UNL     1      36.465 -25.855 -14.458  0.00  0.00    +0.146 C 
ATOM      5  C   UNL     1      35.393 -25.253 -15.117  0.00  0.00    +0.051 C 
ATOM      6  C   UNL     1      36.673 -25.613 -13.100  0.00  0.00    +0.051 C 
ENDROOT
BRANCH   1   9
ATOM      7  O   UNL     1      32.287 -23.916 -14.631  0.00  0.00    -0.126 OA
ATOM      8  O   UNL     1      33.669 -23.183 -16.170  0.00  0.00    -0.126 OA
ATOM      9  N   UNL     1      33.440 -23.806 -15.107  0.00  0.00    +0.061 N 
ENDBRANCH   1   9
BRANCH   2  12
ATOM     10  O   UNL     1      35.241 -25.020 -10.180  0.00  0.00    -0.126 OA
ATOM     11  O   UNL     1      37.034 -23.855 -10.674  0.00  0.00    -0.126 OA
ATOM     12  N   UNL     1      36.039 -24.538 -11.016  0.00  0.00    +0.061 N 
ENDBRANCH   2  12
BRANCH   4  15
ATOM     13  O   UNL     1      36.913 -27.326 -16.176  0.00  0.00    -0.126 OA
ATOM     14  O   UNL     1      38.529 -26.833 -14.775  0.00  0.00    -0.126 OA
ATOM     15  N   UNL     1      37.344 -26.712 -15.170  0.00  0.00    +0.058 N 
ENDBRANCH   4  15
BRANCH   3  16
ATOM     16  O   UNL     1      33.891 -23.344 -12.373  0.00  0.00    -0.503 OA
ATOM     17  H   UNL     1      32.971 -23.368 -12.547  0.00  0.00    +0.292 HD
ENDBRANCH   3  16
TORSDOF 4
ENDMDL
MODEL 2
REMARK VINA RESULT:      -7.9      2.078      4.204
REMARK  Name = 6954
REMARK  4 active torsions:
REMARK  status: ('A' for Active; 'I' for Inactive)
REMARK    1  A    between atoms: C_1  and  N_9
REMARK    2  A    between atoms: C_2  and  N_12
REMARK    3  A    between atoms: C_3  and  O_16
REMARK    4  A    between atoms: C_4  and  N_15
REMARK                            x       y       z     vdW  Elec       q    Type
REMARK                         _______ _______ _______ _____ _____    ______ ____
ROOT
ATOM      1  C   UNL     1      36.786 -24.363 -12.659  0.00  0.00    +0.180 C 
ATOM      2  C   UNL     1      36.785 -23.624 -14.959  0.00  0.00    +0.180 C 
ATOM      3  C   UNL     1      36.165 -23.690 -13.711  0.00  0.00    +0.179 C 
ATOM      4  C   UNL     1      38.647 -24.904 -14.101  0.00  0.00    +0.146 C 
ATOM      5  C   UNL     1      38.027 -24.970 -12.853  0.00  0.00    +0.051 C 
ATOM      6  C   UNL     1      38.026 -24.232 -15.154  0.00  0.00    +0.051 C 
ENDROOT
BRANCH   1   9
ATOM      7  O   UNL     1      36.758 -23.940 -10.392  0.00  0.00    -0.126 OA
ATOM      8  O   UNL     1      35.058 -25.011 -11.276  0.00  0.00    -0.126 OA
ATOM      9  N   UNL     1      36.169 -24.441 -11.378  0.00  0.00    +0.061 N 
ENDBRANCH   1   9
BRANCH   2  12
ATOM     10  O   UNL     1      35.098 -23.400 -16.515  0.00  0.00    -0.126 OA
ATOM     11  O   UNL     1      36.711 -21.911 -16.501  0.00  0.00    -0.126 OA
ATOM     12  N   UNL     1      36.168 -22.945 -16.045  0.00  0.00    +0.061 N 
ENDBRANCH   2  12
BRANCH   4  15
ATOM     13  O   UNL     1      40.950 -24.827 -14.192  0.00  0.00    -0.126 OA
ATOM     14  O   UNL     1      39.953 -26.744 -14.576  0.00  0.00    -0.126 OA
ATOM     15  N   UNL     1      39.910 -25.521 -14.299  0.00  0.00    +0.058 N 
ENDBRANCH   4  15
BRANCH   3  16
ATOM     16  O   UNL     1      34.949 -23.097 -13.521  0.00  0.00    -0.503 OA
ATOM     17  H   UNL     1      34.292 -23.529 -13.011  0.00  0.00    +0.292 HD
ENDBRANCH   3  16
TORSDOF 4
ENDMDL
MODEL 3
REMARK VINA RESULT:      -7.9      2.050      2.638
REMARK  Name = 6954
REMARK  4 active torsions:
REMARK  status: ('A' for Active; 'I' for Inactive)
REMARK    1  A    between atoms: C_1  and  N_9
REMARK    2  A    between atoms: C_2  and  N_12
REMARK    3  A    between atoms: C_3  and  O_16
REMARK    4  A    between atoms: C_4  and  N_15
REMARK                            x       y       z     vdW  Elec       q    Type
REMARK                         _______ _______ _______ _____ _____    ______ ____
ROOT
ATOM      1  C   UNL     1      36.746 -23.657 -14.952  0.00  0.00    +0.180 C 
ATOM      2  C   UNL     1      36.765 -24.375 -12.646  0.00  0.00    +0.180 C 
ATOM      3  C   UNL     1      36.132 -23.719 -13.702  0.00  0.00    +0.179 C 
ATOM      4  C   UNL     1      38.626 -24.906 -14.092  0.00  0.00    +0.146 C 
ATOM      5  C   UNL     1      37.994 -24.251 -15.148  0.00  0.00    +0.051 C 
ATOM      6  C   UNL     1      38.012 -24.968 -12.841  0.00  0.00    +0.051 C 
ENDROOT
BRANCH   1   9
ATOM      7  O   UNL     1      36.670 -21.983 -16.536  0.00  0.00    -0.126 OA
ATOM      8  O   UNL     1      35.028 -23.437 -16.474  0.00  0.00    -0.126 OA
ATOM      9  N   UNL     1      36.117 -22.992 -16.042  0.00  0.00    +0.061 N 
ENDBRANCH   1   9
BRANCH   2  12
ATOM     10  O   UNL     1      36.749 -23.941 -10.382  0.00  0.00    -0.126 OA
ATOM     11  O   UNL     1      35.044 -25.017 -11.251  0.00  0.00    -0.126 OA
ATOM     12  N   UNL     1      36.156 -24.448 -11.363  0.00  0.00    +0.061 N 
ENDBRANCH   2  12
BRANCH   4  15
ATOM     13  O   UNL     1      40.928 -24.805 -14.187  0.00  0.00    -0.126 OA
ATOM     14  O   UNL     1      39.950 -26.734 -14.565  0.00  0.00    -0.126 OA
ATOM     15  N   UNL     1      39.896 -25.511 -14.291  0.00  0.00    +0.058 N 
ENDBRANCH   4  15
BRANCH   3  16
ATOM     16  O   UNL     1      34.911 -23.137 -13.510  0.00  0.00    -0.503 OA
ATOM     17  H   UNL     1      34.820 -22.207 -13.580  0.00  0.00    +0.292 HD
ENDBRANCH   3  16
TORSDOF 4
ENDMDL
MODEL 4
REMARK VINA RESULT:      -7.6      1.348      4.115
REMARK  Name = 6954
REMARK  4 active torsions:
REMARK  status: ('A' for Active; 'I' for Inactive)
REMARK    1  A    between atoms: C_1  and  N_9
REMARK    2  A    between atoms: C_2  and  N_12
REMARK    3  A    between atoms: C_3  and  O_16
REMARK    4  A    between atoms: C_4  and  N_15
REMARK                            x       y       z     vdW  Elec       q    Type
REMARK                         _______ _______ _______ _____ _____    ______ ____
ROOT
ATOM      1  C   UNL     1      35.434 -24.525 -14.035  0.00  0.00    +0.180 C 
ATOM      2  C   UNL     1      37.707 -25.176 -13.539  0.00  0.00    +0.180 C 
ATOM      3  C   UNL     1      36.665 -25.030 -14.454  0.00  0.00    +0.179 C 
ATOM      4  C   UNL     1      36.288 -24.310 -11.785  0.00  0.00    +0.146 C 
ATOM      5  C   UNL     1      35.246 -24.164 -12.701  0.00  0.00    +0.051 C 
ATOM      6  C   UNL     1      37.518 -24.816 -12.204  0.00  0.00    +0.051 C 
ENDROOT
BRANCH   1   9
ATOM      7  O   UNL     1      33.194 -24.629 -14.571  0.00  0.00    -0.126 OA
ATOM      8  O   UNL     1      34.609 -23.977 -16.117  0.00  0.00    -0.126 OA
ATOM      9  N   UNL     1      34.358 -24.369 -14.954  0.00  0.00    +0.061 N 
ENDBRANCH   1   9
BRANCH   2  12
ATOM     10  O   UNL     1      39.998 -25.009 -13.734  0.00  0.00    -0.126 OA
ATOM     11  O   UNL     1      39.014 -26.813 -14.505  0.00  0.00    -0.126 OA
ATOM     12  N   UNL     1      38.969 -25.691 -13.946  0.00  0.00    +0.061 N 
ENDBRANCH   2  12
BRANCH   4  15
ATOM     13  O   UNL     1      36.708 -22.946  -9.974  0.00  0.00    -0.126 OA
ATOM     14  O   UNL     1      35.319 -24.626  -9.717  0.00  0.00    -0.126 OA
ATOM     15  N   UNL     1      36.096 -23.943 -10.427  0.00  0.00    +0.058 N 
ENDBRANCH   4  15
BRANCH   3  16
ATOM     16  O   UNL     1      36.849 -25.384 -15.760  0.00  0.00    -0.503 OA
ATOM     17  H   UNL     1      36.228 -25.940 -16.188  0.00  0.00    +0.292 HD
ENDBRANCH   3  16
TORSDOF 4
ENDMDL
MODEL 5
REMARK VINA RESULT:      -7.6      0.747      3.779
REMARK  Name = 6954
REMARK  4 active torsions:
REMARK  status: ('A' for Active; 'I' for Inactive)
REMARK    1  A    between atoms: C_1  and  N_9
REMARK    2  A    between atoms: C_2  and  N_12
REMARK    3  A    between atoms: C_3  and  O_16
REMARK    4  A    between atoms: C_4  and  N_15
REMARK                            x       y       z     vdW  Elec       q    Type
REMARK                         _______ _______ _______ _____ _____    ______ ____
ROOT
ATOM      1  C   UNL     1      36.201 -24.401 -12.318  0.00  0.00    +0.180 C 
ATOM      2  C   UNL     1      34.429 -24.602 -13.948  0.00  0.00    +0.180 C 
ATOM      3  C   UNL     1      34.913 -24.082 -12.747  0.00  0.00    +0.179 C 
ATOM      4  C   UNL     1      36.522 -25.760 -14.289  0.00  0.00    +0.146 C 
ATOM      5  C   UNL     1      37.006 -25.240 -13.088  0.00  0.00    +0.051 C 
ATOM      6  C   UNL     1      35.234 -25.442 -14.718  0.00  0.00    +0.051 C 
ENDROOT
BRANCH   1   9
ATOM      7  O   UNL     1      37.691 -23.098 -11.134  0.00  0.00    -0.126 OA
ATOM      8  O   UNL     1      36.170 -24.220 -10.019  0.00  0.00    -0.126 OA
ATOM      9  N   UNL     1      36.713 -23.880 -11.096  0.00  0.00    +0.061 N 
ENDBRANCH   1   9
BRANCH   2  12
ATOM     10  O   UNL     1      32.194 -25.109 -14.192  0.00  0.00    -0.126 OA
ATOM     11  O   UNL     1      32.927 -23.204 -15.001  0.00  0.00    -0.126 OA
ATOM     12  N   UNL     1      33.119 -24.290 -14.402  0.00  0.00    +0.061 N 
ENDBRANCH   2  12
BRANCH   4  15
ATOM     13  O   UNL     1      38.541 -26.778 -14.743  0.00  0.00    -0.126 OA
ATOM     14  O   UNL     1      36.845 -27.182 -16.075  0.00  0.00    -0.126 OA
ATOM     15  N   UNL     1      37.342 -26.614 -15.073  0.00  0.00    +0.058 N 
ENDBRANCH   4  15
BRANCH   3  16
ATOM     16  O   UNL     1      34.124 -23.261 -11.992  0.00  0.00    -0.503 OA
ATOM     17  H   UNL     1      34.403 -22.386 -11.804  0.00  0.00    +0.292 HD
ENDBRANCH   3  16
TORSDOF 4
ENDMDL
MODEL 6
REMARK VINA RESULT:      -7.5      1.333      5.090
REMARK  Name = 6954
REMARK  4 active torsions:
REMARK  status: ('A' for Active; 'I' for Inactive)
REMARK    1  A    between atoms: C_1  and  N_9
REMARK    2  A    between atoms: C_2  and  N_12
REMARK    3  A    between atoms: C_3  and  O_16
REMARK    4  A    between atoms: C_4  and  N_15
REMARK                            x       y       z     vdW  Elec       q    Type
REMARK                         _______ _______ _______ _____ _____    ______ ____
ROOT
ATOM      1  C   UNL     1      37.671 -25.192 -13.537  0.00  0.00    +0.180 C 
ATOM      2  C   UNL     1      35.396 -24.539 -14.024  0.00  0.00    +0.180 C 
ATOM      3  C   UNL     1      36.623 -25.052 -14.447  0.00  0.00    +0.179 C 
ATOM      4  C   UNL     1      36.267 -24.308 -11.781  0.00  0.00    +0.146 C 
ATOM      5  C   UNL     1      37.493 -24.821 -12.204  0.00  0.00    +0.051 C 
ATOM      6  C   UNL     1      35.219 -24.167 -12.691  0.00  0.00    +0.051 C 
ENDROOT
BRANCH   1   9
ATOM      7  O   UNL     1      39.960 -25.026 -13.760  0.00  0.00    -0.126 OA
ATOM      8  O   UNL     1      38.969 -26.843 -14.490  0.00  0.00    -0.126 OA
ATOM      9  N   UNL     1      38.930 -25.714 -13.949  0.00  0.00    +0.061 N 
ENDBRANCH   1   9
BRANCH   2  12
ATOM     10  O   UNL     1      33.156 -24.664 -14.552  0.00  0.00    -0.126 OA
ATOM     11  O   UNL     1      34.557 -23.976 -16.096  0.00  0.00    -0.126 OA
ATOM     12  N   UNL     1      34.316 -24.385 -14.935  0.00  0.00    +0.061 N 
ENDBRANCH   2  12
BRANCH   4  15
ATOM     13  O   UNL     1      35.309 -24.603  -9.704  0.00  0.00    -0.126 OA
ATOM     14  O   UNL     1      36.708 -22.935  -9.982  0.00  0.00    -0.126 OA
ATOM     15  N   UNL     1      36.086 -23.931 -10.424  0.00  0.00    +0.058 N 
ENDBRANCH   4  15
BRANCH   3  16
ATOM     16  O   UNL     1      36.797 -25.414 -15.752  0.00  0.00    -0.503 OA
ATOM     17  H   UNL     1      36.141 -25.205 -16.388  0.00  0.00    +0.292 HD
ENDBRANCH   3  16
TORSDOF 4
ENDMDL
MODEL 7
REMARK VINA RESULT:      -7.5      2.460      5.426
REMARK  Name = 6954
REMARK  4 active torsions:
REMARK  status: ('A' for Active; 'I' for Inactive)
REMARK    1  A    between atoms: C_1  and  N_9
REMARK    2  A    between atoms: C_2  and  N_12
REMARK    3  A    between atoms: C_3  and  O_16
REMARK    4  A    between atoms: C_4  and  N_15
REMARK                            x       y       z     vdW  Elec       q    Type
REMARK                         _______ _______ _______ _____ _____    ______ ____
ROOT
ATOM      1  C   UNL     1      38.611 -24.700 -14.059  0.00  0.00    +0.180 C 
ATOM      2  C   UNL     1      36.938 -23.351 -15.163  0.00  0.00    +0.180 C 
ATOM      3  C   UNL     1      38.221 -23.898 -15.132  0.00  0.00    +0.179 C 
ATOM      4  C   UNL     1      36.435 -24.410 -13.050  0.00  0.00    +0.146 C 
ATOM      5  C   UNL     1      37.718 -24.957 -13.018  0.00  0.00    +0.051 C 
ATOM      6  C   UNL     1      36.046 -23.607 -14.122  0.00  0.00    +0.051 C 
ENDROOT
BRANCH   1   9
ATOM      7  O   UNL     1      40.040 -26.470 -13.681  0.00  0.00    -0.126 OA
ATOM      8  O   UNL     1      40.900 -24.546 -14.292  0.00  0.00    -0.126 OA
ATOM      9  N   UNL     1      39.916 -25.267 -14.008  0.00  0.00    +0.061 N 
ENDBRANCH   1   9
BRANCH   2  12
ATOM     10  O   UNL     1      35.532 -22.883 -16.929  0.00  0.00    -0.126 OA
ATOM     11  O   UNL     1      37.157 -21.476 -16.486  0.00  0.00    -0.126 OA
ATOM     12  N   UNL     1      36.522 -22.530 -16.247  0.00  0.00    +0.061 N 
ENDBRANCH   2  12
BRANCH   4  15
ATOM     13  O   UNL     1      34.386 -24.149 -12.024  0.00  0.00    -0.126 OA
ATOM     14  O   UNL     1      35.889 -25.416 -11.049  0.00  0.00    -0.126 OA
ATOM     15  N   UNL     1      35.527 -24.671 -11.990  0.00  0.00    +0.058 N 
ENDBRANCH   4  15
BRANCH   3  16
ATOM     16  O   UNL     1      39.095 -23.646 -16.150  0.00  0.00    -0.503 OA
ATOM     17  H   UNL     1      39.816 -23.063 -16.016  0.00  0.00    +0.292 HD
ENDBRANCH   3  16
TORSDOF 4
ENDMDL
MODEL 8
REMARK VINA RESULT:      -7.2     12.384     14.645
REMARK  Name = 6954
REMARK  4 active torsions:
REMARK  status: ('A' for Active; 'I' for Inactive)
REMARK    1  A    between atoms: C_1  and  N_9
REMARK    2  A    between atoms: C_2  and  N_12
REMARK    3  A    between atoms: C_3  and  O_16
REMARK    4  A    between atoms: C_4  and  N_15
REMARK                            x       y       z     vdW  Elec       q    Type
REMARK                         _______ _______ _______ _____ _____    ______ ____
ROOT
ATOM      1  C   UNL     1      33.552 -13.599 -23.291  0.00  0.00    +0.180 C 
ATOM      2  C   UNL     1      33.939 -15.672 -24.471  0.00  0.00    +0.180 C 
ATOM      3  C   UNL     1      33.523 -14.340 -24.472  0.00  0.00    +0.179 C 
ATOM      4  C   UNL     1      34.415 -15.520 -22.106  0.00  0.00    +0.146 C 
ATOM      5  C   UNL     1      33.999 -14.189 -22.108  0.00  0.00    +0.051 C 
ATOM      6  C   UNL     1      34.385 -16.261 -23.288  0.00  0.00    +0.051 C 
ENDROOT
BRANCH   1   9
ATOM      7  O   UNL     1      32.154 -11.919 -22.556  0.00  0.00    -0.126 OA
ATOM      8  O   UNL     1      33.751 -11.405 -23.972  0.00  0.00    -0.126 OA
ATOM      9  N   UNL     1      33.132 -12.240 -23.272  0.00  0.00    +0.061 N 
ENDBRANCH   1   9
BRANCH   2  12
ATOM     10  O   UNL     1      34.877 -17.211 -25.909  0.00  0.00    -0.126 OA
ATOM     11  O   UNL     1      32.933 -16.337 -26.436  0.00  0.00    -0.126 OA
ATOM     12  N   UNL     1      33.915 -16.445 -25.664  0.00  0.00    +0.061 N 
ENDBRANCH   2  12
BRANCH   4  15
ATOM     13  O   UNL     1      35.200 -17.330 -20.913  0.00  0.00    -0.126 OA
ATOM     14  O   UNL     1      34.928 -15.423 -19.860  0.00  0.00    -0.126 OA
ATOM     15  N   UNL     1      34.869 -16.120 -20.902  0.00  0.00    +0.058 N 
ENDBRANCH   4  15
BRANCH   3  16
ATOM     16  O   UNL     1      33.085 -13.764 -25.630  0.00  0.00    -0.503 OA
ATOM     17  H   UNL     1      33.103 -12.832 -25.726  0.00  0.00    +0.292 HD
ENDBRANCH   3  16
TORSDOF 4
ENDMDL
MODEL 9
REMARK VINA RESULT:      -7.2     12.343     14.520
REMARK  Name = 6954
REMARK  4 active torsions:
REMARK  status: ('A' for Active; 'I' for Inactive)
REMARK    1  A    between atoms: C_1  and  N_9
REMARK    2  A    between atoms: C_2  and  N_12
REMARK    3  A    between atoms: C_3  and  O_16
REMARK    4  A    between atoms: C_4  and  N_15
REMARK                            x       y       z     vdW  Elec       q    Type
REMARK                         _______ _______ _______ _____ _____    ______ ____
ROOT
ATOM      1  C   UNL     1      33.931 -15.677 -24.444  0.00  0.00    +0.180 C 
ATOM      2  C   UNL     1      33.467 -13.638 -23.236  0.00  0.00    +0.180 C 
ATOM      3  C   UNL     1      33.467 -14.362 -24.428  0.00  0.00    +0.179 C 
ATOM      4  C   UNL     1      34.396 -15.544 -22.077  0.00  0.00    +0.146 C 
ATOM      5  C   UNL     1      34.396 -16.269 -23.269  0.00  0.00    +0.051 C 
ATOM      6  C   UNL     1      33.932 -14.229 -22.061  0.00  0.00    +0.051 C 
ENDROOT
BRANCH   1   9
ATOM      7  O   UNL     1      32.959 -16.344 -26.426  0.00  0.00    -0.126 OA
ATOM      8  O   UNL     1      34.925 -17.165 -25.899  0.00  0.00    -0.126 OA
ATOM      9  N   UNL     1      33.939 -16.433 -25.651  0.00  0.00    +0.061 N 
ENDBRANCH   1   9
BRANCH   2  12
ATOM     10  O   UNL     1      32.024 -12.014 -22.464  0.00  0.00    -0.126 OA
ATOM     11  O   UNL     1      33.578 -11.432 -23.901  0.00  0.00    -0.126 OA
ATOM     12  N   UNL     1      33.000 -12.295 -23.198  0.00  0.00    +0.061 N 
ENDBRANCH   2  12
BRANCH   4  15
ATOM     13  O   UNL     1      34.923 -15.457 -19.834  0.00  0.00    -0.126 OA
ATOM     14  O   UNL     1      35.219 -17.351 -20.904  0.00  0.00    -0.126 OA
ATOM     15  N   UNL     1      34.869 -16.146 -20.881  0.00  0.00    +0.058 N 
ENDBRANCH   4  15
BRANCH   3  16
ATOM     16  O   UNL     1      33.013 -13.783 -25.578  0.00  0.00    -0.503 OA
ATOM     17  H   UNL     1      33.555 -13.773 -26.343  0.00  0.00    +0.292 HD
ENDBRANCH   3  16
TORSDOF 4
ENDMDL
