MODEL 1
REMARK VINA RESULT:      -9.3      0.000      0.000
REMARK  Name = 11963499
REMARK  11 active torsions:
REMARK  status: ('A' for Active; 'I' for Inactive)
REMARK    1  A    between atoms: S_1  and  C_4
REMARK    2  A    between atoms: S_1  and  N_17
REMARK    3  A    between atoms: C_7  and  N_14
REMARK    4  A    between atoms: N_17  and  C_19
REMARK    5  A    between atoms: C_19  and  C_20
REMARK    6  A    between atoms: C_20  and  C_21
REMARK    7  A    between atoms: C_21  and  C_22
REMARK    8  A    between atoms: C_22  and  N_24
REMARK    9  A    between atoms: C_25  and  C_27
REMARK   10  A    between atoms: C_27  and  C_28
REMARK   11  A    between atoms: C_28  and  S_29
REMARK                            x       y       z     vdW  Elec       q    Type
REMARK                         _______ _______ _______ _____ _____    ______ ____
ROOT
ATOM      1  S   UNL     1      35.336 -18.623 -22.208  0.00  0.00    +0.060 S 
ATOM      2  O   UNL     1      34.183 -19.402 -22.631  0.00  0.00    -0.153 OA
ATOM      3  O   UNL     1      36.536 -18.610 -23.027  0.00  0.00    -0.153 OA
ENDROOT
BRANCH   1   4
ATOM      4  C   UNL     1      34.828 -16.954 -21.997  0.00  0.00    +0.122 C 
ATOM      5  C   UNL     1      34.374 -16.156 -23.061  0.00  0.00    +0.020 C 
ATOM      6  C   UNL     1      33.983 -14.820 -22.806  0.00  0.00    +0.015 C 
ATOM      7  C   UNL     1      33.530 -14.022 -23.870  0.00  0.00    +0.048 C 
ATOM      8  C   UNL     1      34.893 -16.442 -20.701  0.00  0.00    +0.020 C 
ATOM      9  C   UNL     1      34.302 -16.654 -24.372  0.00  0.00    +0.001 C 
ATOM     10  C   UNL     1      34.056 -14.321 -21.495  0.00  0.00    +0.001 C 
ATOM     11  C   UNL     1      34.508 -15.129 -20.450  0.00  0.00    +0.001 C 
ATOM     12  C   UNL     1      33.465 -14.534 -25.166  0.00  0.00    +0.015 C 
ATOM     13  C   UNL     1      33.850 -15.847 -25.416  0.00  0.00    +0.001 C 
BRANCH   7  14
ATOM     14  N   UNL     1      33.128 -12.679 -23.669  0.00  0.00    -0.304 N 
ATOM     15  C   UNL     1      33.821 -11.603 -24.342  0.00  0.00    +0.112 C 
ATOM     16  C   UNL     1      32.028 -12.374 -22.779  0.00  0.00    +0.112 C 
ENDBRANCH   7  14
ENDBRANCH   1   4
BRANCH   1  17
ATOM     17  N   UNL     1      35.756 -19.073 -20.617  0.00  0.00    -0.179 NA
ATOM     18  H   UNL     1      34.898 -19.386 -20.163  0.00  0.00    +0.149 HD
BRANCH  17  19
ATOM     19  C   UNL     1      36.762 -20.120 -20.390  0.00  0.00    +0.092 C 
BRANCH  19  20
ATOM     20  C   UNL     1      36.176 -21.244 -19.541  0.00  0.00    +0.021 C 
BRANCH  20  21
ATOM     21  C   UNL     1      34.642 -21.262 -19.568  0.00  0.00    +0.023 C 
BRANCH  21  22
ATOM     22  C   UNL     1      34.071 -22.669 -19.417  0.00  0.00    +0.089 C 
BRANCH  22  24
ATOM     23  O   UNL     1      34.210 -23.846 -16.789  0.00  0.00    -0.275 OA
ATOM     24  N   UNL     1      33.018 -22.731 -18.442  0.00  0.00    -0.304 N 
ATOM     25  C   UNL     1      33.175 -23.322 -17.192  0.00  0.00    +0.223 C 
ATOM     26  H   UNL     1      32.145 -22.337 -18.669  0.00  0.00    +0.149 HD
BRANCH  25  27
ATOM     27  C   UNL     1      31.911 -23.218 -16.353  0.00  0.00    +0.096 C 
BRANCH  27  28
ATOM     28  C   UNL     1      32.159 -23.184 -14.849  0.00  0.00    +0.063 C 
BRANCH  28  29
ATOM     29  S   UNL     1      31.568 -24.695 -14.027  0.00  0.00    -0.167 S 
ATOM     30  H   UNL     1      30.457 -25.153 -14.663  0.00  0.00    +0.102 HD
ENDBRANCH  28  29
ENDBRANCH  27  28
ENDBRANCH  25  27
ENDBRANCH  22  24
ENDBRANCH  21  22
ENDBRANCH  20  21
ENDBRANCH  19  20
ENDBRANCH  17  19
ENDBRANCH   1  17
TORSDOF 11
ENDMDL
MODEL 2
REMARK VINA RESULT:      -9.2      5.039     10.022
REMARK  Name = 11963499
REMARK  11 active torsions:
REMARK  status: ('A' for Active; 'I' for Inactive)
REMARK    1  A    between atoms: S_1  and  C_4
REMARK    2  A    between atoms: S_1  and  N_17
REMARK    3  A    between atoms: C_7  and  N_14
REMARK    4  A    between atoms: N_17  and  C_19
REMARK    5  A    between atoms: C_19  and  C_20
REMARK    6  A    between atoms: C_20  and  C_21
REMARK    7  A    between atoms: C_21  and  C_22
REMARK    8  A    between atoms: C_22  and  N_24
REMARK    9  A    between atoms: C_25  and  C_27
REMARK   10  A    between atoms: C_27  and  C_28
REMARK   11  A    between atoms: C_28  and  S_29
REMARK                            x       y       z     vdW  Elec       q    Type
REMARK                         _______ _______ _______ _____ _____    ______ ____
ROOT
ATOM      1  S   UNL     1      33.148 -13.502 -23.755  0.00  0.00    +0.060 S 
ATOM      2  O   UNL     1      34.163 -12.479 -23.952  0.00  0.00    -0.153 OA
ATOM      3  O   UNL     1      32.606 -14.209 -24.903  0.00  0.00    -0.153 OA
ENDROOT
BRANCH   1   4
ATOM      4  C   UNL     1      33.787 -14.709 -22.649  0.00  0.00    +0.122 C 
ATOM      5  C   UNL     1      34.252 -15.963 -23.078  0.00  0.00    +0.020 C 
ATOM      6  C   UNL     1      34.753 -16.879 -22.123  0.00  0.00    +0.015 C 
ATOM      7  C   UNL     1      35.217 -18.134 -22.551  0.00  0.00    +0.048 C 
ATOM      8  C   UNL     1      33.816 -14.363 -21.298  0.00  0.00    +0.020 C 
ATOM      9  C   UNL     1      34.231 -16.328 -24.434  0.00  0.00    +0.001 C 
ATOM     10  C   UNL     1      34.773 -16.515 -20.767  0.00  0.00    +0.001 C 
ATOM     11  C   UNL     1      34.307 -15.264 -20.359  0.00  0.00    +0.001 C 
ATOM     12  C   UNL     1      35.188 -18.480 -23.902  0.00  0.00    +0.015 C 
ATOM     13  C   UNL     1      34.696 -17.579 -24.842  0.00  0.00    +0.001 C 
BRANCH   7  14
ATOM     14  N   UNL     1      35.726 -19.088 -21.636  0.00  0.00    -0.304 N 
ATOM     15  C   UNL     1      34.841 -20.051 -21.021  0.00  0.00    +0.112 C 
ATOM     16  C   UNL     1      37.134 -19.096 -21.302  0.00  0.00    +0.112 C 
ENDBRANCH   7  14
ENDBRANCH   1   4
BRANCH   1  17
ATOM     17  N   UNL     1      31.860 -12.838 -22.855  0.00  0.00    -0.179 NA
ATOM     18  H   UNL     1      31.758 -13.414 -22.019  0.00  0.00    +0.149 HD
BRANCH  17  19
ATOM     19  C   UNL     1      31.921 -11.441 -22.401  0.00  0.00    +0.092 C 
BRANCH  19  20
ATOM     20  C   UNL     1      30.912 -11.201 -21.283  0.00  0.00    +0.021 C 
BRANCH  20  21
ATOM     21  C   UNL     1      31.563 -11.194 -19.894  0.00  0.00    +0.023 C 
BRANCH  21  22
ATOM     22  C   UNL     1      31.986  -9.796 -19.454  0.00  0.00    +0.089 C 
BRANCH  22  24
ATOM     23  O   UNL     1      32.930  -7.072 -19.395  0.00  0.00    -0.275 OA
ATOM     24  N   UNL     1      31.975  -8.854 -20.539  0.00  0.00    -0.304 N 
ATOM     25  C   UNL     1      32.453  -7.553 -20.419  0.00  0.00    +0.223 C 
ATOM     26  H   UNL     1      31.611  -9.143 -21.407  0.00  0.00    +0.149 HD
BRANCH  25  27
ATOM     27  C   UNL     1      32.347  -6.787 -21.729  0.00  0.00    +0.096 C 
BRANCH  27  28
ATOM     28  C   UNL     1      32.667  -7.618 -22.967  0.00  0.00    +0.063 C 
BRANCH  28  29
ATOM     29  S   UNL     1      34.456  -7.701 -23.287  0.00  0.00    -0.167 S 
ATOM     30  H   UNL     1      35.096  -8.148 -22.173  0.00  0.00    +0.102 HD
ENDBRANCH  28  29
ENDBRANCH  27  28
ENDBRANCH  25  27
ENDBRANCH  22  24
ENDBRANCH  21  22
ENDBRANCH  20  21
ENDBRANCH  19  20
ENDBRANCH  17  19
ENDBRANCH   1  17
TORSDOF 11
ENDMDL
MODEL 3
REMARK VINA RESULT:      -9.1      3.518     10.463
REMARK  Name = 11963499
REMARK  11 active torsions:
REMARK  status: ('A' for Active; 'I' for Inactive)
REMARK    1  A    between atoms: S_1  and  C_4
REMARK    2  A    between atoms: S_1  and  N_17
REMARK    3  A    between atoms: C_7  and  N_14
REMARK    4  A    between atoms: N_17  and  C_19
REMARK    5  A    between atoms: C_19  and  C_20
REMARK    6  A    between atoms: C_20  and  C_21
REMARK    7  A    between atoms: C_21  and  C_22
REMARK    8  A    between atoms: C_22  and  N_24
REMARK    9  A    between atoms: C_25  and  C_27
REMARK   10  A    between atoms: C_27  and  C_28
REMARK   11  A    between atoms: C_28  and  S_29
REMARK                            x       y       z     vdW  Elec       q    Type
REMARK                         _______ _______ _______ _____ _____    ______ ____
ROOT
ATOM      1  S   UNL     1      33.729 -22.586 -18.572  0.00  0.00    +0.060 S 
ATOM      2  O   UNL     1      33.817 -23.804 -19.363  0.00  0.00    -0.153 OA
ATOM      3  O   UNL     1      32.510 -22.289 -17.839  0.00  0.00    -0.153 OA
ENDROOT
BRANCH   1   4
ATOM      4  C   UNL     1      35.051 -22.582 -17.414  0.00  0.00    +0.122 C 
ATOM      5  C   UNL     1      34.958 -23.190 -16.152  0.00  0.00    +0.020 C 
ATOM      6  C   UNL     1      36.070 -23.142 -15.277  0.00  0.00    +0.015 C 
ATOM      7  C   UNL     1      35.977 -23.750 -14.014  0.00  0.00    +0.048 C 
ATOM      8  C   UNL     1      36.223 -21.936 -17.809  0.00  0.00    +0.020 C 
ATOM      9  C   UNL     1      33.787 -23.844 -15.737  0.00  0.00    +0.001 C 
ATOM     10  C   UNL     1      37.241 -22.487 -15.691  0.00  0.00    +0.001 C 
ATOM     11  C   UNL     1      37.315 -21.889 -16.950  0.00  0.00    +0.001 C 
ATOM     12  C   UNL     1      34.805 -24.396 -13.619  0.00  0.00    +0.015 C 
ATOM     13  C   UNL     1      33.712 -24.442 -14.479  0.00  0.00    +0.001 C 
BRANCH   7  14
ATOM     14  N   UNL     1      37.059 -23.729 -13.101  0.00  0.00    -0.304 N 
ATOM     15  C   UNL     1      37.066 -22.791 -12.001  0.00  0.00    +0.112 C 
ATOM     16  C   UNL     1      38.172 -24.639 -13.270  0.00  0.00    +0.112 C 
ENDBRANCH   7  14
ENDBRANCH   1   4
BRANCH   1  17
ATOM     17  N   UNL     1      34.117 -21.253 -19.564  0.00  0.00    -0.179 NA
ATOM     18  H   UNL     1      34.788 -21.587 -20.256  0.00  0.00    +0.149 HD
BRANCH  17  19
ATOM     19  C   UNL     1      33.058 -20.552 -20.304  0.00  0.00    +0.092 C 
BRANCH  19  20
ATOM     20  C   UNL     1      33.593 -19.252 -20.894  0.00  0.00    +0.021 C 
BRANCH  20  21
ATOM     21  C   UNL     1      35.087 -19.331 -21.233  0.00  0.00    +0.023 C 
BRANCH  21  22
ATOM     22  C   UNL     1      35.735 -17.954 -21.346  0.00  0.00    +0.089 C 
BRANCH  22  24
ATOM     23  O   UNL     1      34.914 -15.465 -20.144  0.00  0.00    -0.275 OA
ATOM     24  N   UNL     1      34.845 -16.975 -21.908  0.00  0.00    -0.304 N 
ATOM     25  C   UNL     1      34.504 -15.796 -21.253  0.00  0.00    +0.223 C 
ATOM     26  H   UNL     1      34.460 -17.147 -22.797  0.00  0.00    +0.149 HD
BRANCH  25  27
ATOM     27  C   UNL     1      33.572 -14.933 -22.090  0.00  0.00    +0.096 C 
BRANCH  27  28
ATOM     28  C   UNL     1      34.097 -14.619 -23.487  0.00  0.00    +0.063 C 
BRANCH  28  29
ATOM     29  S   UNL     1      33.634 -12.946 -24.028  0.00  0.00    -0.167 S 
ATOM     30  H   UNL     1      32.338 -12.702 -23.691  0.00  0.00    +0.102 HD
ENDBRANCH  28  29
ENDBRANCH  27  28
ENDBRANCH  25  27
ENDBRANCH  22  24
ENDBRANCH  21  22
ENDBRANCH  20  21
ENDBRANCH  19  20
ENDBRANCH  17  19
ENDBRANCH   1  17
TORSDOF 11
ENDMDL
MODEL 4
REMARK VINA RESULT:      -9.0      2.308      2.448
REMARK  Name = 11963499
REMARK  11 active torsions:
REMARK  status: ('A' for Active; 'I' for Inactive)
REMARK    1  A    between atoms: S_1  and  C_4
REMARK    2  A    between atoms: S_1  and  N_17
REMARK    3  A    between atoms: C_7  and  N_14
REMARK    4  A    between atoms: N_17  and  C_19
REMARK    5  A    between atoms: C_19  and  C_20
REMARK    6  A    between atoms: C_20  and  C_21
REMARK    7  A    between atoms: C_21  and  C_22
REMARK    8  A    between atoms: C_22  and  N_24
REMARK    9  A    between atoms: C_25  and  C_27
REMARK   10  A    between atoms: C_27  and  C_28
REMARK   11  A    between atoms: C_28  and  S_29
REMARK                            x       y       z     vdW  Elec       q    Type
REMARK                         _______ _______ _______ _____ _____    ______ ____
ROOT
ATOM      1  S   UNL     1      35.352 -18.628 -22.272  0.00  0.00    +0.060 S 
ATOM      2  O   UNL     1      34.250 -19.358 -22.878  0.00  0.00    -0.153 OA
ATOM      3  O   UNL     1      36.644 -18.590 -22.938  0.00  0.00    -0.153 OA
ENDROOT
BRANCH   1   4
ATOM      4  C   UNL     1      34.843 -16.964 -22.022  0.00  0.00    +0.122 C 
ATOM      5  C   UNL     1      34.378 -16.146 -23.064  0.00  0.00    +0.020 C 
ATOM      6  C   UNL     1      33.986 -14.817 -22.778  0.00  0.00    +0.015 C 
ATOM      7  C   UNL     1      33.521 -13.998 -23.821  0.00  0.00    +0.048 C 
ATOM      8  C   UNL     1      34.920 -16.479 -20.716  0.00  0.00    +0.020 C 
ATOM      9  C   UNL     1      34.294 -16.617 -24.384  0.00  0.00    +0.001 C 
ATOM     10  C   UNL     1      34.070 -14.345 -21.458  0.00  0.00    +0.001 C 
ATOM     11  C   UNL     1      34.535 -15.173 -20.435  0.00  0.00    +0.001 C 
ATOM     12  C   UNL     1      33.445 -14.483 -25.127  0.00  0.00    +0.015 C 
ATOM     13  C   UNL     1      33.831 -15.790 -25.408  0.00  0.00    +0.001 C 
BRANCH   7  14
ATOM     14  N   UNL     1      33.118 -12.660 -23.589  0.00  0.00    -0.304 N 
ATOM     15  C   UNL     1      33.784 -11.571 -24.268  0.00  0.00    +0.112 C 
ATOM     16  C   UNL     1      32.046 -12.374 -22.661  0.00  0.00    +0.112 C 
ENDBRANCH   7  14
ENDBRANCH   1   4
BRANCH   1  17
ATOM     17  N   UNL     1      35.571 -19.180 -20.672  0.00  0.00    -0.179 NA
ATOM     18  H   UNL     1      35.009 -18.574 -20.073  0.00  0.00    +0.149 HD
BRANCH  17  19
ATOM     19  C   UNL     1      35.225 -20.564 -20.318  0.00  0.00    +0.092 C 
BRANCH  19  20
ATOM     20  C   UNL     1      36.398 -21.240 -19.614  0.00  0.00    +0.021 C 
BRANCH  20  21
ATOM     21  C   UNL     1      35.979 -21.943 -18.316  0.00  0.00    +0.023 C 
BRANCH  21  22
ATOM     22  C   UNL     1      36.933 -21.652 -17.161  0.00  0.00    +0.089 C 
BRANCH  22  24
ATOM     23  O   UNL     1      38.612 -23.424 -15.627  0.00  0.00    -0.275 OA
ATOM     24  N   UNL     1      36.574 -22.361 -15.964  0.00  0.00    -0.304 N 
ATOM     25  C   UNL     1      37.453 -23.199 -15.286  0.00  0.00    +0.223 C 
ATOM     26  H   UNL     1      35.663 -22.248 -15.607  0.00  0.00    +0.149 HD
BRANCH  25  27
ATOM     27  C   UNL     1      36.821 -23.793 -14.037  0.00  0.00    +0.096 C 
BRANCH  27  28
ATOM     28  C   UNL     1      35.917 -24.993 -14.304  0.00  0.00    +0.063 C 
BRANCH  28  29
ATOM     29  S   UNL     1      36.831 -26.383 -15.038  0.00  0.00    -0.167 S 
ATOM     30  H   UNL     1      36.334 -27.556 -14.561  0.00  0.00    +0.102 HD
ENDBRANCH  28  29
ENDBRANCH  27  28
ENDBRANCH  25  27
ENDBRANCH  22  24
ENDBRANCH  21  22
ENDBRANCH  20  21
ENDBRANCH  19  20
ENDBRANCH  17  19
ENDBRANCH   1  17
TORSDOF 11
ENDMDL
MODEL 5
REMARK VINA RESULT:      -8.9      2.150      2.510
REMARK  Name = 11963499
REMARK  11 active torsions:
REMARK  status: ('A' for Active; 'I' for Inactive)
REMARK    1  A    between atoms: S_1  and  C_4
REMARK    2  A    between atoms: S_1  and  N_17
REMARK    3  A    between atoms: C_7  and  N_14
REMARK    4  A    between atoms: N_17  and  C_19
REMARK    5  A    between atoms: C_19  and  C_20
REMARK    6  A    between atoms: C_20  and  C_21
REMARK    7  A    between atoms: C_21  and  C_22
REMARK    8  A    between atoms: C_22  and  N_24
REMARK    9  A    between atoms: C_25  and  C_27
REMARK   10  A    between atoms: C_27  and  C_28
REMARK   11  A    between atoms: C_28  and  S_29
REMARK                            x       y       z     vdW  Elec       q    Type
REMARK                         _______ _______ _______ _____ _____    ______ ____
ROOT
ATOM      1  S   UNL     1      35.274 -18.298 -23.032  0.00  0.00    +0.060 S 
ATOM      2  O   UNL     1      35.124 -18.375 -24.476  0.00  0.00    -0.153 OA
ATOM      3  O   UNL     1      36.570 -18.558 -22.427  0.00  0.00    -0.153 OA
ENDROOT
BRANCH   1   4
ATOM      4  C   UNL     1      34.761 -16.701 -22.507  0.00  0.00    +0.122 C 
ATOM      5  C   UNL     1      34.208 -15.754 -23.383  0.00  0.00    +0.020 C 
ATOM      6  C   UNL     1      33.819 -14.489 -22.880  0.00  0.00    +0.015 C 
ATOM      7  C   UNL     1      33.266 -13.541 -23.756  0.00  0.00    +0.048 C 
ATOM      8  C   UNL     1      34.929 -16.407 -21.153  0.00  0.00    +0.020 C 
ATOM      9  C   UNL     1      34.032 -16.032 -24.748  0.00  0.00    +0.001 C 
ATOM     10  C   UNL     1      33.996 -14.210 -21.515  0.00  0.00    +0.001 C 
ATOM     11  C   UNL     1      34.547 -15.164 -20.658  0.00  0.00    +0.001 C 
ATOM     12  C   UNL     1      33.099 -13.835 -25.110  0.00  0.00    +0.015 C 
ATOM     13  C   UNL     1      33.481 -15.078 -25.604  0.00  0.00    +0.001 C 
BRANCH   7  14
ATOM     14  N   UNL     1      32.863 -12.261 -23.304  0.00  0.00    -0.304 N 
ATOM     15  C   UNL     1      31.798 -12.133 -22.334  0.00  0.00    +0.112 C 
ATOM     16  C   UNL     1      33.504 -11.071 -23.821  0.00  0.00    +0.112 C 
ENDBRANCH   7  14
ENDBRANCH   1   4
BRANCH   1  17
ATOM     17  N   UNL     1      34.109 -19.307 -22.299  0.00  0.00    -0.179 NA
ATOM     18  H   UNL     1      33.934 -20.074 -22.949  0.00  0.00    +0.149 HD
BRANCH  17  19
ATOM     19  C   UNL     1      34.382 -19.916 -20.989  0.00  0.00    +0.092 C 
BRANCH  19  20
ATOM     20  C   UNL     1      33.078 -20.337 -20.319  0.00  0.00    +0.021 C 
BRANCH  20  21
ATOM     21  C   UNL     1      33.284 -21.443 -19.275  0.00  0.00    +0.023 C 
BRANCH  21  22
ATOM     22  C   UNL     1      34.555 -22.251 -19.523  0.00  0.00    +0.089 C 
BRANCH  22  24
ATOM     23  O   UNL     1      36.825 -20.606 -18.847  0.00  0.00    -0.275 OA
ATOM     24  N   UNL     1      35.377 -22.353 -18.349  0.00  0.00    -0.304 N 
ATOM     25  C   UNL     1      36.457 -21.512 -18.104  0.00  0.00    +0.223 C 
ATOM     26  H   UNL     1      35.165 -23.050 -17.687  0.00  0.00    +0.149 HD
BRANCH  25  27
ATOM     27  C   UNL     1      37.128 -21.824 -16.775  0.00  0.00    +0.096 C 
BRANCH  27  28
ATOM     28  C   UNL     1      36.238 -22.565 -15.783  0.00  0.00    +0.063 C 
BRANCH  28  29
ATOM     29  S   UNL     1      37.101 -23.965 -15.007  0.00  0.00    -0.167 S 
ATOM     30  H   UNL     1      37.947 -24.533 -15.909  0.00  0.00    +0.102 HD
ENDBRANCH  28  29
ENDBRANCH  27  28
ENDBRANCH  25  27
ENDBRANCH  22  24
ENDBRANCH  21  22
ENDBRANCH  20  21
ENDBRANCH  19  20
ENDBRANCH  17  19
ENDBRANCH   1  17
TORSDOF 11
ENDMDL
MODEL 6
REMARK VINA RESULT:      -8.9      3.264      5.765
REMARK  Name = 11963499
REMARK  11 active torsions:
REMARK  status: ('A' for Active; 'I' for Inactive)
REMARK    1  A    between atoms: S_1  and  C_4
REMARK    2  A    between atoms: S_1  and  N_17
REMARK    3  A    between atoms: C_7  and  N_14
REMARK    4  A    between atoms: N_17  and  C_19
REMARK    5  A    between atoms: C_19  and  C_20
REMARK    6  A    between atoms: C_20  and  C_21
REMARK    7  A    between atoms: C_21  and  C_22
REMARK    8  A    between atoms: C_22  and  N_24
REMARK    9  A    between atoms: C_25  and  C_27
REMARK   10  A    between atoms: C_27  and  C_28
REMARK   11  A    between atoms: C_28  and  S_29
REMARK                            x       y       z     vdW  Elec       q    Type
REMARK                         _______ _______ _______ _____ _____    ______ ____
ROOT
ATOM      1  S   UNL     1      34.373 -22.681 -18.808  0.00  0.00    +0.060 S 
ATOM      2  O   UNL     1      34.231 -23.815 -19.708  0.00  0.00    -0.153 OA
ATOM      3  O   UNL     1      35.638 -22.452 -18.131  0.00  0.00    -0.153 OA
ENDROOT
BRANCH   1   4
ATOM      4  C   UNL     1      33.981 -21.217 -19.698  0.00  0.00    +0.122 C 
ATOM      5  C   UNL     1      34.961 -20.392 -20.273  0.00  0.00    +0.020 C 
ATOM      6  C   UNL     1      34.562 -19.229 -20.975  0.00  0.00    +0.015 C 
ATOM      7  C   UNL     1      35.542 -18.403 -21.550  0.00  0.00    +0.048 C 
ATOM      8  C   UNL     1      32.627 -20.901 -19.812  0.00  0.00    +0.020 C 
ATOM      9  C   UNL     1      36.328 -20.694 -20.168  0.00  0.00    +0.001 C 
ATOM     10  C   UNL     1      33.195 -18.926 -21.080  0.00  0.00    +0.001 C 
ATOM     11  C   UNL     1      32.235 -19.758 -20.502  0.00  0.00    +0.001 C 
ATOM     12  C   UNL     1      36.896 -18.719 -21.435  0.00  0.00    +0.015 C 
ATOM     13  C   UNL     1      37.288 -19.862 -20.745  0.00  0.00    +0.001 C 
BRANCH   7  14
ATOM     14  N   UNL     1      35.197 -17.228 -22.260  0.00  0.00    -0.304 N 
ATOM     15  C   UNL     1      34.875 -16.013 -21.546  0.00  0.00    +0.112 C 
ATOM     16  C   UNL     1      35.151 -17.239 -23.707  0.00  0.00    +0.112 C 
ENDBRANCH   7  14
ENDBRANCH   1   4
BRANCH   1  17
ATOM     17  N   UNL     1      33.125 -22.738 -17.646  0.00  0.00    -0.179 NA
ATOM     18  H   UNL     1      32.296 -23.097 -18.121  0.00  0.00    +0.149 HD
BRANCH  17  19
ATOM     19  C   UNL     1      33.292 -23.538 -16.424  0.00  0.00    +0.092 C 
BRANCH  19  20
ATOM     20  C   UNL     1      32.019 -23.500 -15.586  0.00  0.00    +0.021 C 
BRANCH  20  21
ATOM     21  C   UNL     1      32.296 -23.206 -14.106  0.00  0.00    +0.023 C 
BRANCH  21  22
ATOM     22  C   UNL     1      33.278 -24.196 -13.487  0.00  0.00    +0.089 C 
BRANCH  22  24
ATOM     23  O   UNL     1      35.051 -24.958 -11.344  0.00  0.00    -0.275 OA
ATOM     24  N   UNL     1      34.531 -23.583 -13.143  0.00  0.00    -0.304 N 
ATOM     25  C   UNL     1      35.325 -24.019 -12.088  0.00  0.00    +0.223 C 
ATOM     26  H   UNL     1      34.842 -22.819 -13.680  0.00  0.00    +0.149 HD
BRANCH  25  27
ATOM     27  C   UNL     1      36.608 -23.210 -11.971  0.00  0.00    +0.096 C 
BRANCH  27  28
ATOM     28  C   UNL     1      37.879 -24.053 -11.943  0.00  0.00    +0.063 C 
BRANCH  28  29
ATOM     29  S   UNL     1      38.062 -25.058 -13.448  0.00  0.00    -0.167 S 
ATOM     30  H   UNL     1      39.295 -24.852 -13.984  0.00  0.00    +0.102 HD
ENDBRANCH  28  29
ENDBRANCH  27  28
ENDBRANCH  25  27
ENDBRANCH  22  24
ENDBRANCH  21  22
ENDBRANCH  20  21
ENDBRANCH  19  20
ENDBRANCH  17  19
ENDBRANCH   1  17
TORSDOF 11
ENDMDL
MODEL 7
REMARK VINA RESULT:      -8.7      3.478     10.154
REMARK  Name = 11963499
REMARK  11 active torsions:
REMARK  status: ('A' for Active; 'I' for Inactive)
REMARK    1  A    between atoms: S_1  and  C_4
REMARK    2  A    between atoms: S_1  and  N_17
REMARK    3  A    between atoms: C_7  and  N_14
REMARK    4  A    between atoms: N_17  and  C_19
REMARK    5  A    between atoms: C_19  and  C_20
REMARK    6  A    between atoms: C_20  and  C_21
REMARK    7  A    between atoms: C_21  and  C_22
REMARK    8  A    between atoms: C_22  and  N_24
REMARK    9  A    between atoms: C_25  and  C_27
REMARK   10  A    between atoms: C_27  and  C_28
REMARK   11  A    between atoms: C_28  and  S_29
REMARK                            x       y       z     vdW  Elec       q    Type
REMARK                         _______ _______ _______ _____ _____    ______ ____
ROOT
ATOM      1  S   UNL     1      35.385 -24.224 -15.069  0.00  0.00    +0.060 S 
ATOM      2  O   UNL     1      35.529 -23.560 -13.784  0.00  0.00    -0.153 OA
ATOM      3  O   UNL     1      35.459 -25.674 -15.143  0.00  0.00    -0.153 OA
ENDROOT
BRANCH   1   4
ATOM      4  C   UNL     1      33.849 -23.741 -15.773  0.00  0.00    +0.122 C 
ATOM      5  C   UNL     1      32.614 -24.004 -15.158  0.00  0.00    +0.020 C 
ATOM      6  C   UNL     1      31.422 -23.580 -15.792  0.00  0.00    +0.015 C 
ATOM      7  C   UNL     1      30.186 -23.843 -15.177  0.00  0.00    +0.048 C 
ATOM      8  C   UNL     1      33.908 -23.069 -16.995  0.00  0.00    +0.020 C 
ATOM      9  C   UNL     1      32.536 -24.679 -13.930  0.00  0.00    +0.001 C 
ATOM     10  C   UNL     1      31.499 -22.906 -17.021  0.00  0.00    +0.001 C 
ATOM     11  C   UNL     1      32.736 -22.653 -17.617  0.00  0.00    +0.001 C 
ATOM     12  C   UNL     1      30.127 -24.515 -13.956  0.00  0.00    +0.015 C 
ATOM     13  C   UNL     1      31.300 -24.932 -13.334  0.00  0.00    +0.001 C 
BRANCH   7  14
ATOM     14  N   UNL     1      28.964 -23.442 -15.769  0.00  0.00    -0.304 N 
ATOM     15  C   UNL     1      28.347 -24.258 -16.791  0.00  0.00    +0.112 C 
ATOM     16  C   UNL     1      28.330 -22.206 -15.364  0.00  0.00    +0.112 C 
ENDBRANCH   7  14
ENDBRANCH   1   4
BRANCH   1  17
ATOM     17  N   UNL     1      36.508 -23.556 -16.167  0.00  0.00    -0.179 NA
ATOM     18  H   UNL     1      35.987 -23.316 -17.011  0.00  0.00    +0.149 HD
BRANCH  17  19
ATOM     19  C   UNL     1      37.282 -22.363 -15.794  0.00  0.00    +0.092 C 
BRANCH  19  20
ATOM     20  C   UNL     1      37.258 -21.340 -16.924  0.00  0.00    +0.021 C 
BRANCH  20  21
ATOM     21  C   UNL     1      36.475 -21.833 -18.148  0.00  0.00    +0.023 C 
BRANCH  21  22
ATOM     22  C   UNL     1      36.821 -21.058 -19.415  0.00  0.00    +0.089 C 
BRANCH  22  24
ATOM     23  O   UNL     1      36.846 -18.913 -21.342  0.00  0.00    -0.275 OA
ATOM     24  N   UNL     1      35.681 -20.385 -19.974  0.00  0.00    -0.304 N 
ATOM     25  C   UNL     1      35.788 -19.355 -20.903  0.00  0.00    +0.223 C 
ATOM     26  H   UNL     1      34.783 -20.667 -19.686  0.00  0.00    +0.149 HD
BRANCH  25  27
ATOM     27  C   UNL     1      34.424 -18.849 -21.347  0.00  0.00    +0.096 C 
BRANCH  27  28
ATOM     28  C   UNL     1      34.276 -17.331 -21.303  0.00  0.00    +0.063 C 
BRANCH  28  29
ATOM     29  S   UNL     1      34.825 -16.549 -22.851  0.00  0.00    -0.167 S 
ATOM     30  H   UNL     1      36.112 -16.129 -22.716  0.00  0.00    +0.102 HD
ENDBRANCH  28  29
ENDBRANCH  27  28
ENDBRANCH  25  27
ENDBRANCH  22  24
ENDBRANCH  21  22
ENDBRANCH  20  21
ENDBRANCH  19  20
ENDBRANCH  17  19
ENDBRANCH   1  17
TORSDOF 11
ENDMDL
MODEL 8
REMARK VINA RESULT:      -8.7      2.952      5.280
REMARK  Name = 11963499
REMARK  11 active torsions:
REMARK  status: ('A' for Active; 'I' for Inactive)
REMARK    1  A    between atoms: S_1  and  C_4
REMARK    2  A    between atoms: S_1  and  N_17
REMARK    3  A    between atoms: C_7  and  N_14
REMARK    4  A    between atoms: N_17  and  C_19
REMARK    5  A    between atoms: C_19  and  C_20
REMARK    6  A    between atoms: C_20  and  C_21
REMARK    7  A    between atoms: C_21  and  C_22
REMARK    8  A    between atoms: C_22  and  N_24
REMARK    9  A    between atoms: C_25  and  C_27
REMARK   10  A    between atoms: C_27  and  C_28
REMARK   11  A    between atoms: C_28  and  S_29
REMARK                            x       y       z     vdW  Elec       q    Type
REMARK                         _______ _______ _______ _____ _____    ______ ____
ROOT
ATOM      1  S   UNL     1      33.423 -14.731 -22.545  0.00  0.00    +0.060 S 
ATOM      2  O   UNL     1      34.554 -14.853 -21.640  0.00  0.00    -0.153 OA
ATOM      3  O   UNL     1      32.095 -15.117 -22.097  0.00  0.00    -0.153 OA
ENDROOT
BRANCH   1   4
ATOM      4  C   UNL     1      33.327 -13.062 -23.089  0.00  0.00    +0.122 C 
ATOM      5  C   UNL     1      32.679 -12.058 -22.352  0.00  0.00    +0.020 C 
ATOM      6  C   UNL     1      32.648 -10.737 -22.860  0.00  0.00    +0.015 C 
ATOM      7  C   UNL     1      31.999  -9.732 -22.123  0.00  0.00    +0.048 C 
ATOM      8  C   UNL     1      33.936 -12.769 -24.310  0.00  0.00    +0.020 C 
ATOM      9  C   UNL     1      32.061 -12.334 -21.122  0.00  0.00    +0.001 C 
ATOM     10  C   UNL     1      33.265 -10.460 -24.090  0.00  0.00    +0.001 C 
ATOM     11  C   UNL     1      33.905 -11.471 -24.809  0.00  0.00    +0.001 C 
ATOM     12  C   UNL     1      31.390 -10.026 -20.902  0.00  0.00    +0.015 C 
ATOM     13  C   UNL     1      31.421 -11.324 -20.403  0.00  0.00    +0.001 C 
BRANCH   7  14
ATOM     14  N   UNL     1      31.937  -8.396 -22.587  0.00  0.00    -0.304 N 
ATOM     15  C   UNL     1      30.914  -7.998 -23.528  0.00  0.00    +0.112 C 
ATOM     16  C   UNL     1      32.906  -7.422 -22.132  0.00  0.00    +0.112 C 
ENDBRANCH   7  14
ENDBRANCH   1   4
BRANCH   1  17
ATOM     17  N   UNL     1      33.780 -15.559 -23.994  0.00  0.00    -0.179 NA
ATOM     18  H   UNL     1      33.884 -14.849 -24.720  0.00  0.00    +0.149 HD
BRANCH  17  19
ATOM     19  C   UNL     1      34.965 -16.425 -24.074  0.00  0.00    +0.092 C 
BRANCH  19  20
ATOM     20  C   UNL     1      34.601 -17.767 -24.700  0.00  0.00    +0.021 C 
BRANCH  20  21
ATOM     21  C   UNL     1      34.753 -18.935 -23.717  0.00  0.00    +0.023 C 
BRANCH  21  22
ATOM     22  C   UNL     1      34.578 -18.503 -22.264  0.00  0.00    +0.089 C 
BRANCH  22  24
ATOM     23  O   UNL     1      36.716 -19.343 -20.522  0.00  0.00    -0.275 OA
ATOM     24  N   UNL     1      34.567 -19.618 -21.359  0.00  0.00    -0.304 N 
ATOM     25  C   UNL     1      35.649 -19.951 -20.551  0.00  0.00    +0.223 C 
ATOM     26  H   UNL     1      33.755 -20.173 -21.307  0.00  0.00    +0.149 HD
BRANCH  25  27
ATOM     27  C   UNL     1      35.352 -21.156 -19.672  0.00  0.00    +0.096 C 
BRANCH  27  28
ATOM     28  C   UNL     1      33.868 -21.486 -19.545  0.00  0.00    +0.063 C 
BRANCH  28  29
ATOM     29  S   UNL     1      33.564 -22.789 -18.313  0.00  0.00    -0.167 S 
ATOM     30  H   UNL     1      33.444 -23.989 -18.941  0.00  0.00    +0.102 HD
ENDBRANCH  28  29
ENDBRANCH  27  28
ENDBRANCH  25  27
ENDBRANCH  22  24
ENDBRANCH  21  22
ENDBRANCH  20  21
ENDBRANCH  19  20
ENDBRANCH  17  19
ENDBRANCH   1  17
TORSDOF 11
ENDMDL
MODEL 9
REMARK VINA RESULT:      -8.7      1.442      2.607
REMARK  Name = 11963499
REMARK  11 active torsions:
REMARK  status: ('A' for Active; 'I' for Inactive)
REMARK    1  A    between atoms: S_1  and  C_4
REMARK    2  A    between atoms: S_1  and  N_17
REMARK    3  A    between atoms: C_7  and  N_14
REMARK    4  A    between atoms: N_17  and  C_19
REMARK    5  A    between atoms: C_19  and  C_20
REMARK    6  A    between atoms: C_20  and  C_21
REMARK    7  A    between atoms: C_21  and  C_22
REMARK    8  A    between atoms: C_22  and  N_24
REMARK    9  A    between atoms: C_25  and  C_27
REMARK   10  A    between atoms: C_27  and  C_28
REMARK   11  A    between atoms: C_28  and  S_29
REMARK                            x       y       z     vdW  Elec       q    Type
REMARK                         _______ _______ _______ _____ _____    ______ ____
ROOT
ATOM      1  S   UNL     1      35.558 -18.273 -21.508  0.00  0.00    +0.060 S 
ATOM      2  O   UNL     1      36.934 -18.704 -21.697  0.00  0.00    -0.153 OA
ATOM      3  O   UNL     1      35.222 -17.402 -20.394  0.00  0.00    -0.153 OA
ENDROOT
BRANCH   1   4
ATOM      4  C   UNL     1      35.022 -17.473 -22.979  0.00  0.00    +0.122 C 
ATOM      5  C   UNL     1      34.576 -16.142 -23.001  0.00  0.00    +0.020 C 
ATOM      6  C   UNL     1      34.161 -15.571 -24.229  0.00  0.00    +0.015 C 
ATOM      7  C   UNL     1      33.714 -14.240 -24.251  0.00  0.00    +0.048 C 
ATOM      8  C   UNL     1      35.060 -18.231 -24.149  0.00  0.00    +0.020 C 
ATOM      9  C   UNL     1      34.530 -15.364 -21.833  0.00  0.00    +0.001 C 
ATOM     10  C   UNL     1      34.206 -16.349 -25.397  0.00  0.00    +0.001 C 
ATOM     11  C   UNL     1      34.653 -17.671 -25.355  0.00  0.00    +0.001 C 
ATOM     12  C   UNL     1      33.676 -13.482 -23.081  0.00  0.00    +0.015 C 
ATOM     13  C   UNL     1      34.083 -14.043 -21.874  0.00  0.00    +0.001 C 
BRANCH   7  14
ATOM     14  N   UNL     1      33.287 -13.622 -25.452  0.00  0.00    -0.304 N 
ATOM     15  C   UNL     1      32.441 -14.339 -26.379  0.00  0.00    +0.112 C 
ATOM     16  C   UNL     1      33.706 -12.273 -25.765  0.00  0.00    +0.112 C 
ENDBRANCH   7  14
ENDBRANCH   1   4
BRANCH   1  17
ATOM     17  N   UNL     1      34.548 -19.647 -21.460  0.00  0.00    -0.179 NA
ATOM     18  H   UNL     1      35.053 -20.365 -20.940  0.00  0.00    +0.149 HD
BRANCH  17  19
ATOM     19  C   UNL     1      33.208 -19.556 -20.862  0.00  0.00    +0.092 C 
BRANCH  19  20
ATOM     20  C   UNL     1      32.982 -20.706 -19.888  0.00  0.00    +0.021 C 
BRANCH  20  21
ATOM     21  C   UNL     1      34.272 -21.475 -19.575  0.00  0.00    +0.023 C 
BRANCH  21  22
ATOM     22  C   UNL     1      34.049 -22.612 -18.582  0.00  0.00    +0.089 C 
BRANCH  22  24
ATOM     23  O   UNL     1      33.196 -23.565 -15.998  0.00  0.00    -0.275 OA
ATOM     24  N   UNL     1      32.707 -22.637 -18.071  0.00  0.00    -0.304 N 
ATOM     25  C   UNL     1      32.386 -23.117 -16.805  0.00  0.00    +0.223 C 
ATOM     26  H   UNL     1      31.980 -22.299 -18.643  0.00  0.00    +0.149 HD
BRANCH  25  27
ATOM     27  C   UNL     1      30.898 -22.997 -16.514  0.00  0.00    +0.096 C 
BRANCH  27  28
ATOM     28  C   UNL     1      30.556 -22.922 -15.029  0.00  0.00    +0.063 C 
BRANCH  28  29
ATOM     29  S   UNL     1      30.194 -24.562 -14.331  0.00  0.00    -0.167 S 
ATOM     30  H   UNL     1      29.257 -24.442 -13.352  0.00  0.00    +0.102 HD
ENDBRANCH  28  29
ENDBRANCH  27  28
ENDBRANCH  25  27
ENDBRANCH  22  24
ENDBRANCH  21  22
ENDBRANCH  20  21
ENDBRANCH  19  20
ENDBRANCH  17  19
ENDBRANCH   1  17
TORSDOF 11
ENDMDL
