MODEL 1
REMARK VINA RESULT:      -7.3      0.000      0.000
REMARK  Name = 5289331
REMARK  5 active torsions:
REMARK  status: ('A' for Active; 'I' for Inactive)
REMARK    1  A    between atoms: C_1  and  C_3
REMARK    2  A    between atoms: C_1  and  C_9
REMARK    3  A    between atoms: C_9  and  C_10
REMARK    4  A    between atoms: C_10  and  N_12
REMARK    5  A    between atoms: N_12  and  O_14
REMARK                            x       y       z     vdW  Elec       q    Type
REMARK                         _______ _______ _______ _____ _____    ______ ____
ROOT
ATOM      1  C   UNL     1      35.721 -18.176 -22.087  0.00  0.00    +0.061 C 
ENDROOT
BRANCH   1   3
ATOM      2  N   UNL     1      35.861 -19.962 -20.458  0.00  0.00    -0.415 NA
ATOM      3  C   UNL     1      35.051 -19.232 -21.247  0.00  0.00    +0.108 C 
ATOM      4  C   UNL     1      33.684 -19.382 -21.335  0.00  0.00    +0.023 C 
ATOM      5  C   UNL     1      35.254 -20.908 -19.707  0.00  0.00    +0.091 C 
ATOM      6  C   UNL     1      33.097 -20.366 -20.548  0.00  0.00    -0.017 C 
ATOM      7  C   UNL     1      33.889 -21.147 -19.715  0.00  0.00    +0.080 C 
ATOM      8  C   UNL     1      36.137 -21.728 -18.826  0.00  0.00    +0.062 C 
ENDBRANCH   1   3
BRANCH   1   9
ATOM      9  C   UNL     1      34.982 -17.951 -23.410  0.00  0.00    +0.032 C 
BRANCH   9  10
ATOM     10  C   UNL     1      34.623 -16.478 -23.595  0.00  0.00    +0.125 C 
BRANCH  10  12
ATOM     11  O   UNL     1      32.959 -14.329 -24.632  0.00  0.00    -0.263 OA
ATOM     12  N   UNL     1      34.245 -16.219 -24.980  0.00  0.00    -0.165 N 
ATOM     13  C   UNL     1      33.460 -15.183 -25.355  0.00  0.00    +0.327 C 
BRANCH  12  14
ATOM     14  O   UNL     1      34.772 -17.146 -25.878  0.00  0.00    -0.291 OA
ATOM     15  H   UNL     1      34.500 -16.913 -26.780  0.00  0.00    +0.242 HD
ENDBRANCH  12  14
ENDBRANCH  10  12
ENDBRANCH   9  10
ENDBRANCH   1   9
TORSDOF 5
ENDMDL
MODEL 2
REMARK VINA RESULT:      -7.1      1.436      2.095
REMARK  Name = 5289331
REMARK  5 active torsions:
REMARK  status: ('A' for Active; 'I' for Inactive)
REMARK    1  A    between atoms: C_1  and  C_3
REMARK    2  A    between atoms: C_1  and  C_9
REMARK    3  A    between atoms: C_9  and  C_10
REMARK    4  A    between atoms: C_10  and  N_12
REMARK    5  A    between atoms: N_12  and  O_14
REMARK                            x       y       z     vdW  Elec       q    Type
REMARK                         _______ _______ _______ _____ _____    ______ ____
ROOT
ATOM      1  C   UNL     1      34.420 -18.780 -21.855  0.00  0.00    +0.061 C 
ENDROOT
BRANCH   1   3
ATOM      2  N   UNL     1      33.934 -20.561 -20.289  0.00  0.00    -0.415 NA
ATOM      3  C   UNL     1      34.893 -19.816 -20.868  0.00  0.00    +0.108 C 
ATOM      4  C   UNL     1      36.245 -19.932 -20.624  0.00  0.00    +0.023 C 
ATOM      5  C   UNL     1      34.365 -21.488 -19.403  0.00  0.00    +0.091 C 
ATOM      6  C   UNL     1      36.648 -20.896 -19.706  0.00  0.00    -0.017 C 
ATOM      7  C   UNL     1      35.697 -21.693 -19.081  0.00  0.00    +0.080 C 
ATOM      8  C   UNL     1      33.316 -22.325 -18.751  0.00  0.00    +0.062 C 
ENDBRANCH   1   3
BRANCH   1   9
ATOM      9  C   UNL     1      35.380 -18.650 -23.042  0.00  0.00    +0.032 C 
BRANCH   9  10
ATOM     10  C   UNL     1      34.638 -18.205 -24.302  0.00  0.00    +0.125 C 
BRANCH  10  12
ATOM     11  O   UNL     1      33.218 -16.498 -26.180  0.00  0.00    -0.263 OA
ATOM     12  N   UNL     1      34.760 -16.762 -24.478  0.00  0.00    -0.165 N 
ATOM     13  C   UNL     1      34.046 -16.062 -25.389  0.00  0.00    +0.327 C 
BRANCH  12  14
ATOM     14  O   UNL     1      35.686 -16.177 -23.615  0.00  0.00    -0.291 OA
ATOM     15  H   UNL     1      36.571 -16.226 -24.009  0.00  0.00    +0.242 HD
ENDBRANCH  12  14
ENDBRANCH  10  12
ENDBRANCH   9  10
ENDBRANCH   1   9
TORSDOF 5
ENDMDL
MODEL 3
REMARK VINA RESULT:      -7.1      2.148      2.407
REMARK  Name = 5289331
REMARK  5 active torsions:
REMARK  status: ('A' for Active; 'I' for Inactive)
REMARK    1  A    between atoms: C_1  and  C_3
REMARK    2  A    between atoms: C_1  and  C_9
REMARK    3  A    between atoms: C_9  and  C_10
REMARK    4  A    between atoms: C_10  and  N_12
REMARK    5  A    between atoms: N_12  and  O_14
REMARK                            x       y       z     vdW  Elec       q    Type
REMARK                         _______ _______ _______ _____ _____    ______ ____
ROOT
ATOM      1  C   UNL     1      35.723 -18.132 -22.124  0.00  0.00    +0.061 C 
ENDROOT
BRANCH   1   3
ATOM      2  N   UNL     1      35.924 -19.904 -20.486  0.00  0.00    -0.415 NA
ATOM      3  C   UNL     1      35.087 -19.198 -21.269  0.00  0.00    +0.108 C 
ATOM      4  C   UNL     1      33.723 -19.379 -21.340  0.00  0.00    +0.023 C 
ATOM      5  C   UNL     1      35.347 -20.859 -19.722  0.00  0.00    +0.091 C 
ATOM      6  C   UNL     1      33.168 -20.372 -20.539  0.00  0.00    -0.017 C 
ATOM      7  C   UNL     1      33.988 -21.129 -19.712  0.00  0.00    +0.080 C 
ATOM      8  C   UNL     1      36.259 -21.653 -18.847  0.00  0.00    +0.062 C 
ENDBRANCH   1   3
BRANCH   1   9
ATOM      9  C   UNL     1      34.671 -17.244 -22.797  0.00  0.00    +0.032 C 
BRANCH   9  10
ATOM     10  C   UNL     1      34.870 -15.777 -22.420  0.00  0.00    +0.125 C 
BRANCH  10  12
ATOM     11  O   UNL     1      32.140 -14.870 -21.986  0.00  0.00    -0.263 OA
ATOM     12  N   UNL     1      34.207 -15.486 -21.153  0.00  0.00    -0.165 N 
ATOM     13  C   UNL     1      32.924 -15.067 -21.065  0.00  0.00    +0.327 C 
BRANCH  12  14
ATOM     14  O   UNL     1      35.027 -15.683 -20.043  0.00  0.00    -0.291 OA
ATOM     15  H   UNL     1      35.957 -15.645 -20.317  0.00  0.00    +0.242 HD
ENDBRANCH  12  14
ENDBRANCH  10  12
ENDBRANCH   9  10
ENDBRANCH   1   9
TORSDOF 5
ENDMDL
MODEL 4
REMARK VINA RESULT:      -7.1      1.237      1.487
REMARK  Name = 5289331
REMARK  5 active torsions:
REMARK  status: ('A' for Active; 'I' for Inactive)
REMARK    1  A    between atoms: C_1  and  C_3
REMARK    2  A    between atoms: C_1  and  C_9
REMARK    3  A    between atoms: C_9  and  C_10
REMARK    4  A    between atoms: C_10  and  N_12
REMARK    5  A    between atoms: N_12  and  O_14
REMARK                            x       y       z     vdW  Elec       q    Type
REMARK                         _______ _______ _______ _____ _____    ______ ____
ROOT
ATOM      1  C   UNL     1      34.248 -18.722 -21.648  0.00  0.00    +0.061 C 
ENDROOT
BRANCH   1   3
ATOM      2  N   UNL     1      35.460 -20.214 -20.176  0.00  0.00    -0.415 NA
ATOM      3  C   UNL     1      34.260 -19.879 -20.683  0.00  0.00    +0.108 C 
ATOM      4  C   UNL     1      33.069 -20.508 -20.387  0.00  0.00    +0.023 C 
ATOM      5  C   UNL     1      35.464 -21.254 -19.312  0.00  0.00    +0.091 C 
ATOM      6  C   UNL     1      33.114 -21.573 -19.494  0.00  0.00    -0.017 C 
ATOM      7  C   UNL     1      34.330 -21.959 -18.941  0.00  0.00    +0.080 C 
ATOM      8  C   UNL     1      36.787 -21.640 -18.740  0.00  0.00    +0.062 C 
ENDBRANCH   1   3
BRANCH   1   9
ATOM      9  C   UNL     1      34.604 -19.166 -23.069  0.00  0.00    +0.032 C 
BRANCH   9  10
ATOM     10  C   UNL     1      35.526 -18.152 -23.746  0.00  0.00    +0.125 C 
BRANCH  10  12
ATOM     11  O   UNL     1      35.077 -15.379 -22.992  0.00  0.00    -0.263 OA
ATOM     12  N   UNL     1      34.740 -17.143 -24.448  0.00  0.00    -0.165 N 
ATOM     13  C   UNL     1      34.596 -15.873 -24.006  0.00  0.00    +0.327 C 
BRANCH  12  14
ATOM     14  O   UNL     1      34.152 -17.618 -25.620  0.00  0.00    -0.291 OA
ATOM     15  H   UNL     1      33.657 -16.901 -26.047  0.00  0.00    +0.242 HD
ENDBRANCH  12  14
ENDBRANCH  10  12
ENDBRANCH   9  10
ENDBRANCH   1   9
TORSDOF 5
ENDMDL
MODEL 5
REMARK VINA RESULT:      -7.1      4.105      6.666
REMARK  Name = 5289331
REMARK  5 active torsions:
REMARK  status: ('A' for Active; 'I' for Inactive)
REMARK    1  A    between atoms: C_1  and  C_3
REMARK    2  A    between atoms: C_1  and  C_9
REMARK    3  A    between atoms: C_9  and  C_10
REMARK    4  A    between atoms: C_10  and  N_12
REMARK    5  A    between atoms: N_12  and  O_14
REMARK                            x       y       z     vdW  Elec       q    Type
REMARK                         _______ _______ _______ _____ _____    ______ ____
ROOT
ATOM      1  C   UNL     1      35.903 -19.774 -20.675  0.00  0.00    +0.061 C 
ENDROOT
BRANCH   1   3
ATOM      2  N   UNL     1      35.202 -17.458 -20.759  0.00  0.00    -0.415 NA
ATOM      3  C   UNL     1      35.496 -18.560 -21.471  0.00  0.00    +0.108 C 
ATOM      4  C   UNL     1      35.451 -18.653 -22.845  0.00  0.00    +0.023 C 
ATOM      5  C   UNL     1      34.837 -16.373 -21.479  0.00  0.00    +0.091 C 
ATOM      6  C   UNL     1      35.071 -17.516 -23.550  0.00  0.00    -0.017 C 
ATOM      7  C   UNL     1      34.757 -16.351 -22.862  0.00  0.00    +0.080 C 
ATOM      8  C   UNL     1      34.507 -15.140 -20.705  0.00  0.00    +0.062 C 
ENDBRANCH   1   3
BRANCH   1   9
ATOM      9  C   UNL     1      34.695 -20.642 -20.310  0.00  0.00    +0.032 C 
BRANCH   9  10
ATOM     10  C   UNL     1      35.084 -21.730 -19.309  0.00  0.00    +0.125 C 
BRANCH  10  12
ATOM     11  O   UNL     1      34.859 -23.267 -16.850  0.00  0.00    -0.263 OA
ATOM     12  N   UNL     1      33.889 -22.335 -18.730  0.00  0.00    -0.165 N 
ATOM     13  C   UNL     1      33.897 -23.034 -17.573  0.00  0.00    +0.327 C 
BRANCH  12  14
ATOM     14  O   UNL     1      32.739 -22.120 -19.489  0.00  0.00    -0.291 OA
ATOM     15  H   UNL     1      32.911 -21.429 -20.147  0.00  0.00    +0.242 HD
ENDBRANCH  12  14
ENDBRANCH  10  12
ENDBRANCH   9  10
ENDBRANCH   1   9
TORSDOF 5
ENDMDL
MODEL 6
REMARK VINA RESULT:      -6.9      3.297      6.420
REMARK  Name = 5289331
REMARK  5 active torsions:
REMARK  status: ('A' for Active; 'I' for Inactive)
REMARK    1  A    between atoms: C_1  and  C_3
REMARK    2  A    between atoms: C_1  and  C_9
REMARK    3  A    between atoms: C_9  and  C_10
REMARK    4  A    between atoms: C_10  and  N_12
REMARK    5  A    between atoms: N_12  and  O_14
REMARK                            x       y       z     vdW  Elec       q    Type
REMARK                         _______ _______ _______ _____ _____    ______ ____
ROOT
ATOM      1  C   UNL     1      34.974 -17.571 -21.380  0.00  0.00    +0.061 C 
ENDROOT
BRANCH   1   3
ATOM      2  N   UNL     1      34.106 -15.883 -22.884  0.00  0.00    -0.415 NA
ATOM      3  C   UNL     1      34.665 -17.103 -22.779  0.00  0.00    +0.108 C 
ATOM      4  C   UNL     1      34.966 -17.932 -23.837  0.00  0.00    +0.023 C 
ATOM      5  C   UNL     1      33.830 -15.470 -24.142  0.00  0.00    +0.091 C 
ATOM      6  C   UNL     1      34.667 -17.472 -25.115  0.00  0.00    -0.017 C 
ATOM      7  C   UNL     1      34.089 -16.219 -25.279  0.00  0.00    +0.080 C 
ATOM      8  C   UNL     1      33.210 -14.120 -24.279  0.00  0.00    +0.062 C 
ENDBRANCH   1   3
BRANCH   1   9
ATOM      9  C   UNL     1      35.410 -19.038 -21.357  0.00  0.00    +0.032 C 
BRANCH   9  10
ATOM     10  C   UNL     1      34.299 -19.933 -20.808  0.00  0.00    +0.125 C 
BRANCH  10  12
ATOM     11  O   UNL     1      32.984 -22.230 -19.603  0.00  0.00    -0.263 OA
ATOM     12  N   UNL     1      34.842 -20.875 -19.836  0.00  0.00    -0.165 N 
ATOM     13  C   UNL     1      34.138 -21.916 -19.337  0.00  0.00    +0.327 C 
BRANCH  12  14
ATOM     14  O   UNL     1      36.159 -20.595 -19.472  0.00  0.00    -0.291 OA
ATOM     15  H   UNL     1      36.368 -19.674 -19.696  0.00  0.00    +0.242 HD
ENDBRANCH  12  14
ENDBRANCH  10  12
ENDBRANCH   9  10
ENDBRANCH   1   9
TORSDOF 5
ENDMDL
MODEL 7
REMARK VINA RESULT:      -6.8      5.482      8.327
REMARK  Name = 5289331
REMARK  5 active torsions:
REMARK  status: ('A' for Active; 'I' for Inactive)
REMARK    1  A    between atoms: C_1  and  C_3
REMARK    2  A    between atoms: C_1  and  C_9
REMARK    3  A    between atoms: C_9  and  C_10
REMARK    4  A    between atoms: C_10  and  N_12
REMARK    5  A    between atoms: N_12  and  O_14
REMARK                            x       y       z     vdW  Elec       q    Type
REMARK                         _______ _______ _______ _____ _____    ______ ____
ROOT
ATOM      1  C   UNL     1      36.858 -21.939 -18.185  0.00  0.00    +0.061 C 
ENDROOT
BRANCH   1   3
ATOM      2  N   UNL     1      35.706 -20.546 -19.797  0.00  0.00    -0.415 NA
ATOM      3  C   UNL     1      35.591 -21.540 -18.897  0.00  0.00    +0.108 C 
ATOM      4  C   UNL     1      34.421 -22.200 -18.589  0.00  0.00    +0.023 C 
ATOM      5  C   UNL     1      34.566 -20.192 -20.431  0.00  0.00    +0.091 C 
ATOM      6  C   UNL     1      33.269 -21.807 -19.263  0.00  0.00    -0.017 C 
ATOM      7  C   UNL     1      33.335 -20.786 -20.203  0.00  0.00    +0.080 C 
ATOM      8  C   UNL     1      34.675 -19.092 -21.433  0.00  0.00    +0.062 C 
ENDBRANCH   1   3
BRANCH   1   9
ATOM      9  C   UNL     1      36.790 -21.622 -16.688  0.00  0.00    +0.032 C 
BRANCH   9  10
ATOM     10  C   UNL     1      37.123 -22.855 -15.850  0.00  0.00    +0.125 C 
BRANCH  10  12
ATOM     11  O   UNL     1      36.399 -25.658 -15.561  0.00  0.00    -0.263 OA
ATOM     12  N   UNL     1      35.907 -23.417 -15.272  0.00  0.00    -0.165 N 
ATOM     13  C   UNL     1      35.670 -24.746 -15.187  0.00  0.00    +0.327 C 
BRANCH  12  14
ATOM     14  O   UNL     1      35.013 -22.448 -14.816  0.00  0.00    -0.291 OA
ATOM     15  H   UNL     1      34.987 -21.711 -15.446  0.00  0.00    +0.242 HD
ENDBRANCH  12  14
ENDBRANCH  10  12
ENDBRANCH   9  10
ENDBRANCH   1   9
TORSDOF 5
ENDMDL
MODEL 8
REMARK VINA RESULT:      -6.7      3.211      4.697
REMARK  Name = 5289331
REMARK  5 active torsions:
REMARK  status: ('A' for Active; 'I' for Inactive)
REMARK    1  A    between atoms: C_1  and  C_3
REMARK    2  A    between atoms: C_1  and  C_9
REMARK    3  A    between atoms: C_9  and  C_10
REMARK    4  A    between atoms: C_10  and  N_12
REMARK    5  A    between atoms: N_12  and  O_14
REMARK                            x       y       z     vdW  Elec       q    Type
REMARK                         _______ _______ _______ _____ _____    ______ ____
ROOT
ATOM      1  C   UNL     1      34.655 -15.877 -20.683  0.00  0.00    +0.061 C 
ENDROOT
BRANCH   1   3
ATOM      2  N   UNL     1      34.680 -16.657 -22.975  0.00  0.00    -0.415 NA
ATOM      3  C   UNL     1      34.738 -17.007 -21.677  0.00  0.00    +0.108 C 
ATOM      4  C   UNL     1      34.864 -18.296 -21.207  0.00  0.00    +0.023 C 
ATOM      5  C   UNL     1      34.754 -17.676 -23.862  0.00  0.00    +0.091 C 
ATOM      6  C   UNL     1      34.936 -19.316 -22.149  0.00  0.00    -0.017 C 
ATOM      7  C   UNL     1      34.882 -19.008 -23.504  0.00  0.00    +0.080 C 
ATOM      8  C   UNL     1      34.692 -17.308 -25.306  0.00  0.00    +0.062 C 
ENDBRANCH   1   3
BRANCH   1   9
ATOM      9  C   UNL     1      34.088 -14.604 -21.319  0.00  0.00    +0.032 C 
BRANCH   9  10
ATOM     10  C   UNL     1      32.711 -14.270 -20.746  0.00  0.00    +0.125 C 
BRANCH  10  12
ATOM     11  O   UNL     1      31.687 -11.758 -19.698  0.00  0.00    -0.263 OA
ATOM     12  N   UNL     1      32.111 -13.164 -21.484  0.00  0.00    -0.165 N 
ATOM     13  C   UNL     1      31.665 -12.033 -20.893  0.00  0.00    +0.327 C 
BRANCH  12  14
ATOM     14  O   UNL     1      32.045 -13.389 -22.859  0.00  0.00    -0.291 OA
ATOM     15  H   UNL     1      31.614 -14.242 -23.026  0.00  0.00    +0.242 HD
ENDBRANCH  12  14
ENDBRANCH  10  12
ENDBRANCH   9  10
ENDBRANCH   1   9
TORSDOF 5
ENDMDL
MODEL 9
REMARK VINA RESULT:      -6.7      3.336      6.267
REMARK  Name = 5289331
REMARK  5 active torsions:
REMARK  status: ('A' for Active; 'I' for Inactive)
REMARK    1  A    between atoms: C_1  and  C_3
REMARK    2  A    between atoms: C_1  and  C_9
REMARK    3  A    between atoms: C_9  and  C_10
REMARK    4  A    between atoms: C_10  and  N_12
REMARK    5  A    between atoms: N_12  and  O_14
REMARK                            x       y       z     vdW  Elec       q    Type
REMARK                         _______ _______ _______ _____ _____    ______ ____
ROOT
ATOM      1  C   UNL     1      35.339 -16.945 -22.429  0.00  0.00    +0.061 C 
ENDROOT
BRANCH   1   3
ATOM      2  N   UNL     1      34.449 -14.816 -23.163  0.00  0.00    -0.415 NA
ATOM      3  C   UNL     1      34.398 -15.785 -22.230  0.00  0.00    +0.108 C 
ATOM      4  C   UNL     1      33.565 -15.787 -21.132  0.00  0.00    +0.023 C 
ATOM      5  C   UNL     1      33.604 -13.778 -22.978  0.00  0.00    +0.091 C 
ATOM      6  C   UNL     1      32.710 -14.701 -20.977  0.00  0.00    -0.017 C 
ATOM      7  C   UNL     1      32.723 -13.674 -21.913  0.00  0.00    +0.080 C 
ATOM      8  C   UNL     1      33.646 -12.694 -24.003  0.00  0.00    +0.062 C 
ENDBRANCH   1   3
BRANCH   1   9
ATOM      9  C   UNL     1      35.336 -17.889 -21.223  0.00  0.00    +0.032 C 
BRANCH   9  10
ATOM     10  C   UNL     1      35.027 -19.324 -21.649  0.00  0.00    +0.125 C 
BRANCH  10  12
ATOM     11  O   UNL     1      32.508 -20.477 -20.763  0.00  0.00    -0.263 OA
ATOM     12  N   UNL     1      34.780 -20.158 -20.477  0.00  0.00    -0.165 N 
ATOM     13  C   UNL     1      33.560 -20.644 -20.156  0.00  0.00    +0.327 C 
BRANCH  12  14
ATOM     14  O   UNL     1      35.927 -20.403 -19.722  0.00  0.00    -0.291 OA
ATOM     15  H   UNL     1      36.347 -21.221 -20.030  0.00  0.00    +0.242 HD
ENDBRANCH  12  14
ENDBRANCH  10  12
ENDBRANCH   9  10
ENDBRANCH   1   9
TORSDOF 5
ENDMDL
