MODEL 1
REMARK VINA RESULT:      -9.6      0.000      0.000
REMARK  Name = 3055
REMARK  7 active torsions:
REMARK  status: ('A' for Active; 'I' for Inactive)
REMARK    1  A    between atoms: C_1  and  C_2
REMARK    2  A    between atoms: C_1  and  C_8
REMARK    3  A    between atoms: C_1  and  O_14
REMARK    4  A    between atoms: C_1  and  C_16
REMARK    5  A    between atoms: C_16  and  C_17
REMARK    6  A    between atoms: C_17  and  C_18
REMARK    7  A    between atoms: C_18  and  N_19
REMARK                            x       y       z     vdW  Elec       q    Type
REMARK                         _______ _______ _______ _____ _____    ______ ____
ROOT
ATOM      1  C   UNL     1      34.989 -18.605 -21.743  0.00  0.00    +0.126 C 
ENDROOT
BRANCH   1   2
ATOM      2  C   UNL     1      34.674 -19.793 -20.821  0.00  0.00    +0.006 C 
ATOM      3  C   UNL     1      33.357 -20.109 -20.590  0.00  0.00    -0.002 C 
ATOM      4  C   UNL     1      35.722 -20.486 -20.269  0.00  0.00    -0.002 C 
ATOM      5  C   UNL     1      33.072 -21.187 -19.754  0.00  0.00    -0.000 C 
ATOM      6  C   UNL     1      35.436 -21.563 -19.431  0.00  0.00    -0.000 C 
ATOM      7  C   UNL     1      34.111 -21.915 -19.174  0.00  0.00    -0.000 C 
ENDBRANCH   1   2
BRANCH   1   8
ATOM      8  C   UNL     1      34.284 -17.339 -21.234  0.00  0.00    +0.006 C 
ATOM      9  C   UNL     1      32.914 -17.287 -21.291  0.00  0.00    -0.002 C 
ATOM     10  C   UNL     1      35.056 -16.315 -20.745  0.00  0.00    -0.002 C 
ATOM     11  C   UNL     1      32.274 -16.137 -20.828  0.00  0.00    -0.000 C 
ATOM     12  C   UNL     1      34.416 -15.164 -20.282  0.00  0.00    -0.000 C 
ATOM     13  C   UNL     1      33.025 -15.075 -20.323  0.00  0.00    -0.000 C 
ENDBRANCH   1   8
BRANCH   1  14
ATOM     14  O   UNL     1      36.418 -18.427 -21.705  0.00  0.00    -0.379 OA
ATOM     15  H   UNL     1      36.833 -19.221 -21.335  0.00  0.00    +0.211 HD
ENDBRANCH   1  14
BRANCH   1  16
ATOM     16  C   UNL     1      34.650 -18.854 -23.245  0.00  0.00    +0.033 C 
BRANCH  16  17
ATOM     17  C   UNL     1      35.195 -17.781 -24.206  0.00  0.00    -0.020 C 
BRANCH  17  18
ATOM     18  C   UNL     1      34.139 -17.385 -25.239  0.00  0.00    -0.077 C 
BRANCH  18  19
ATOM     19  N   UNL     1      33.598 -16.062 -24.932  0.00  0.00    +0.387 N 
ATOM     20  C   UNL     1      34.528 -15.313 -24.074  0.00  0.00    -0.077 C 
ATOM     21  C   UNL     1      33.309 -15.325 -26.170  0.00  0.00    -0.077 C 
ATOM     22  C   UNL     1      33.955 -13.944 -23.703  0.00  0.00    -0.023 C 
ATOM     23  C   UNL     1      32.696 -13.957 -25.868  0.00  0.00    -0.023 C 
ATOM     24  C   UNL     1      33.594 -13.139 -24.945  0.00  0.00    -0.004 C 
ATOM     25  H   UNL     1      32.723 -16.177 -24.423  0.00  0.00    -0.080 HD
ENDBRANCH  18  19
ENDBRANCH  17  18
ENDBRANCH  16  17
ENDBRANCH   1  16
TORSDOF 7
ENDMDL
MODEL 2
REMARK VINA RESULT:      -8.7      1.599      4.598
REMARK  Name = 3055
REMARK  7 active torsions:
REMARK  status: ('A' for Active; 'I' for Inactive)
REMARK    1  A    between atoms: C_1  and  C_2
REMARK    2  A    between atoms: C_1  and  C_8
REMARK    3  A    between atoms: C_1  and  O_14
REMARK    4  A    between atoms: C_1  and  C_16
REMARK    5  A    between atoms: C_16  and  C_17
REMARK    6  A    between atoms: C_17  and  C_18
REMARK    7  A    between atoms: C_18  and  N_19
REMARK                            x       y       z     vdW  Elec       q    Type
REMARK                         _______ _______ _______ _____ _____    ______ ____
ROOT
ATOM      1  C   UNL     1      34.555 -18.047 -21.285  0.00  0.00    +0.126 C 
ENDROOT
BRANCH   1   2
ATOM      2  C   UNL     1      34.621 -18.135 -22.818  0.00  0.00    +0.006 C 
ATOM      3  C   UNL     1      34.625 -19.378 -23.402  0.00  0.00    -0.002 C 
ATOM      4  C   UNL     1      34.672 -16.966 -23.536  0.00  0.00    -0.002 C 
ATOM      5  C   UNL     1      34.684 -19.456 -24.792  0.00  0.00    -0.000 C 
ATOM      6  C   UNL     1      34.732 -17.045 -24.927  0.00  0.00    -0.000 C 
ATOM      7  C   UNL     1      34.738 -18.290 -25.555  0.00  0.00    -0.000 C 
ENDBRANCH   1   2
BRANCH   1   8
ATOM      8  C   UNL     1      34.387 -19.450 -20.682  0.00  0.00    +0.006 C 
ATOM      9  C   UNL     1      35.515 -20.173 -20.386  0.00  0.00    -0.002 C 
ATOM     10  C   UNL     1      33.114 -19.918 -20.466  0.00  0.00    -0.002 C 
ATOM     11  C   UNL     1      35.361 -21.448 -19.839  0.00  0.00    -0.000 C 
ATOM     12  C   UNL     1      32.960 -21.192 -19.918  0.00  0.00    -0.000 C 
ATOM     13  C   UNL     1      34.084 -21.957 -19.604  0.00  0.00    -0.000 C 
ENDBRANCH   1   8
BRANCH   1  14
ATOM     14  O   UNL     1      35.802 -17.469 -20.856  0.00  0.00    -0.379 OA
ATOM     15  H   UNL     1      36.444 -17.509 -21.582  0.00  0.00    +0.211 HD
ENDBRANCH   1  14
BRANCH   1  16
ATOM     16  C   UNL     1      33.453 -17.084 -20.747  0.00  0.00    +0.033 C 
BRANCH  16  17
ATOM     17  C   UNL     1      33.872 -15.602 -20.702  0.00  0.00    -0.020 C 
BRANCH  17  18
ATOM     18  C   UNL     1      32.662 -14.698 -20.464  0.00  0.00    -0.077 C 
BRANCH  18  19
ATOM     19  N   UNL     1      32.441 -13.830 -21.619  0.00  0.00    +0.387 N 
ATOM     20  C   UNL     1      32.029 -12.488 -21.182  0.00  0.00    -0.077 C 
ATOM     21  C   UNL     1      33.648 -13.768 -22.455  0.00  0.00    -0.077 C 
ATOM     22  C   UNL     1      31.746 -11.580 -22.380  0.00  0.00    -0.023 C 
ATOM     23  C   UNL     1      33.419 -12.903 -23.695  0.00  0.00    -0.023 C 
ATOM     24  C   UNL     1      32.949 -11.503 -23.313  0.00  0.00    -0.004 C 
ATOM     25  H   UNL     1      31.688 -14.222 -22.184  0.00  0.00    -0.080 HD
ENDBRANCH  18  19
ENDBRANCH  17  18
ENDBRANCH  16  17
ENDBRANCH   1  16
TORSDOF 7
ENDMDL
MODEL 3
REMARK VINA RESULT:      -8.7      2.455      7.121
REMARK  Name = 3055
REMARK  7 active torsions:
REMARK  status: ('A' for Active; 'I' for Inactive)
REMARK    1  A    between atoms: C_1  and  C_2
REMARK    2  A    between atoms: C_1  and  C_8
REMARK    3  A    between atoms: C_1  and  O_14
REMARK    4  A    between atoms: C_1  and  C_16
REMARK    5  A    between atoms: C_16  and  C_17
REMARK    6  A    between atoms: C_17  and  C_18
REMARK    7  A    between atoms: C_18  and  N_19
REMARK                            x       y       z     vdW  Elec       q    Type
REMARK                         _______ _______ _______ _____ _____    ______ ____
ROOT
ATOM      1  C   UNL     1      33.462 -13.882 -22.698  0.00  0.00    +0.126 C 
ENDROOT
BRANCH   1   2
ATOM      2  C   UNL     1      32.557 -12.893 -21.946  0.00  0.00    +0.006 C 
ATOM      3  C   UNL     1      31.862 -11.960 -22.676  0.00  0.00    -0.002 C 
ATOM      4  C   UNL     1      32.485 -12.986 -20.579  0.00  0.00    -0.002 C 
ATOM      5  C   UNL     1      31.041 -11.063 -21.993  0.00  0.00    -0.000 C 
ATOM      6  C   UNL     1      31.665 -12.088 -19.897  0.00  0.00    -0.000 C 
ATOM      7  C   UNL     1      30.943 -11.126 -20.604  0.00  0.00    -0.000 C 
ENDBRANCH   1   2
BRANCH   1   8
ATOM      8  C   UNL     1      33.412 -13.602 -24.207  0.00  0.00    +0.006 C 
ATOM      9  C   UNL     1      33.833 -12.376 -24.658  0.00  0.00    -0.002 C 
ATOM     10  C   UNL     1      32.949 -14.591 -25.039  0.00  0.00    -0.002 C 
ATOM     11  C   UNL     1      33.787 -12.122 -26.029  0.00  0.00    -0.000 C 
ATOM     12  C   UNL     1      32.904 -14.337 -26.411  0.00  0.00    -0.000 C 
ATOM     13  C   UNL     1      33.324 -13.102 -26.906  0.00  0.00    -0.000 C 
ENDBRANCH   1   8
BRANCH   1  14
ATOM     14  O   UNL     1      34.796 -13.675 -22.199  0.00  0.00    -0.379 OA
ATOM     15  H   UNL     1      35.389 -13.464 -22.937  0.00  0.00    +0.211 HD
ENDBRANCH   1  14
BRANCH   1  16
ATOM     16  C   UNL     1      33.147 -15.382 -22.409  0.00  0.00    +0.033 C 
BRANCH  16  17
ATOM     17  C   UNL     1      34.136 -16.064 -21.445  0.00  0.00    -0.020 C 
BRANCH  17  18
ATOM     18  C   UNL     1      34.777 -17.290 -22.096  0.00  0.00    -0.077 C 
BRANCH  18  19
ATOM     19  N   UNL     1      35.005 -18.334 -21.099  0.00  0.00    +0.387 N 
ATOM     20  C   UNL     1      34.013 -19.410 -21.245  0.00  0.00    -0.077 C 
ATOM     21  C   UNL     1      36.374 -18.858 -21.206  0.00  0.00    -0.077 C 
ATOM     22  C   UNL     1      34.207 -20.488 -20.178  0.00  0.00    -0.023 C 
ATOM     23  C   UNL     1      36.646 -19.918 -20.138  0.00  0.00    -0.023 C 
ATOM     24  C   UNL     1      35.624 -21.048 -20.207  0.00  0.00    -0.004 C 
ATOM     25  H   UNL     1      34.896 -17.930 -20.170  0.00  0.00    -0.080 HD
ENDBRANCH  18  19
ENDBRANCH  17  18
ENDBRANCH  16  17
ENDBRANCH   1  16
TORSDOF 7
ENDMDL
MODEL 4
REMARK VINA RESULT:      -8.7      7.016     10.624
REMARK  Name = 3055
REMARK  7 active torsions:
REMARK  status: ('A' for Active; 'I' for Inactive)
REMARK    1  A    between atoms: C_1  and  C_2
REMARK    2  A    between atoms: C_1  and  C_8
REMARK    3  A    between atoms: C_1  and  O_14
REMARK    4  A    between atoms: C_1  and  C_16
REMARK    5  A    between atoms: C_16  and  C_17
REMARK    6  A    between atoms: C_17  and  C_18
REMARK    7  A    between atoms: C_18  and  N_19
REMARK                            x       y       z     vdW  Elec       q    Type
REMARK                         _______ _______ _______ _____ _____    ______ ____
ROOT
ATOM      1  C   UNL     1      34.942 -23.559 -15.295  0.00  0.00    +0.126 C 
ENDROOT
BRANCH   1   2
ATOM      2  C   UNL     1      35.185 -22.888 -16.656  0.00  0.00    +0.006 C 
ATOM      3  C   UNL     1      34.180 -22.926 -17.592  0.00  0.00    -0.002 C 
ATOM      4  C   UNL     1      36.395 -22.280 -16.876  0.00  0.00    -0.002 C 
ATOM      5  C   UNL     1      34.401 -22.317 -18.826  0.00  0.00    -0.000 C 
ATOM      6  C   UNL     1      36.616 -21.671 -18.111  0.00  0.00    -0.000 C 
ATOM      7  C   UNL     1      35.619 -21.689 -19.087  0.00  0.00    -0.000 C 
ENDBRANCH   1   2
BRANCH   1   8
ATOM      8  C   UNL     1      36.095 -24.518 -14.966  0.00  0.00    +0.006 C 
ATOM      9  C   UNL     1      36.021 -25.811 -15.421  0.00  0.00    -0.002 C 
ATOM     10  C   UNL     1      37.151 -24.040 -14.230  0.00  0.00    -0.002 C 
ATOM     11  C   UNL     1      37.069 -26.682 -15.121  0.00  0.00    -0.000 C 
ATOM     12  C   UNL     1      38.199 -24.910 -13.930  0.00  0.00    -0.000 C 
ATOM     13  C   UNL     1      38.159 -26.231 -14.377  0.00  0.00    -0.000 C 
ENDBRANCH   1   8
BRANCH   1  14
ATOM     14  O   UNL     1      34.884 -22.500 -14.322  0.00  0.00    -0.379 OA
ATOM     15  H   UNL     1      35.570 -21.843 -14.517  0.00  0.00    +0.211 HD
ENDBRANCH   1  14
BRANCH   1  16
ATOM     16  C   UNL     1      33.570 -24.293 -15.181  0.00  0.00    +0.033 C 
BRANCH  16  17
ATOM     17  C   UNL     1      32.599 -23.667 -14.163  0.00  0.00    -0.020 C 
BRANCH  17  18
ATOM     18  C   UNL     1      31.465 -24.635 -13.822  0.00  0.00    -0.077 C 
BRANCH  18  19
ATOM     19  N   UNL     1      30.221 -24.207 -14.460  0.00  0.00    +0.387 N 
ATOM     20  C   UNL     1      30.254 -22.762 -14.732  0.00  0.00    -0.077 C 
ATOM     21  C   UNL     1      29.984 -24.973 -15.691  0.00  0.00    -0.077 C 
ATOM     22  C   UNL     1      28.941 -22.288 -15.356  0.00  0.00    -0.023 C 
ATOM     23  C   UNL     1      28.662 -24.572 -16.346  0.00  0.00    -0.023 C 
ATOM     24  C   UNL     1      28.612 -23.072 -16.620  0.00  0.00    -0.004 C 
ATOM     25  H   UNL     1      29.447 -24.389 -13.823  0.00  0.00    -0.080 HD
ENDBRANCH  18  19
ENDBRANCH  17  18
ENDBRANCH  16  17
ENDBRANCH   1  16
TORSDOF 7
ENDMDL
MODEL 5
REMARK VINA RESULT:      -8.6      2.569      6.952
REMARK  Name = 3055
REMARK  7 active torsions:
REMARK  status: ('A' for Active; 'I' for Inactive)
REMARK    1  A    between atoms: C_1  and  C_2
REMARK    2  A    between atoms: C_1  and  C_8
REMARK    3  A    between atoms: C_1  and  O_14
REMARK    4  A    between atoms: C_1  and  C_16
REMARK    5  A    between atoms: C_16  and  C_17
REMARK    6  A    between atoms: C_17  and  C_18
REMARK    7  A    between atoms: C_18  and  N_19
REMARK                            x       y       z     vdW  Elec       q    Type
REMARK                         _______ _______ _______ _____ _____    ______ ____
ROOT
ATOM      1  C   UNL     1      33.087 -13.911 -22.474  0.00  0.00    +0.126 C 
ENDROOT
BRANCH   1   2
ATOM      2  C   UNL     1      33.257 -13.520 -23.950  0.00  0.00    +0.006 C 
ATOM      3  C   UNL     1      32.833 -14.403 -24.913  0.00  0.00    -0.002 C 
ATOM      4  C   UNL     1      33.826 -12.305 -24.240  0.00  0.00    -0.002 C 
ATOM      5  C   UNL     1      32.988 -14.047 -26.252  0.00  0.00    -0.000 C 
ATOM      6  C   UNL     1      33.982 -11.950 -25.580  0.00  0.00    -0.000 C 
ATOM      7  C   UNL     1      33.562 -12.820 -26.586  0.00  0.00    -0.000 C 
ENDBRANCH   1   2
BRANCH   1   8
ATOM      8  C   UNL     1      32.348 -12.800 -21.714  0.00  0.00    +0.006 C 
ATOM      9  C   UNL     1      32.384 -12.811 -20.342  0.00  0.00    -0.002 C 
ATOM     10  C   UNL     1      31.684 -11.844 -22.441  0.00  0.00    -0.002 C 
ATOM     11  C   UNL     1      31.712 -11.802 -19.652  0.00  0.00    -0.000 C 
ATOM     12  C   UNL     1      31.012 -10.834 -21.752  0.00  0.00    -0.000 C 
ATOM     13  C   UNL     1      31.026 -10.812 -20.357  0.00  0.00    -0.000 C 
ENDBRANCH   1   8
BRANCH   1  14
ATOM     14  O   UNL     1      32.310 -15.123 -22.460  0.00  0.00    -0.379 OA
ATOM     15  H   UNL     1      31.483 -14.973 -21.975  0.00  0.00    +0.211 HD
ENDBRANCH   1  14
BRANCH   1  16
ATOM     16  C   UNL     1      34.421 -14.274 -21.752  0.00  0.00    +0.033 C 
BRANCH  16  17
ATOM     17  C   UNL     1      34.383 -15.607 -20.981  0.00  0.00    -0.020 C 
BRANCH  17  18
ATOM     18  C   UNL     1      35.021 -16.731 -21.799  0.00  0.00    -0.077 C 
BRANCH  18  19
ATOM     19  N   UNL     1      35.137 -17.945 -20.993  0.00  0.00    +0.387 N 
ATOM     20  C   UNL     1      34.001 -18.843 -21.249  0.00  0.00    -0.077 C 
ATOM     21  C   UNL     1      36.416 -18.619 -21.258  0.00  0.00    -0.077 C 
ATOM     22  C   UNL     1      34.081 -20.096 -20.377  0.00  0.00    -0.023 C 
ATOM     23  C   UNL     1      36.575 -19.865 -20.386  0.00  0.00    -0.023 C 
ATOM     24  C   UNL     1      35.405 -20.825 -20.573  0.00  0.00    -0.004 C 
ATOM     25  H   UNL     1      35.117 -17.686 -20.007  0.00  0.00    -0.080 HD
ENDBRANCH  18  19
ENDBRANCH  17  18
ENDBRANCH  16  17
ENDBRANCH   1  16
TORSDOF 7
ENDMDL
MODEL 6
REMARK VINA RESULT:      -8.6      1.035      3.873
REMARK  Name = 3055
REMARK  7 active torsions:
REMARK  status: ('A' for Active; 'I' for Inactive)
REMARK    1  A    between atoms: C_1  and  C_2
REMARK    2  A    between atoms: C_1  and  C_8
REMARK    3  A    between atoms: C_1  and  O_14
REMARK    4  A    between atoms: C_1  and  C_16
REMARK    5  A    between atoms: C_16  and  C_17
REMARK    6  A    between atoms: C_17  and  C_18
REMARK    7  A    between atoms: C_18  and  N_19
REMARK                            x       y       z     vdW  Elec       q    Type
REMARK                         _______ _______ _______ _____ _____    ______ ____
ROOT
ATOM      1  C   UNL     1      34.189 -19.117 -21.816  0.00  0.00    +0.126 C 
ENDROOT
BRANCH   1   2
ATOM      2  C   UNL     1      33.942 -17.709 -21.250  0.00  0.00    +0.006 C 
ATOM      3  C   UNL     1      32.645 -17.275 -21.124  0.00  0.00    -0.002 C 
ATOM      4  C   UNL     1      35.028 -16.949 -20.897  0.00  0.00    -0.002 C 
ATOM      5  C   UNL     1      32.421 -15.999 -20.610  0.00  0.00    -0.000 C 
ATOM      6  C   UNL     1      34.804 -15.671 -20.385  0.00  0.00    -0.000 C 
ATOM      7  C   UNL     1      33.500 -15.196 -20.241  0.00  0.00    -0.000 C 
ENDBRANCH   1   2
BRANCH   1   8
ATOM      8  C   UNL     1      34.858 -20.003 -20.754  0.00  0.00    +0.006 C 
ATOM      9  C   UNL     1      36.221 -19.933 -20.610  0.00  0.00    -0.002 C 
ATOM     10  C   UNL     1      34.062 -20.825 -19.996  0.00  0.00    -0.002 C 
ATOM     11  C   UNL     1      36.828 -20.738 -19.646  0.00  0.00    -0.000 C 
ATOM     12  C   UNL     1      34.669 -21.631 -19.032  0.00  0.00    -0.000 C 
ATOM     13  C   UNL     1      36.053 -21.586 -18.856  0.00  0.00    -0.000 C 
ENDBRANCH   1   8
BRANCH   1  14
ATOM     14  O   UNL     1      32.898 -19.649 -22.165  0.00  0.00    -0.379 OA
ATOM     15  H   UNL     1      32.636 -19.318 -23.038  0.00  0.00    +0.211 HD
ENDBRANCH   1  14
BRANCH   1  16
ATOM     16  C   UNL     1      35.010 -19.137 -23.142  0.00  0.00    +0.033 C 
BRANCH  16  17
ATOM     17  C   UNL     1      34.245 -18.609 -24.370  0.00  0.00    -0.020 C 
BRANCH  17  18
ATOM     18  C   UNL     1      34.896 -17.338 -24.916  0.00  0.00    -0.077 C 
BRANCH  18  19
ATOM     19  N   UNL     1      34.021 -16.187 -24.706  0.00  0.00    +0.387 N 
ATOM     20  C   UNL     1      34.683 -15.185 -23.857  0.00  0.00    -0.077 C 
ATOM     21  C   UNL     1      33.616 -15.605 -25.994  0.00  0.00    -0.077 C 
ATOM     22  C   UNL     1      33.761 -13.995 -23.587  0.00  0.00    -0.023 C 
ATOM     23  C   UNL     1      32.660 -14.429 -25.794  0.00  0.00    -0.023 C 
ATOM     24  C   UNL     1      33.271 -13.367 -24.886  0.00  0.00    -0.004 C 
ATOM     25  H   UNL     1      33.178 -16.499 -24.225  0.00  0.00    -0.080 HD
ENDBRANCH  18  19
ENDBRANCH  17  18
ENDBRANCH  16  17
ENDBRANCH   1  16
TORSDOF 7
ENDMDL
MODEL 7
REMARK VINA RESULT:      -8.5      5.408      9.376
REMARK  Name = 3055
REMARK  7 active torsions:
REMARK  status: ('A' for Active; 'I' for Inactive)
REMARK    1  A    between atoms: C_1  and  C_2
REMARK    2  A    between atoms: C_1  and  C_8
REMARK    3  A    between atoms: C_1  and  O_14
REMARK    4  A    between atoms: C_1  and  C_16
REMARK    5  A    between atoms: C_16  and  C_17
REMARK    6  A    between atoms: C_17  and  C_18
REMARK    7  A    between atoms: C_18  and  N_19
REMARK                            x       y       z     vdW  Elec       q    Type
REMARK                         _______ _______ _______ _____ _____    ______ ____
ROOT
ATOM      1  C   UNL     1      33.233  -8.733 -23.332  0.00  0.00    +0.126 C 
ENDROOT
BRANCH   1   2
ATOM      2  C   UNL     1      32.628  -8.951 -21.936  0.00  0.00    +0.006 C 
ATOM      3  C   UNL     1      32.836  -7.990 -20.977  0.00  0.00    -0.002 C 
ATOM      4  C   UNL     1      31.908 -10.097 -21.710  0.00  0.00    -0.002 C 
ATOM      5  C   UNL     1      32.287  -8.188 -19.711  0.00  0.00    -0.000 C 
ATOM      6  C   UNL     1      31.359 -10.295 -20.443  0.00  0.00    -0.000 C 
ATOM      7  C   UNL     1      31.549  -9.340 -19.443  0.00  0.00    -0.000 C 
ENDBRANCH   1   2
BRANCH   1   8
ATOM      8  C   UNL     1      32.686  -7.437 -23.949  0.00  0.00    +0.006 C 
ATOM      9  C   UNL     1      33.557  -6.614 -24.619  0.00  0.00    -0.002 C 
ATOM     10  C   UNL     1      31.349  -7.160 -23.804  0.00  0.00    -0.002 C 
ATOM     11  C   UNL     1      33.059  -5.437 -25.179  0.00  0.00    -0.000 C 
ATOM     12  C   UNL     1      30.851  -5.983 -24.364  0.00  0.00    -0.000 C 
ATOM     13  C   UNL     1      31.706  -5.121 -25.053  0.00  0.00    -0.000 C 
ENDBRANCH   1   8
BRANCH   1  14
ATOM     14  O   UNL     1      34.658  -8.632 -23.148  0.00  0.00    -0.379 OA
ATOM     15  H   UNL     1      35.042  -9.521 -23.097  0.00  0.00    +0.211 HD
ENDBRANCH   1  14
BRANCH   1  16
ATOM     16  C   UNL     1      33.033  -9.932 -24.309  0.00  0.00    +0.033 C 
BRANCH  16  17
ATOM     17  C   UNL     1      34.192 -10.946 -24.316  0.00  0.00    -0.020 C 
BRANCH  17  18
ATOM     18  C   UNL     1      33.673 -12.370 -24.515  0.00  0.00    -0.077 C 
BRANCH  18  19
ATOM     19  N   UNL     1      33.698 -13.102 -23.251  0.00  0.00    +0.387 N 
ATOM     20  C   UNL     1      32.334 -13.278 -22.731  0.00  0.00    -0.077 C 
ATOM     21  C   UNL     1      34.372 -14.397 -23.419  0.00  0.00    -0.077 C 
ATOM     22  C   UNL     1      32.345 -14.000 -21.383  0.00  0.00    -0.023 C 
ATOM     23  C   UNL     1      34.451 -15.156 -22.094  0.00  0.00    -0.023 C 
ATOM     24  C   UNL     1      33.068 -15.339 -21.477  0.00  0.00    -0.004 C 
ATOM     25  H   UNL     1      34.227 -12.560 -22.568  0.00  0.00    -0.080 HD
ENDBRANCH  18  19
ENDBRANCH  17  18
ENDBRANCH  16  17
ENDBRANCH   1  16
TORSDOF 7
ENDMDL
MODEL 8
REMARK VINA RESULT:      -8.5      5.038      8.436
REMARK  Name = 3055
REMARK  7 active torsions:
REMARK  status: ('A' for Active; 'I' for Inactive)
REMARK    1  A    between atoms: C_1  and  C_2
REMARK    2  A    between atoms: C_1  and  C_8
REMARK    3  A    between atoms: C_1  and  O_14
REMARK    4  A    between atoms: C_1  and  C_16
REMARK    5  A    between atoms: C_16  and  C_17
REMARK    6  A    between atoms: C_17  and  C_18
REMARK    7  A    between atoms: C_18  and  N_19
REMARK                            x       y       z     vdW  Elec       q    Type
REMARK                         _______ _______ _______ _____ _____    ______ ____
ROOT
ATOM      1  C   UNL     1      34.927 -23.346 -15.430  0.00  0.00    +0.126 C 
ENDROOT
BRANCH   1   2
ATOM      2  C   UNL     1      35.914 -24.402 -14.909  0.00  0.00    +0.006 C 
ATOM      3  C   UNL     1      36.804 -24.037 -13.929  0.00  0.00    -0.002 C 
ATOM      4  C   UNL     1      35.863 -25.664 -15.447  0.00  0.00    -0.002 C 
ATOM      5  C   UNL     1      37.700 -24.996 -13.456  0.00  0.00    -0.000 C 
ATOM      6  C   UNL     1      36.759 -26.622 -14.975  0.00  0.00    -0.000 C 
ATOM      7  C   UNL     1      37.677 -26.289 -13.979  0.00  0.00    -0.000 C 
ENDBRANCH   1   2
BRANCH   1   8
ATOM      8  C   UNL     1      33.486 -23.764 -15.105  0.00  0.00    +0.006 C 
ATOM      9  C   UNL     1      33.254 -24.469 -13.950  0.00  0.00    -0.002 C 
ATOM     10  C   UNL     1      32.491 -23.415 -15.985  0.00  0.00    -0.002 C 
ATOM     11  C   UNL     1      31.944 -24.849 -13.655  0.00  0.00    -0.000 C 
ATOM     12  C   UNL     1      31.181 -23.795 -15.691  0.00  0.00    -0.000 C 
ATOM     13  C   UNL     1      30.907 -24.512 -14.525  0.00  0.00    -0.000 C 
ENDBRANCH   1   8
BRANCH   1  14
ATOM     14  O   UNL     1      35.251 -22.116 -14.754  0.00  0.00    -0.379 OA
ATOM     15  H   UNL     1      35.796 -22.309 -13.976  0.00  0.00    +0.211 HD
ENDBRANCH   1  14
BRANCH   1  16
ATOM     16  C   UNL     1      35.076 -23.028 -16.949  0.00  0.00    +0.033 C 
BRANCH  16  17
ATOM     17  C   UNL     1      36.110 -21.932 -17.270  0.00  0.00    -0.020 C 
BRANCH  17  18
ATOM     18  C   UNL     1      36.334 -21.815 -18.778  0.00  0.00    -0.077 C 
BRANCH  18  19
ATOM     19  N   UNL     1      35.451 -20.797 -19.345  0.00  0.00    +0.387 N 
ATOM     20  C   UNL     1      36.093 -20.145 -20.496  0.00  0.00    -0.077 C 
ATOM     21  C   UNL     1      34.160 -21.388 -19.723  0.00  0.00    -0.077 C 
ATOM     22  C   UNL     1      35.203 -19.042 -21.073  0.00  0.00    -0.023 C 
ATOM     23  C   UNL     1      33.206 -20.327 -20.274  0.00  0.00    -0.023 C 
ATOM     24  C   UNL     1      33.828 -19.580 -21.450  0.00  0.00    -0.004 C 
ATOM     25  H   UNL     1      35.276 -20.084 -18.638  0.00  0.00    -0.080 HD
ENDBRANCH  18  19
ENDBRANCH  17  18
ENDBRANCH  16  17
ENDBRANCH   1  16
TORSDOF 7
ENDMDL
MODEL 9
REMARK VINA RESULT:      -8.5      5.838      9.242
REMARK  Name = 3055
REMARK  7 active torsions:
REMARK  status: ('A' for Active; 'I' for Inactive)
REMARK    1  A    between atoms: C_1  and  C_2
REMARK    2  A    between atoms: C_1  and  C_8
REMARK    3  A    between atoms: C_1  and  O_14
REMARK    4  A    between atoms: C_1  and  C_16
REMARK    5  A    between atoms: C_16  and  C_17
REMARK    6  A    between atoms: C_17  and  C_18
REMARK    7  A    between atoms: C_18  and  N_19
REMARK                            x       y       z     vdW  Elec       q    Type
REMARK                         _______ _______ _______ _____ _____    ______ ____
ROOT
ATOM      1  C   UNL     1      33.014  -8.341 -22.708  0.00  0.00    +0.126 C 
ENDROOT
BRANCH   1   2
ATOM      2  C   UNL     1      32.278  -9.229 -21.691  0.00  0.00    +0.006 C 
ATOM      3  C   UNL     1      31.509 -10.263 -22.164  0.00  0.00    -0.002 C 
ATOM      4  C   UNL     1      32.422  -8.947 -20.355  0.00  0.00    -0.002 C 
ATOM      5  C   UNL     1      30.842 -11.069 -21.242  0.00  0.00    -0.000 C 
ATOM      6  C   UNL     1      31.754  -9.752 -19.433  0.00  0.00    -0.000 C 
ATOM      7  C   UNL     1      30.964 -10.813 -19.876  0.00  0.00    -0.000 C 
ENDBRANCH   1   2
BRANCH   1   8
ATOM      8  C   UNL     1      32.225  -7.045 -22.946  0.00  0.00    +0.006 C 
ATOM      9  C   UNL     1      31.542  -6.492 -21.890  0.00  0.00    -0.002 C 
ATOM     10  C   UNL     1      32.237  -6.496 -24.204  0.00  0.00    -0.002 C 
ATOM     11  C   UNL     1      30.826  -5.315 -22.107  0.00  0.00    -0.000 C 
ATOM     12  C   UNL     1      31.521  -5.318 -24.421  0.00  0.00    -0.000 C 
ATOM     13  C   UNL     1      30.816  -4.727 -23.372  0.00  0.00    -0.000 C 
ENDBRANCH   1   8
BRANCH   1  14
ATOM     14  O   UNL     1      34.299  -8.041 -22.132  0.00  0.00    -0.379 OA
ATOM     15  H   UNL     1      34.204  -7.327 -21.482  0.00  0.00    +0.211 HD
ENDBRANCH   1  14
BRANCH   1  16
ATOM     16  C   UNL     1      33.329  -9.047 -24.062  0.00  0.00    +0.033 C 
BRANCH  16  17
ATOM     17  C   UNL     1      34.623  -9.882 -24.056  0.00  0.00    -0.020 C 
BRANCH  17  18
ATOM     18  C   UNL     1      34.769 -10.674 -25.356  0.00  0.00    -0.077 C 
BRANCH  18  19
ATOM     19  N   UNL     1      33.794 -11.763 -25.400  0.00  0.00    +0.387 N 
ATOM     20  C   UNL     1      33.928 -12.522 -26.653  0.00  0.00    -0.077 C 
ATOM     21  C   UNL     1      33.948 -12.639 -24.231  0.00  0.00    -0.077 C 
ATOM     22  C   UNL     1      32.883 -13.635 -26.738  0.00  0.00    -0.023 C 
ATOM     23  C   UNL     1      32.904 -13.756 -24.236  0.00  0.00    -0.023 C 
ATOM     24  C   UNL     1      32.960 -14.561 -25.530  0.00  0.00    -0.004 C 
ATOM     25  H   UNL     1      32.857 -11.364 -25.373  0.00  0.00    -0.080 HD
ENDBRANCH  18  19
ENDBRANCH  17  18
ENDBRANCH  16  17
ENDBRANCH   1  16
TORSDOF 7
ENDMDL
