MODEL 1
REMARK VINA RESULT:      -5.9      0.000      0.000
REMARK  Name = 92105
REMARK  8 active torsions:
REMARK  status: ('A' for Active; 'I' for Inactive)
REMARK    1  A    between atoms: CA_1  and  N_2
REMARK    2  A    between atoms: CA_1  and  C_7
REMARK    3  A    between atoms: CA_1  and  C_10
REMARK    4  A    between atoms: C_7  and  O_8
REMARK    5  A    between atoms: C_10  and  C_13
REMARK    6  A    between atoms: N_11  and  C_14
REMARK    7  A    between atoms: N_12  and  C_13
REMARK    8  A    between atoms: C_13  and  C_14
REMARK                            x       y       z     vdW  Elec       q    Type
REMARK                         _______ _______ _______ _____ _____    ______ ____
ROOT
ATOM      1  CA  UNL     1      39.300 -25.097 -14.155  0.00  0.00    +0.037 C 
ENDROOT
BRANCH   1   2
ATOM      2  N   UNL     1      38.564 -24.556 -15.300  0.00  0.00    +0.389 N 
ATOM      3  H1  UNL     1      38.400 -23.559 -15.157  0.00  0.00    -0.088 HD
ATOM      4  H2  UNL     1      37.671 -25.039 -15.389  0.00  0.00    -0.088 HD
ATOM      5  H3  UNL     1      39.112 -24.692 -16.151  0.00  0.00    -0.088 HD
ENDBRANCH   1   2
BRANCH   1   7
ATOM      6  OXT UNL     1      41.173 -26.664 -14.068  0.00  0.00    -0.253 OA
ATOM      7  C   UNL     1      40.401 -25.973 -14.718  0.00  0.00    +0.293 C 
BRANCH   7   8
ATOM      8  O   UNL     1      40.409 -25.918 -16.075  0.00  0.00    -0.482 OA
ATOM      9  H   UNL     1      40.817 -25.198 -16.513  0.00  0.00    +0.295 HD
ENDBRANCH   7   8
ENDBRANCH   1   7
BRANCH   1  10
ATOM     10  C   UNL     1      38.345 -25.907 -13.266  0.00  0.00    +0.008 C 
BRANCH  10  11
ATOM     11  C   UNL     1      37.427 -25.028 -12.448  0.00  0.00    +0.087 C 
BRANCH  11  12
ATOM     12  N   UNL     1      37.960 -24.212 -11.511  0.00  0.00    -0.217 NA
ATOM     13  C   UNL     1      37.356 -23.066 -11.732  0.00  0.00    +0.107 C 
ENDBRANCH  11  12
BRANCH  11  14
ATOM     14  C   UNL     1      36.082 -24.957 -12.538  0.00  0.00    +0.086 C 
BRANCH  14  15
ATOM     15  N   UNL     1      35.826 -25.382 -13.811  0.00  0.00    -0.295 NA
ATOM     16  C   UNL     1      35.023 -24.698 -14.795  0.00  0.00    +0.086 C 
ATOM     17  H   UNL     1      35.268 -26.059 -14.258  0.00  0.00    +0.123 HD
ENDBRANCH  14  15
ENDBRANCH  11  14
ENDBRANCH  10  11
ENDBRANCH   1  10
TORSDOF 8
ENDMDL
MODEL 2
REMARK VINA RESULT:      -5.6      1.689      2.251
REMARK  Name = 92105
REMARK  8 active torsions:
REMARK  status: ('A' for Active; 'I' for Inactive)
REMARK    1  A    between atoms: CA_1  and  N_2
REMARK    2  A    between atoms: CA_1  and  C_7
REMARK    3  A    between atoms: CA_1  and  C_10
REMARK    4  A    between atoms: C_7  and  O_8
REMARK    5  A    between atoms: C_10  and  C_13
REMARK    6  A    between atoms: N_11  and  C_14
REMARK    7  A    between atoms: N_12  and  C_13
REMARK    8  A    between atoms: C_13  and  C_14
REMARK                            x       y       z     vdW  Elec       q    Type
REMARK                         _______ _______ _______ _____ _____    ______ ____
ROOT
ATOM      1  CA  UNL     1      38.888 -26.211 -14.313  0.00  0.00    +0.037 C 
ENDROOT
BRANCH   1   2
ATOM      2  N   UNL     1      38.728 -25.771 -12.926  0.00  0.00    +0.389 N 
ATOM      3  H1  UNL     1      37.817 -25.325 -12.814  0.00  0.00    -0.088 HD
ATOM      4  H2  UNL     1      39.464 -25.105 -12.694  0.00  0.00    -0.088 HD
ATOM      5  H3  UNL     1      38.790 -26.578 -12.304  0.00  0.00    -0.088 HD
ENDBRANCH   1   2
BRANCH   1   7
ATOM      6  OXT UNL     1      40.854 -24.763 -14.226  0.00  0.00    -0.253 OA
ATOM      7  C   UNL     1      40.133 -25.533 -14.847  0.00  0.00    +0.293 C 
BRANCH   7   8
ATOM      8  O   UNL     1      40.376 -25.918 -16.126  0.00  0.00    -0.482 OA
ATOM      9  H   UNL     1      39.670 -25.981 -16.739  0.00  0.00    +0.295 HD
ENDBRANCH   7   8
ENDBRANCH   1   7
BRANCH   1  10
ATOM     10  C   UNL     1      37.647 -25.813 -15.125  0.00  0.00    +0.008 C 
BRANCH  10  11
ATOM     11  C   UNL     1      36.954 -24.591 -14.567  0.00  0.00    +0.087 C 
BRANCH  11  12
ATOM     12  N   UNL     1      37.640 -23.430 -14.477  0.00  0.00    -0.217 NA
ATOM     13  C   UNL     1      37.513 -22.911 -15.678  0.00  0.00    +0.107 C 
ENDBRANCH  11  12
BRANCH  11  14
ATOM     14  C   UNL     1      35.681 -24.514 -14.124  0.00  0.00    +0.086 C 
BRANCH  14  15
ATOM     15  N   UNL     1      35.727 -25.145 -12.913  0.00  0.00    -0.295 NA
ATOM     16  C   UNL     1      35.613 -24.518 -11.619  0.00  0.00    +0.086 C 
ATOM     17  H   UNL     1      36.404 -25.555 -12.327  0.00  0.00    +0.123 HD
ENDBRANCH  14  15
ENDBRANCH  11  14
ENDBRANCH  10  11
ENDBRANCH   1  10
TORSDOF 8
ENDMDL
MODEL 3
REMARK VINA RESULT:      -5.5      3.201      4.738
REMARK  Name = 92105
REMARK  8 active torsions:
REMARK  status: ('A' for Active; 'I' for Inactive)
REMARK    1  A    between atoms: CA_1  and  N_2
REMARK    2  A    between atoms: CA_1  and  C_7
REMARK    3  A    between atoms: CA_1  and  C_10
REMARK    4  A    between atoms: C_7  and  O_8
REMARK    5  A    between atoms: C_10  and  C_13
REMARK    6  A    between atoms: N_11  and  C_14
REMARK    7  A    between atoms: N_12  and  C_13
REMARK    8  A    between atoms: C_13  and  C_14
REMARK                            x       y       z     vdW  Elec       q    Type
REMARK                         _______ _______ _______ _____ _____    ______ ____
ROOT
ATOM      1  CA  UNL     1      36.658 -23.576 -11.767  0.00  0.00    +0.037 C 
ENDROOT
BRANCH   1   2
ATOM      2  N   UNL     1      37.926 -24.289 -11.596  0.00  0.00    +0.389 N 
ATOM      3  H1  UNL     1      37.796 -25.272 -11.833  0.00  0.00    -0.088 HD
ATOM      4  H2  UNL     1      38.231 -24.210 -10.626  0.00  0.00    -0.088 HD
ATOM      5  H3  UNL     1      38.631 -23.880 -12.209  0.00  0.00    -0.088 HD
ENDBRANCH   1   2
BRANCH   1   7
ATOM      6  OXT UNL     1      35.499 -24.473  -9.813  0.00  0.00    -0.253 OA
ATOM      7  C   UNL     1      35.604 -24.373 -11.028  0.00  0.00    +0.293 C 
BRANCH   7   8
ATOM      8  O   UNL     1      34.746 -24.958 -11.903  0.00  0.00    -0.482 OA
ATOM      9  H   UNL     1      34.244 -24.430 -12.492  0.00  0.00    +0.295 HD
ENDBRANCH   7   8
ENDBRANCH   1   7
BRANCH   1  10
ATOM     10  C   UNL     1      36.327 -23.468 -13.263  0.00  0.00    +0.008 C 
BRANCH  10  11
ATOM     11  C   UNL     1      37.122 -24.440 -14.106  0.00  0.00    +0.087 C 
BRANCH  11  12
ATOM     12  N   UNL     1      36.882 -25.765 -13.984  0.00  0.00    -0.217 NA
ATOM     13  C   UNL     1      36.171 -26.041 -15.054  0.00  0.00    +0.107 C 
ENDBRANCH  11  12
BRANCH  11  14
ATOM     14  C   UNL     1      38.086 -24.135 -15.000  0.00  0.00    +0.086 C 
BRANCH  14  15
ATOM     15  N   UNL     1      39.239 -24.485 -14.356  0.00  0.00    -0.295 NA
ATOM     16  C   UNL     1      40.256 -25.380 -14.851  0.00  0.00    +0.086 C 
ATOM     17  H   UNL     1      39.512 -25.064 -13.608  0.00  0.00    +0.123 HD
ENDBRANCH  14  15
ENDBRANCH  11  14
ENDBRANCH  10  11
ENDBRANCH   1  10
TORSDOF 8
ENDMDL
MODEL 4
REMARK VINA RESULT:      -5.5      3.082      4.217
REMARK  Name = 92105
REMARK  8 active torsions:
REMARK  status: ('A' for Active; 'I' for Inactive)
REMARK    1  A    between atoms: CA_1  and  N_2
REMARK    2  A    between atoms: CA_1  and  C_7
REMARK    3  A    between atoms: CA_1  and  C_10
REMARK    4  A    between atoms: C_7  and  O_8
REMARK    5  A    between atoms: C_10  and  C_13
REMARK    6  A    between atoms: N_11  and  C_14
REMARK    7  A    between atoms: N_12  and  C_13
REMARK    8  A    between atoms: C_13  and  C_14
REMARK                            x       y       z     vdW  Elec       q    Type
REMARK                         _______ _______ _______ _____ _____    ______ ____
ROOT
ATOM      1  CA  UNL     1      36.956 -24.067 -12.089  0.00  0.00    +0.037 C 
ENDROOT
BRANCH   1   2
ATOM      2  N   UNL     1      37.686 -22.930 -11.524  0.00  0.00    +0.389 N 
ATOM      3  H1  UNL     1      37.021 -22.231 -11.193  0.00  0.00    -0.088 HD
ATOM      4  H2  UNL     1      38.283 -22.520 -12.241  0.00  0.00    -0.088 HD
ATOM      5  H3  UNL     1      38.261 -23.249 -10.743  0.00  0.00    -0.088 HD
ENDBRANCH   1   2
BRANCH   1   7
ATOM      6  OXT UNL     1      35.960 -24.291  -9.869  0.00  0.00    -0.253 OA
ATOM      7  C   UNL     1      35.892 -24.448 -11.080  0.00  0.00    +0.293 C 
BRANCH   7   8
ATOM      8  O   UNL     1      34.808 -24.974 -11.706  0.00  0.00    -0.482 OA
ATOM      9  H   UNL     1      34.050 -24.444 -11.857  0.00  0.00    +0.295 HD
ENDBRANCH   7   8
ENDBRANCH   1   7
BRANCH   1  10
ATOM     10  C   UNL     1      37.928 -25.229 -12.337  0.00  0.00    +0.008 C 
BRANCH  10  11
ATOM     11  C   UNL     1      38.179 -25.474 -13.808  0.00  0.00    +0.087 C 
BRANCH  11  12
ATOM     12  N   UNL     1      39.137 -24.759 -14.439  0.00  0.00    -0.217 NA
ATOM     13  C   UNL     1      40.220 -25.483 -14.260  0.00  0.00    +0.107 C 
ENDBRANCH  11  12
BRANCH  11  14
ATOM     14  C   UNL     1      37.533 -26.352 -14.604  0.00  0.00    +0.086 C 
BRANCH  14  15
ATOM     15  N   UNL     1      36.803 -25.550 -15.435  0.00  0.00    -0.295 NA
ATOM     16  C   UNL     1      35.458 -25.080 -15.205  0.00  0.00    +0.086 C 
ATOM     17  H   UNL     1      36.313 -25.630 -16.286  0.00  0.00    +0.123 HD
ENDBRANCH  14  15
ENDBRANCH  11  14
ENDBRANCH  10  11
ENDBRANCH   1  10
TORSDOF 8
ENDMDL
MODEL 5
REMARK VINA RESULT:      -5.4      3.309      4.381
REMARK  Name = 92105
REMARK  8 active torsions:
REMARK  status: ('A' for Active; 'I' for Inactive)
REMARK    1  A    between atoms: CA_1  and  N_2
REMARK    2  A    between atoms: CA_1  and  C_7
REMARK    3  A    between atoms: CA_1  and  C_10
REMARK    4  A    between atoms: C_7  and  O_8
REMARK    5  A    between atoms: C_10  and  C_13
REMARK    6  A    between atoms: N_11  and  C_14
REMARK    7  A    between atoms: N_12  and  C_13
REMARK    8  A    between atoms: C_13  and  C_14
REMARK                            x       y       z     vdW  Elec       q    Type
REMARK                         _______ _______ _______ _____ _____    ______ ____
ROOT
ATOM      1  CA  UNL     1      36.693 -23.453 -11.955  0.00  0.00    +0.037 C 
ENDROOT
BRANCH   1   2
ATOM      2  N   UNL     1      37.930 -24.194 -12.211  0.00  0.00    +0.389 N 
ATOM      3  H1  UNL     1      37.753 -25.194 -12.117  0.00  0.00    -0.088 HD
ATOM      4  H2  UNL     1      38.641 -23.910 -11.538  0.00  0.00    -0.088 HD
ATOM      5  H3  UNL     1      38.257 -23.994 -13.157  0.00  0.00    -0.088 HD
ENDBRANCH   1   2
BRANCH   1   7
ATOM      6  OXT UNL     1      36.003 -24.244  -9.749  0.00  0.00    -0.253 OA
ATOM      7  C   UNL     1      35.889 -24.273 -10.967  0.00  0.00    +0.293 C 
BRANCH   7   8
ATOM      8  O   UNL     1      34.978 -25.044 -11.615  0.00  0.00    -0.482 OA
ATOM      9  H   UNL     1      34.673 -24.795 -12.465  0.00  0.00    +0.295 HD
ENDBRANCH   7   8
ENDBRANCH   1   7
BRANCH   1  10
ATOM     10  C   UNL     1      35.927 -23.262 -13.272  0.00  0.00    +0.008 C 
BRANCH  10  11
ATOM     11  C   UNL     1      36.655 -23.851 -14.459  0.00  0.00    +0.087 C 
BRANCH  11  12
ATOM     12  N   UNL     1      37.802 -23.273 -14.880  0.00  0.00    -0.217 NA
ATOM     13  C   UNL     1      37.409 -22.522 -15.885  0.00  0.00    +0.107 C 
ENDBRANCH  11  12
BRANCH  11  14
ATOM     14  C   UNL     1      36.282 -24.927 -15.185  0.00  0.00    +0.086 C 
BRANCH  14  15
ATOM     15  N   UNL     1      36.289 -25.944 -14.272  0.00  0.00    -0.295 NA
ATOM     16  C   UNL     1      37.276 -26.990 -14.165  0.00  0.00    +0.086 C 
ATOM     17  H   UNL     1      35.808 -26.788 -14.113  0.00  0.00    +0.123 HD
ENDBRANCH  14  15
ENDBRANCH  11  14
ENDBRANCH  10  11
ENDBRANCH   1  10
TORSDOF 8
ENDMDL
MODEL 6
REMARK VINA RESULT:      -5.4      3.162      4.479
REMARK  Name = 92105
REMARK  8 active torsions:
REMARK  status: ('A' for Active; 'I' for Inactive)
REMARK    1  A    between atoms: CA_1  and  N_2
REMARK    2  A    between atoms: CA_1  and  C_7
REMARK    3  A    between atoms: CA_1  and  C_10
REMARK    4  A    between atoms: C_7  and  O_8
REMARK    5  A    between atoms: C_10  and  C_13
REMARK    6  A    between atoms: N_11  and  C_14
REMARK    7  A    between atoms: N_12  and  C_13
REMARK    8  A    between atoms: C_13  and  C_14
REMARK                            x       y       z     vdW  Elec       q    Type
REMARK                         _______ _______ _______ _____ _____    ______ ____
ROOT
ATOM      1  CA  UNL     1      36.022 -24.761 -12.091  0.00  0.00    +0.037 C 
ENDROOT
BRANCH   1   2
ATOM      2  N   UNL     1      35.180 -24.044 -13.051  0.00  0.00    +0.389 N 
ATOM      3  H1  UNL     1      34.511 -23.461 -12.547  0.00  0.00    -0.088 HD
ATOM      4  H2  UNL     1      34.678 -24.716 -13.631  0.00  0.00    -0.088 HD
ATOM      5  H3  UNL     1      35.766 -23.454 -13.643  0.00  0.00    -0.088 HD
ENDBRANCH   1   2
BRANCH   1   7
ATOM      6  OXT UNL     1      37.322 -22.755 -11.584  0.00  0.00    -0.253 OA
ATOM      7  C   UNL     1      36.663 -23.713 -11.204  0.00  0.00    +0.293 C 
BRANCH   7   8
ATOM      8  O   UNL     1      36.384 -23.957  -9.898  0.00  0.00    -0.482 OA
ATOM      9  H   UNL     1      36.989 -24.440  -9.371  0.00  0.00    +0.295 HD
ENDBRANCH   7   8
ENDBRANCH   1   7
BRANCH   1  10
ATOM     10  C   UNL     1      37.082 -25.575 -12.845  0.00  0.00    +0.008 C 
BRANCH  10  11
ATOM     11  C   UNL     1      37.241 -25.135 -14.282  0.00  0.00    +0.087 C 
BRANCH  11  12
ATOM     12  N   UNL     1      36.375 -25.597 -15.212  0.00  0.00    -0.217 NA
ATOM     13  C   UNL     1      36.715 -26.861 -15.336  0.00  0.00    +0.107 C 
ENDBRANCH  11  12
BRANCH  11  14
ATOM     14  C   UNL     1      38.185 -24.303 -14.775  0.00  0.00    +0.086 C 
BRANCH  14  15
ATOM     15  N   UNL     1      37.564 -23.086 -14.781  0.00  0.00    -0.295 NA
ATOM     16  C   UNL     1      37.326 -22.255 -15.935  0.00  0.00    +0.086 C 
ATOM     17  H   UNL     1      37.769 -22.159 -14.523  0.00  0.00    +0.123 HD
ENDBRANCH  14  15
ENDBRANCH  11  14
ENDBRANCH  10  11
ENDBRANCH   1  10
TORSDOF 8
ENDMDL
MODEL 7
REMARK VINA RESULT:      -5.4      1.613      1.720
REMARK  Name = 92105
REMARK  8 active torsions:
REMARK  status: ('A' for Active; 'I' for Inactive)
REMARK    1  A    between atoms: CA_1  and  N_2
REMARK    2  A    between atoms: CA_1  and  C_7
REMARK    3  A    between atoms: CA_1  and  C_10
REMARK    4  A    between atoms: C_7  and  O_8
REMARK    5  A    between atoms: C_10  and  C_13
REMARK    6  A    between atoms: N_11  and  C_14
REMARK    7  A    between atoms: N_12  and  C_13
REMARK    8  A    between atoms: C_13  and  C_14
REMARK                            x       y       z     vdW  Elec       q    Type
REMARK                         _______ _______ _______ _____ _____    ______ ____
ROOT
ATOM      1  CA  UNL     1      38.462 -25.414 -14.652  0.00  0.00    +0.037 C 
ENDROOT
BRANCH   1   2
ATOM      2  N   UNL     1      38.174 -26.786 -14.227  0.00  0.00    +0.389 N 
ATOM      3  H1  UNL     1      37.929 -26.790 -13.237  0.00  0.00    -0.088 HD
ATOM      4  H2  UNL     1      38.999 -27.367 -14.376  0.00  0.00    -0.088 HD
ATOM      5  H3  UNL     1      37.395 -27.154 -14.773  0.00  0.00    -0.088 HD
ENDBRANCH   1   2
BRANCH   1   7
ATOM      6  OXT UNL     1      40.769 -24.822 -14.111  0.00  0.00    -0.253 OA
ATOM      7  C   UNL     1      39.958 -25.329 -14.873  0.00  0.00    +0.293 C 
BRANCH   7   8
ATOM      8  O   UNL     1      40.302 -25.926 -16.043  0.00  0.00    -0.482 OA
ATOM      9  H   UNL     1      41.176 -26.237 -16.172  0.00  0.00    +0.295 HD
ENDBRANCH   7   8
ENDBRANCH   1   7
BRANCH   1  10
ATOM     10  C   UNL     1      38.004 -24.432 -13.564  0.00  0.00    +0.008 C 
BRANCH  10  11
ATOM     11  C   UNL     1      36.618 -24.744 -13.044  0.00  0.00    +0.087 C 
BRANCH  11  12
ATOM     12  N   UNL     1      36.489 -25.444 -11.895  0.00  0.00    -0.217 NA
ATOM     13  C   UNL     1      35.788 -24.638 -11.129  0.00  0.00    +0.107 C 
ENDBRANCH  11  12
BRANCH  11  14
ATOM     14  C   UNL     1      35.444 -24.399 -13.614  0.00  0.00    +0.086 C 
BRANCH  14  15
ATOM     15  N   UNL     1      35.700 -23.167 -14.148  0.00  0.00    -0.295 NA
ATOM     16  C   UNL     1      35.372 -22.731 -15.483  0.00  0.00    +0.086 C 
ATOM     17  H   UNL     1      36.474 -22.666 -14.492  0.00  0.00    +0.123 HD
ENDBRANCH  14  15
ENDBRANCH  11  14
ENDBRANCH  10  11
ENDBRANCH   1  10
TORSDOF 8
ENDMDL
MODEL 8
REMARK VINA RESULT:      -5.3      3.039      4.252
REMARK  Name = 92105
REMARK  8 active torsions:
REMARK  status: ('A' for Active; 'I' for Inactive)
REMARK    1  A    between atoms: CA_1  and  N_2
REMARK    2  A    between atoms: CA_1  and  C_7
REMARK    3  A    between atoms: CA_1  and  C_10
REMARK    4  A    between atoms: C_7  and  O_8
REMARK    5  A    between atoms: C_10  and  C_13
REMARK    6  A    between atoms: N_11  and  C_14
REMARK    7  A    between atoms: N_12  and  C_13
REMARK    8  A    between atoms: C_13  and  C_14
REMARK                            x       y       z     vdW  Elec       q    Type
REMARK                         _______ _______ _______ _____ _____    ______ ____
ROOT
ATOM      1  CA  UNL     1      36.932 -25.586 -12.390  0.00  0.00    +0.037 C 
ENDROOT
BRANCH   1   2
ATOM      2  N   UNL     1      36.234 -25.970 -13.619  0.00  0.00    +0.389 N 
ATOM      3  H1  UNL     1      35.360 -25.450 -13.690  0.00  0.00    -0.088 HD
ATOM      4  H2  UNL     1      36.035 -26.970 -13.598  0.00  0.00    -0.088 HD
ATOM      5  H3  UNL     1      36.823 -25.757 -14.425  0.00  0.00    -0.088 HD
ENDBRANCH   1   2
BRANCH   1   7
ATOM      6  OXT UNL     1      35.331 -25.017 -10.635  0.00  0.00    -0.253 OA
ATOM      7  C   UNL     1      35.988 -24.691 -11.613  0.00  0.00    +0.293 C 
BRANCH   7   8
ATOM      8  O   UNL     1      35.983 -23.437 -12.134  0.00  0.00    -0.482 OA
ATOM      9  H   UNL     1      35.649 -23.288 -12.996  0.00  0.00    +0.295 HD
ENDBRANCH   7   8
ENDBRANCH   1   7
BRANCH   1  10
ATOM     10  C   UNL     1      38.232 -24.849 -12.746  0.00  0.00    +0.008 C 
BRANCH  10  11
ATOM     11  C   UNL     1      38.671 -25.101 -14.170  0.00  0.00    +0.087 C 
BRANCH  11  12
ATOM     12  N   UNL     1      39.175 -26.311 -14.499  0.00  0.00    -0.217 NA
ATOM     13  C   UNL     1      40.473 -26.107 -14.499  0.00  0.00    +0.107 C 
ENDBRANCH  11  12
BRANCH  11  14
ATOM     14  C   UNL     1      38.626 -24.226 -15.198  0.00  0.00    +0.086 C 
BRANCH  14  15
ATOM     15  N   UNL     1      37.695 -23.310 -14.794  0.00  0.00    -0.295 NA
ATOM     16  C   UNL     1      36.626 -22.768 -15.596  0.00  0.00    +0.086 C 
ATOM     17  H   UNL     1      37.651 -22.343 -14.612  0.00  0.00    +0.123 HD
ENDBRANCH  14  15
ENDBRANCH  11  14
ENDBRANCH  10  11
ENDBRANCH   1  10
TORSDOF 8
ENDMDL
MODEL 9
REMARK VINA RESULT:      -5.3     11.067     12.483
REMARK  Name = 92105
REMARK  8 active torsions:
REMARK  status: ('A' for Active; 'I' for Inactive)
REMARK    1  A    between atoms: CA_1  and  N_2
REMARK    2  A    between atoms: CA_1  and  C_7
REMARK    3  A    between atoms: CA_1  and  C_10
REMARK    4  A    between atoms: C_7  and  O_8
REMARK    5  A    between atoms: C_10  and  C_13
REMARK    6  A    between atoms: N_11  and  C_14
REMARK    7  A    between atoms: N_12  and  C_13
REMARK    8  A    between atoms: C_13  and  C_14
REMARK                            x       y       z     vdW  Elec       q    Type
REMARK                         _______ _______ _______ _____ _____    ______ ____
ROOT
ATOM      1  CA  UNL     1      34.635 -18.069 -23.930  0.00  0.00    +0.037 C 
ENDROOT
BRANCH   1   2
ATOM      2  N   UNL     1      34.506 -19.137 -24.924  0.00  0.00    +0.389 N 
ATOM      3  H1  UNL     1      35.041 -18.891 -25.757  0.00  0.00    -0.088 HD
ATOM      4  H2  UNL     1      33.524 -19.253 -25.172  0.00  0.00    -0.088 HD
ATOM      5  H3  UNL     1      34.864 -20.009 -24.534  0.00  0.00    -0.088 HD
ENDBRANCH   1   2
BRANCH   1   7
ATOM      6  OXT UNL     1      34.600 -16.564 -25.853  0.00  0.00    -0.253 OA
ATOM      7  C   UNL     1      34.916 -16.791 -24.694  0.00  0.00    +0.293 C 
BRANCH   7   8
ATOM      8  O   UNL     1      35.553 -15.892 -23.901  0.00  0.00    -0.482 OA
ATOM      9  H   UNL     1      35.270 -14.999 -23.883  0.00  0.00    +0.295 HD
ENDBRANCH   7   8
ENDBRANCH   1   7
BRANCH   1  10
ATOM     10  C   UNL     1      35.780 -18.403 -22.963  0.00  0.00    +0.008 C 
BRANCH  10  11
ATOM     11  C   UNL     1      35.369 -18.288 -21.513  0.00  0.00    +0.087 C 
BRANCH  11  12
ATOM     12  N   UNL     1      36.015 -19.031 -20.586  0.00  0.00    -0.217 NA
ATOM     13  C   UNL     1      35.322 -20.148 -20.559  0.00  0.00    +0.107 C 
ENDBRANCH  11  12
BRANCH  11  14
ATOM     14  C   UNL     1      34.391 -17.506 -21.008  0.00  0.00    +0.086 C 
BRANCH  14  15
ATOM     15  N   UNL     1      35.035 -16.334 -20.728  0.00  0.00    -0.295 NA
ATOM     16  C   UNL     1      34.438 -15.022 -20.678  0.00  0.00    +0.086 C 
ATOM     17  H   UNL     1      35.652 -15.712 -21.178  0.00  0.00    +0.123 HD
ENDBRANCH  14  15
ENDBRANCH  11  14
ENDBRANCH  10  11
ENDBRANCH   1  10
TORSDOF 8
ENDMDL
