MODEL 1
REMARK VINA RESULT:      -8.5      0.000      0.000
REMARK  Name = 8333
REMARK  4 active torsions:
REMARK  status: ('A' for Active; 'I' for Inactive)
REMARK    1  A    between atoms: C_1  and  C_2
REMARK    2  A    between atoms: C_1  and  C_8
REMARK    3  A    between atoms: C_1  and  C_15
REMARK    4  A    between atoms: C_15  and  O_16
REMARK                            x       y       z     vdW  Elec       q    Type
REMARK                         _______ _______ _______ _____ _____    ______ ____
ROOT
ATOM      1  C   UNL     1      35.173 -17.696 -22.436  0.00  0.00    +0.143 C 
ENDROOT
BRANCH   1   2
ATOM      2  C   UNL     1      34.945 -18.859 -21.531  0.00  0.00    -0.008 C 
ATOM      3  C   UNL     1      36.033 -19.546 -20.990  0.00  0.00    -0.003 C 
ATOM      4  C   UNL     1      33.645 -19.262 -21.225  0.00  0.00    -0.003 C 
ATOM      5  C   UNL     1      35.820 -20.634 -20.145  0.00  0.00    -0.000 C 
ATOM      6  C   UNL     1      33.433 -20.350 -20.380  0.00  0.00    -0.000 C 
ATOM      7  C   UNL     1      34.520 -21.036 -19.839  0.00  0.00    -0.000 C 
ENDBRANCH   1   2
BRANCH   1   8
ATOM      8  C   UNL     1      34.432 -16.430 -21.984  0.00  0.00    -0.008 C 
ATOM      9  C   UNL     1      33.530 -15.856 -22.848  0.00  0.00    -0.003 C 
ATOM     10  C   UNL     1      34.702 -15.924 -20.736  0.00  0.00    -0.003 C 
ATOM     11  C   UNL     1      32.858 -14.706 -22.437  0.00  0.00    -0.000 C 
ATOM     12  C   UNL     1      34.028 -14.774 -20.326  0.00  0.00    -0.000 C 
ATOM     13  C   UNL     1      33.106 -14.164 -21.177  0.00  0.00    -0.000 C 
ENDBRANCH   1   8
BRANCH   1  15
ATOM     14  O   UNL     1      34.436 -19.026 -24.357  0.00  0.00    -0.250 OA
ATOM     15  C   UNL     1      34.952 -18.006 -23.923  0.00  0.00    +0.322 C 
BRANCH  15  16
ATOM     16  O   UNL     1      35.454 -17.033 -24.728  0.00  0.00    -0.480 OA
ATOM     17  H   UNL     1      36.174 -16.509 -24.437  0.00  0.00    +0.295 HD
ENDBRANCH  15  16
ENDBRANCH   1  15
TORSDOF 4
ENDMDL
MODEL 2
REMARK VINA RESULT:      -8.5      0.071      1.709
REMARK  Name = 8333
REMARK  4 active torsions:
REMARK  status: ('A' for Active; 'I' for Inactive)
REMARK    1  A    between atoms: C_1  and  C_2
REMARK    2  A    between atoms: C_1  and  C_8
REMARK    3  A    between atoms: C_1  and  C_15
REMARK    4  A    between atoms: C_15  and  O_16
REMARK                            x       y       z     vdW  Elec       q    Type
REMARK                         _______ _______ _______ _____ _____    ______ ____
ROOT
ATOM      1  C   UNL     1      35.202 -17.678 -22.479  0.00  0.00    +0.143 C 
ENDROOT
BRANCH   1   2
ATOM      2  C   UNL     1      35.004 -18.839 -21.565  0.00  0.00    -0.008 C 
ATOM      3  C   UNL     1      33.713 -19.255 -21.236  0.00  0.00    -0.003 C 
ATOM      4  C   UNL     1      36.107 -19.510 -21.038  0.00  0.00    -0.003 C 
ATOM      5  C   UNL     1      33.527 -20.341 -20.380  0.00  0.00    -0.000 C 
ATOM      6  C   UNL     1      35.921 -20.596 -20.183  0.00  0.00    -0.000 C 
ATOM      7  C   UNL     1      34.630 -21.011 -19.854  0.00  0.00    -0.000 C 
ENDBRANCH   1   2
BRANCH   1   8
ATOM      8  C   UNL     1      34.452 -16.419 -22.021  0.00  0.00    -0.008 C 
ATOM      9  C   UNL     1      34.682 -15.946 -20.751  0.00  0.00    -0.003 C 
ATOM     10  C   UNL     1      33.584 -15.819 -22.900  0.00  0.00    -0.003 C 
ATOM     11  C   UNL     1      33.999 -14.803 -20.336  0.00  0.00    -0.000 C 
ATOM     12  C   UNL     1      32.903 -14.675 -22.484  0.00  0.00    -0.000 C 
ATOM     13  C   UNL     1      33.110 -14.167 -21.202  0.00  0.00    -0.000 C 
ENDBRANCH   1   8
BRANCH   1  15
ATOM     14  O   UNL     1      34.466 -19.034 -24.382  0.00  0.00    -0.250 OA
ATOM     15  C   UNL     1      34.962 -17.998 -23.961  0.00  0.00    +0.322 C 
BRANCH  15  16
ATOM     16  O   UNL     1      35.423 -17.014 -24.778  0.00  0.00    -0.480 OA
ATOM     17  H   UNL     1      35.993 -16.352 -24.439  0.00  0.00    +0.295 HD
ENDBRANCH  15  16
ENDBRANCH   1  15
TORSDOF 4
ENDMDL
MODEL 3
REMARK VINA RESULT:      -8.3      2.142      5.058
REMARK  Name = 8333
REMARK  4 active torsions:
REMARK  status: ('A' for Active; 'I' for Inactive)
REMARK    1  A    between atoms: C_1  and  C_2
REMARK    2  A    between atoms: C_1  and  C_8
REMARK    3  A    between atoms: C_1  and  C_15
REMARK    4  A    between atoms: C_15  and  O_16
REMARK                            x       y       z     vdW  Elec       q    Type
REMARK                         _______ _______ _______ _____ _____    ______ ____
ROOT
ATOM      1  C   UNL     1      34.949 -16.621 -21.677  0.00  0.00    +0.143 C 
ENDROOT
BRANCH   1   2
ATOM      2  C   UNL     1      34.556 -16.463 -23.106  0.00  0.00    -0.008 C 
ATOM      3  C   UNL     1      33.898 -15.307 -23.526  0.00  0.00    -0.003 C 
ATOM      4  C   UNL     1      34.846 -17.472 -24.025  0.00  0.00    -0.003 C 
ATOM      5  C   UNL     1      33.530 -15.160 -24.863  0.00  0.00    -0.000 C 
ATOM      6  C   UNL     1      34.479 -17.325 -25.362  0.00  0.00    -0.000 C 
ATOM      7  C   UNL     1      33.821 -16.168 -25.781  0.00  0.00    -0.000 C 
ENDBRANCH   1   2
BRANCH   1   8
ATOM      8  C   UNL     1      34.918 -18.081 -21.203  0.00  0.00    -0.008 C 
ATOM      9  C   UNL     1      33.696 -18.693 -21.052  0.00  0.00    -0.003 C 
ATOM     10  C   UNL     1      36.110 -18.712 -20.949  0.00  0.00    -0.003 C 
ATOM     11  C   UNL     1      33.668 -20.019 -20.621  0.00  0.00    -0.000 C 
ATOM     12  C   UNL     1      36.081 -20.039 -20.519  0.00  0.00    -0.000 C 
ATOM     13  C   UNL     1      34.860 -20.692 -20.355  0.00  0.00    -0.000 C 
ENDBRANCH   1   8
BRANCH   1  15
ATOM     14  O   UNL     1      33.006 -15.690 -20.509  0.00  0.00    -0.250 OA
ATOM     15  C   UNL     1      34.211 -15.676 -20.717  0.00  0.00    +0.322 C 
BRANCH  15  16
ATOM     16  O   UNL     1      35.047 -14.763 -20.155  0.00  0.00    -0.480 OA
ATOM     17  H   UNL     1      35.354 -14.036 -20.659  0.00  0.00    +0.295 HD
ENDBRANCH  15  16
ENDBRANCH   1  15
TORSDOF 4
ENDMDL
MODEL 4
REMARK VINA RESULT:      -8.3      1.023      4.613
REMARK  Name = 8333
REMARK  4 active torsions:
REMARK  status: ('A' for Active; 'I' for Inactive)
REMARK    1  A    between atoms: C_1  and  C_2
REMARK    2  A    between atoms: C_1  and  C_8
REMARK    3  A    between atoms: C_1  and  C_15
REMARK    4  A    between atoms: C_15  and  O_16
REMARK                            x       y       z     vdW  Elec       q    Type
REMARK                         _______ _______ _______ _____ _____    ______ ____
ROOT
ATOM      1  C   UNL     1      34.217 -18.537 -22.560  0.00  0.00    +0.143 C 
ENDROOT
BRANCH   1   2
ATOM      2  C   UNL     1      34.303 -17.122 -22.097  0.00  0.00    -0.008 C 
ATOM      3  C   UNL     1      34.122 -16.079 -23.005  0.00  0.00    -0.003 C 
ATOM      4  C   UNL     1      34.565 -16.841 -20.756  0.00  0.00    -0.003 C 
ATOM      5  C   UNL     1      34.203 -14.755 -22.573  0.00  0.00    -0.000 C 
ATOM      6  C   UNL     1      34.646 -15.517 -20.323  0.00  0.00    -0.000 C 
ATOM      7  C   UNL     1      34.464 -14.474 -21.232  0.00  0.00    -0.000 C 
ENDBRANCH   1   2
BRANCH   1   8
ATOM      8  C   UNL     1      34.212 -19.547 -21.404  0.00  0.00    -0.008 C 
ATOM      9  C   UNL     1      33.005 -19.892 -20.843  0.00  0.00    -0.003 C 
ATOM     10  C   UNL     1      35.412 -20.063 -20.980  0.00  0.00    -0.003 C 
ATOM     11  C   UNL     1      33.001 -20.810 -19.792  0.00  0.00    -0.000 C 
ATOM     12  C   UNL     1      35.406 -20.981 -19.930  0.00  0.00    -0.000 C 
ATOM     13  C   UNL     1      34.201 -21.354 -19.336  0.00  0.00    -0.000 C 
ENDBRANCH   1   8
BRANCH   1  15
ATOM     14  O   UNL     1      35.015 -19.664 -24.583  0.00  0.00    -0.250 OA
ATOM     15  C   UNL     1      35.232 -18.901 -23.653  0.00  0.00    +0.322 C 
BRANCH  15  16
ATOM     16  O   UNL     1      36.442 -18.319 -23.441  0.00  0.00    -0.480 OA
ATOM     17  H   UNL     1      36.944 -18.005 -24.166  0.00  0.00    +0.295 HD
ENDBRANCH  15  16
ENDBRANCH   1  15
TORSDOF 4
ENDMDL
MODEL 5
REMARK VINA RESULT:      -7.8      7.963     10.308
REMARK  Name = 8333
REMARK  4 active torsions:
REMARK  status: ('A' for Active; 'I' for Inactive)
REMARK    1  A    between atoms: C_1  and  C_2
REMARK    2  A    between atoms: C_1  and  C_8
REMARK    3  A    between atoms: C_1  and  C_15
REMARK    4  A    between atoms: C_15  and  O_16
REMARK                            x       y       z     vdW  Elec       q    Type
REMARK                         _______ _______ _______ _____ _____    ______ ____
ROOT
ATOM      1  C   UNL     1      31.882  -7.570 -21.616  0.00  0.00    +0.143 C 
ENDROOT
BRANCH   1   2
ATOM      2  C   UNL     1      31.780  -9.023 -21.301  0.00  0.00    -0.008 C 
ATOM      3  C   UNL     1      31.649  -9.953 -22.333  0.00  0.00    -0.003 C 
ATOM      4  C   UNL     1      31.814  -9.454 -19.975  0.00  0.00    -0.003 C 
ATOM      5  C   UNL     1      31.553 -11.313 -22.038  0.00  0.00    -0.000 C 
ATOM      6  C   UNL     1      31.718 -10.814 -19.680  0.00  0.00    -0.000 C 
ATOM      7  C   UNL     1      31.587 -11.744 -20.712  0.00  0.00    -0.000 C 
ENDBRANCH   1   2
BRANCH   1   8
ATOM      8  C   UNL     1      32.845  -7.273 -22.774  0.00  0.00    -0.008 C 
ATOM      9  C   UNL     1      34.119  -7.785 -22.713  0.00  0.00    -0.003 C 
ATOM     10  C   UNL     1      32.393  -6.508 -23.821  0.00  0.00    -0.003 C 
ATOM     11  C   UNL     1      34.994  -7.515 -23.765  0.00  0.00    -0.000 C 
ATOM     12  C   UNL     1      33.269  -6.240 -24.874  0.00  0.00    -0.000 C 
ATOM     13  C   UNL     1      34.569  -6.743 -24.845  0.00  0.00    -0.000 C 
ENDBRANCH   1   8
BRANCH   1  15
ATOM     14  O   UNL     1      32.910  -6.954 -19.478  0.00  0.00    -0.250 OA
ATOM     15  C   UNL     1      32.145  -6.680 -20.392  0.00  0.00    +0.322 C 
BRANCH  15  16
ATOM     16  O   UNL     1      31.376  -5.559 -20.401  0.00  0.00    -0.480 OA
ATOM     17  H   UNL     1      31.678  -4.780 -19.976  0.00  0.00    +0.295 HD
ENDBRANCH  15  16
ENDBRANCH   1  15
TORSDOF 4
ENDMDL
MODEL 6
REMARK VINA RESULT:      -7.8      2.249      3.156
REMARK  Name = 8333
REMARK  4 active torsions:
REMARK  status: ('A' for Active; 'I' for Inactive)
REMARK    1  A    between atoms: C_1  and  C_2
REMARK    2  A    between atoms: C_1  and  C_8
REMARK    3  A    between atoms: C_1  and  C_15
REMARK    4  A    between atoms: C_15  and  O_16
REMARK                            x       y       z     vdW  Elec       q    Type
REMARK                         _______ _______ _______ _____ _____    ______ ____
ROOT
ATOM      1  C   UNL     1      35.703 -18.595 -21.397  0.00  0.00    +0.143 C 
ENDROOT
BRANCH   1   2
ATOM      2  C   UNL     1      34.833 -19.617 -20.747  0.00  0.00    -0.008 C 
ATOM      3  C   UNL     1      35.405 -20.737 -20.143  0.00  0.00    -0.003 C 
ATOM      4  C   UNL     1      33.448 -19.454 -20.743  0.00  0.00    -0.003 C 
ATOM      5  C   UNL     1      34.592 -21.694 -19.536  0.00  0.00    -0.000 C 
ATOM      6  C   UNL     1      32.635 -20.411 -20.136  0.00  0.00    -0.000 C 
ATOM      7  C   UNL     1      33.207 -21.530 -19.531  0.00  0.00    -0.000 C 
ENDBRANCH   1   2
BRANCH   1   8
ATOM      8  C   UNL     1      35.193 -18.165 -22.779  0.00  0.00    -0.008 C 
ATOM      9  C   UNL     1      34.890 -19.142 -23.697  0.00  0.00    -0.003 C 
ATOM     10  C   UNL     1      35.062 -16.823 -23.041  0.00  0.00    -0.003 C 
ATOM     11  C   UNL     1      34.427 -18.751 -24.954  0.00  0.00    -0.000 C 
ATOM     12  C   UNL     1      34.599 -16.433 -24.297  0.00  0.00    -0.000 C 
ATOM     13  C   UNL     1      34.282 -17.397 -25.254  0.00  0.00    -0.000 C 
ENDBRANCH   1   8
BRANCH   1  15
ATOM     14  O   UNL     1      37.772 -19.574 -20.524  0.00  0.00    -0.250 OA
ATOM     15  C   UNL     1      37.195 -18.957 -21.408  0.00  0.00    +0.322 C 
BRANCH  15  16
ATOM     16  O   UNL     1      37.834 -18.457 -22.498  0.00  0.00    -0.480 OA
ATOM     17  H   UNL     1      38.725 -18.174 -22.431  0.00  0.00    +0.295 HD
ENDBRANCH  15  16
ENDBRANCH   1  15
TORSDOF 4
ENDMDL
MODEL 7
REMARK VINA RESULT:      -7.6      8.451     10.965
REMARK  Name = 8333
REMARK  4 active torsions:
REMARK  status: ('A' for Active; 'I' for Inactive)
REMARK    1  A    between atoms: C_1  and  C_2
REMARK    2  A    between atoms: C_1  and  C_8
REMARK    3  A    between atoms: C_1  and  C_15
REMARK    4  A    between atoms: C_15  and  O_16
REMARK                            x       y       z     vdW  Elec       q    Type
REMARK                         _______ _______ _______ _____ _____    ______ ____
ROOT
ATOM      1  C   UNL     1      32.972  -7.776 -21.274  0.00  0.00    +0.143 C 
ENDROOT
BRANCH   1   2
ATOM      2  C   UNL     1      33.255  -7.265 -22.646  0.00  0.00    -0.008 C 
ATOM      3  C   UNL     1      34.480  -7.541 -23.254  0.00  0.00    -0.003 C 
ATOM      4  C   UNL     1      32.296  -6.510 -23.321  0.00  0.00    -0.003 C 
ATOM      5  C   UNL     1      34.745  -7.062 -24.537  0.00  0.00    -0.000 C 
ATOM      6  C   UNL     1      32.561  -6.031 -24.604  0.00  0.00    -0.000 C 
ATOM      7  C   UNL     1      33.786  -6.308 -25.212  0.00  0.00    -0.000 C 
ENDBRANCH   1   2
BRANCH   1   8
ATOM      8  C   UNL     1      32.200  -9.104 -21.276  0.00  0.00    -0.008 C 
ATOM      9  C   UNL     1      31.911  -9.690 -22.485  0.00  0.00    -0.003 C 
ATOM     10  C   UNL     1      31.833  -9.649 -20.070  0.00  0.00    -0.003 C 
ATOM     11  C   UNL     1      31.210 -10.896 -22.486  0.00  0.00    -0.000 C 
ATOM     12  C   UNL     1      31.133 -10.855 -20.073  0.00  0.00    -0.000 C 
ATOM     13  C   UNL     1      30.821 -11.478 -21.280  0.00  0.00    -0.000 C 
ENDBRANCH   1   8
BRANCH   1  15
ATOM     14  O   UNL     1      31.361  -6.059 -20.594  0.00  0.00    -0.250 OA
ATOM     15  C   UNL     1      32.346  -6.736 -20.334  0.00  0.00    +0.322 C 
BRANCH  15  16
ATOM     16  O   UNL     1      33.054  -6.599 -19.181  0.00  0.00    -0.480 OA
ATOM     17  H   UNL     1      33.618  -7.288 -18.893  0.00  0.00    +0.295 HD
ENDBRANCH  15  16
ENDBRANCH   1  15
TORSDOF 4
ENDMDL
MODEL 8
REMARK VINA RESULT:      -7.6      8.191     11.412
REMARK  Name = 8333
REMARK  4 active torsions:
REMARK  status: ('A' for Active; 'I' for Inactive)
REMARK    1  A    between atoms: C_1  and  C_2
REMARK    2  A    between atoms: C_1  and  C_8
REMARK    3  A    between atoms: C_1  and  C_15
REMARK    4  A    between atoms: C_15  and  O_16
REMARK                            x       y       z     vdW  Elec       q    Type
REMARK                         _______ _______ _______ _____ _____    ______ ____
ROOT
ATOM      1  C   UNL     1      33.339  -7.662 -22.254  0.00  0.00    +0.143 C 
ENDROOT
BRANCH   1   2
ATOM      2  C   UNL     1      32.570  -6.576 -22.927  0.00  0.00    -0.008 C 
ATOM      3  C   UNL     1      31.741  -5.741 -22.178  0.00  0.00    -0.003 C 
ATOM      4  C   UNL     1      32.678  -6.395 -24.306  0.00  0.00    -0.003 C 
ATOM      5  C   UNL     1      31.021  -4.726 -22.807  0.00  0.00    -0.000 C 
ATOM      6  C   UNL     1      31.958  -5.380 -24.935  0.00  0.00    -0.000 C 
ATOM      7  C   UNL     1      31.129  -4.545 -24.185  0.00  0.00    -0.000 C 
ENDBRANCH   1   2
BRANCH   1   8
ATOM      8  C   UNL     1      33.723  -8.803 -23.206  0.00  0.00    -0.008 C 
ATOM      9  C   UNL     1      34.880  -8.682 -23.939  0.00  0.00    -0.003 C 
ATOM     10  C   UNL     1      32.896  -9.897 -23.284  0.00  0.00    -0.003 C 
ATOM     11  C   UNL     1      35.229  -9.719 -24.803  0.00  0.00    -0.000 C 
ATOM     12  C   UNL     1      33.247 -10.934 -24.149  0.00  0.00    -0.000 C 
ATOM     13  C   UNL     1      34.413 -10.845 -24.908  0.00  0.00    -0.000 C 
ENDBRANCH   1   8
BRANCH   1  15
ATOM     14  O   UNL     1      31.718  -8.900 -20.897  0.00  0.00    -0.250 OA
ATOM     15  C   UNL     1      32.698  -8.171 -20.955  0.00  0.00    +0.322 C 
BRANCH  15  16
ATOM     16  O   UNL     1      33.311  -7.668 -19.851  0.00  0.00    -0.480 OA
ATOM     17  H   UNL     1      33.105  -6.804 -19.553  0.00  0.00    +0.295 HD
ENDBRANCH  15  16
ENDBRANCH   1  15
TORSDOF 4
ENDMDL
MODEL 9
REMARK VINA RESULT:      -7.5      2.166      3.352
REMARK  Name = 8333
REMARK  4 active torsions:
REMARK  status: ('A' for Active; 'I' for Inactive)
REMARK    1  A    between atoms: C_1  and  C_2
REMARK    2  A    between atoms: C_1  and  C_8
REMARK    3  A    between atoms: C_1  and  C_15
REMARK    4  A    between atoms: C_15  and  O_16
REMARK                            x       y       z     vdW  Elec       q    Type
REMARK                         _______ _______ _______ _____ _____    ______ ____
ROOT
ATOM      1  C   UNL     1      34.052 -17.921 -21.473  0.00  0.00    +0.143 C 
ENDROOT
BRANCH   1   2
ATOM      2  C   UNL     1      34.823 -19.049 -20.878  0.00  0.00    -0.008 C 
ATOM      3  C   UNL     1      36.218 -19.015 -20.872  0.00  0.00    -0.003 C 
ATOM      4  C   UNL     1      34.152 -20.140 -20.326  0.00  0.00    -0.003 C 
ATOM      5  C   UNL     1      36.940 -20.070 -20.316  0.00  0.00    -0.000 C 
ATOM      6  C   UNL     1      34.874 -21.196 -19.769  0.00  0.00    -0.000 C 
ATOM      7  C   UNL     1      36.268 -21.160 -19.764  0.00  0.00    -0.000 C 
ENDBRANCH   1   2
BRANCH   1   8
ATOM      8  C   UNL     1      34.321 -17.737 -22.974  0.00  0.00    -0.008 C 
ATOM      9  C   UNL     1      34.361 -18.854 -23.773  0.00  0.00    -0.003 C 
ATOM     10  C   UNL     1      34.509 -16.464 -23.453  0.00  0.00    -0.003 C 
ATOM     11  C   UNL     1      34.605 -18.686 -25.136  0.00  0.00    -0.000 C 
ATOM     12  C   UNL     1      34.753 -16.297 -24.816  0.00  0.00    -0.000 C 
ATOM     13  C   UNL     1      34.802 -17.408 -25.657  0.00  0.00    -0.000 C 
ENDBRANCH   1   8
BRANCH   1  15
ATOM     14  O   UNL     1      35.173 -16.206 -20.129  0.00  0.00    -0.250 OA
ATOM     15  C   UNL     1      34.162 -16.605 -20.691  0.00  0.00    +0.322 C 
BRANCH  15  16
ATOM     16  O   UNL     1      32.976 -15.942 -20.636  0.00  0.00    -0.480 OA
ATOM     17  H   UNL     1      32.277 -16.184 -21.211  0.00  0.00    +0.295 HD
ENDBRANCH  15  16
ENDBRANCH   1  15
TORSDOF 4
ENDMDL
