MODEL 1
REMARK VINA RESULT:     -13.4      0.000      0.000
REMARK  Name = 16741238
REMARK  6 active torsions:
REMARK  status: ('A' for Active; 'I' for Inactive)
REMARK    1  A    between atoms: N_1  and  C_22
REMARK    2  A    between atoms: C_10  and  C_15
REMARK    3  A    between atoms: C_15  and  C_16
REMARK    4  A    between atoms: C_22  and  C_23
REMARK    5  A    between atoms: C_23  and  C_26
REMARK    6  A    between atoms: N_25  and  C_28
REMARK                            x       y       z     vdW  Elec       q    Type
REMARK                         _______ _______ _______ _____ _____    ______ ____
ROOT
ATOM      1  N   UNL     1      33.603 -13.979 -25.020  0.00  0.00    -0.249 N 
ATOM      2  N   UNL     1      33.597 -16.068 -26.211  0.00  0.00    -0.373 NA
ATOM      3  N   UNL     1      32.830 -14.143 -27.240  0.00  0.00    -0.321 N 
ATOM      4  C   UNL     1      34.168 -14.545 -23.794  0.00  0.00    +0.071 C 
ATOM      5  C   UNL     1      34.425 -16.022 -23.901  0.00  0.00    +0.045 C 
ATOM      6  C   UNL     1      33.359 -14.780 -26.139  0.00  0.00    +0.239 C 
ATOM      7  C   UNL     1      34.134 -16.712 -25.086  0.00  0.00    +0.136 C 
ATOM      8  C   UNL     1      34.962 -16.714 -22.806  0.00  0.00    +0.007 C 
ATOM      9  C   UNL     1      34.386 -18.088 -25.157  0.00  0.00    +0.032 C 
ATOM     10  C   UNL     1      35.208 -18.085 -22.888  0.00  0.00    +0.039 C 
ATOM     11  C   UNL     1      34.920 -18.771 -24.064  0.00  0.00    +0.006 C 
ATOM     12  H   UNL     1      32.645 -13.176 -27.208  0.00  0.00    +0.146 HD
ATOM     13  H   UNL     1      32.637 -14.655 -28.059  0.00  0.00    +0.146 HD
ENDROOT
BRANCH  10  15
ATOM     14  O   UNL     1      36.951 -18.633 -21.428  0.00  0.00    -0.287 OA
ATOM     15  C   UNL     1      35.764 -18.794 -21.748  0.00  0.00    +0.196 C 
BRANCH  15  16
ATOM     16  C   UNL     1      34.952 -19.735 -20.917  0.00  0.00    +0.039 C 
ATOM     17  C   UNL     1      33.567 -19.588 -20.849  0.00  0.00    +0.003 C 
ATOM     18  C   UNL     1      35.580 -20.760 -20.209  0.00  0.00    +0.003 C 
ATOM     19  C   UNL     1      32.810 -20.467 -20.074  0.00  0.00    +0.000 C 
ATOM     20  C   UNL     1      34.823 -21.638 -19.434  0.00  0.00    +0.000 C 
ATOM     21  C   UNL     1      33.438 -21.491 -19.366  0.00  0.00    +0.000 C 
ENDBRANCH  15  16
ENDBRANCH  10  15
BRANCH   1  22
ATOM     22  C   UNL     1      33.328 -12.546 -24.971  0.00  0.00    +0.109 C 
BRANCH  22  23
ATOM     23  C   UNL     1      33.758 -11.966 -23.627  0.00  0.00    +0.107 C 
BRANCH  23  26
ATOM     24  O   UNL     1      34.669  -9.794 -24.098  0.00  0.00    -0.275 OA
ATOM     25  N   UNL     1      32.656  -9.847 -22.949  0.00  0.00    -0.279 N 
ATOM     26  C   UNL     1      33.750 -10.441 -23.587  0.00  0.00    +0.227 C 
ATOM     27  C   UNL     1      31.578 -10.631 -22.349  0.00  0.00    +0.115 C 
BRANCH  25  28
ATOM     28  C   UNL     1      32.510  -8.415 -22.835  0.00  0.00    +0.075 C 
ATOM     29  C   UNL     1      32.391  -8.004 -21.366  0.00  0.00    +0.020 C 
ATOM     30  C   UNL     1      31.309  -7.927 -23.650  0.00  0.00    +0.020 C 
ATOM     31  C   UNL     1      32.181  -6.499 -21.217  0.00  0.00    +0.002 C 
ATOM     32  C   UNL     1      31.103  -6.421 -23.499  0.00  0.00    +0.002 C 
ATOM     33  C   UNL     1      30.987  -6.014 -22.033  0.00  0.00    +0.000 C 
ENDBRANCH  25  28
ENDBRANCH  23  26
ENDBRANCH  22  23
ENDBRANCH   1  22
TORSDOF 6
ENDMDL
MODEL 2
REMARK VINA RESULT:     -12.3      1.200      1.767
REMARK  Name = 16741238
REMARK  6 active torsions:
REMARK  status: ('A' for Active; 'I' for Inactive)
REMARK    1  A    between atoms: N_1  and  C_22
REMARK    2  A    between atoms: C_10  and  C_15
REMARK    3  A    between atoms: C_15  and  C_16
REMARK    4  A    between atoms: C_22  and  C_23
REMARK    5  A    between atoms: C_23  and  C_26
REMARK    6  A    between atoms: N_25  and  C_28
REMARK                            x       y       z     vdW  Elec       q    Type
REMARK                         _______ _______ _______ _____ _____    ______ ____
ROOT
ATOM      1  N   UNL     1      33.082 -14.443 -24.370  0.00  0.00    -0.249 N 
ATOM      2  N   UNL     1      33.664 -16.300 -25.783  0.00  0.00    -0.373 NA
ATOM      3  N   UNL     1      32.602 -14.450 -26.677  0.00  0.00    -0.321 N 
ATOM      4  C   UNL     1      33.627 -15.047 -23.152  0.00  0.00    +0.071 C 
ATOM      5  C   UNL     1      34.214 -16.409 -23.392  0.00  0.00    +0.045 C 
ATOM      6  C   UNL     1      33.141 -15.112 -25.596  0.00  0.00    +0.239 C 
ATOM      7  C   UNL     1      34.209 -16.971 -24.677  0.00  0.00    +0.136 C 
ATOM      8  C   UNL     1      34.773 -17.123 -22.322  0.00  0.00    +0.007 C 
ATOM      9  C   UNL     1      34.765 -18.242 -24.871  0.00  0.00    +0.032 C 
ATOM     10  C   UNL     1      35.323 -18.388 -22.527  0.00  0.00    +0.039 C 
ATOM     11  C   UNL     1      35.319 -18.947 -23.802  0.00  0.00    +0.006 C 
ATOM     12  H   UNL     1      32.206 -13.556 -26.559  0.00  0.00    +0.146 HD
ATOM     13  H   UNL     1      32.614 -14.870 -27.567  0.00  0.00    +0.146 HD
ENDROOT
BRANCH  10  15
ATOM     14  O   UNL     1      37.086 -18.947 -21.095  0.00  0.00    -0.287 OA
ATOM     15  C   UNL     1      35.899 -19.121 -21.412  0.00  0.00    +0.196 C 
BRANCH  15  16
ATOM     16  C   UNL     1      35.111 -20.099 -20.604  0.00  0.00    +0.039 C 
ATOM     17  C   UNL     1      35.767 -21.082 -19.863  0.00  0.00    +0.003 C 
ATOM     18  C   UNL     1      33.717 -20.030 -20.590  0.00  0.00    +0.003 C 
ATOM     19  C   UNL     1      35.031 -21.995 -19.108  0.00  0.00    +0.000 C 
ATOM     20  C   UNL     1      32.981 -20.943 -19.835  0.00  0.00    +0.000 C 
ATOM     21  C   UNL     1      33.638 -21.926 -19.095  0.00  0.00    +0.000 C 
ENDBRANCH  15  16
ENDBRANCH  10  15
BRANCH   1  22
ATOM     22  C   UNL     1      32.494 -13.119 -24.195  0.00  0.00    +0.109 C 
BRANCH  22  23
ATOM     23  C   UNL     1      32.953 -12.501 -22.877  0.00  0.00    +0.107 C 
BRANCH  23  26
ATOM     24  O   UNL     1      31.475 -10.868 -21.921  0.00  0.00    -0.275 OA
ATOM     25  N   UNL     1      33.135 -10.066 -23.327  0.00  0.00    -0.279 N 
ATOM     26  C   UNL     1      32.443 -11.080 -22.656  0.00  0.00    +0.227 C 
ATOM     27  C   UNL     1      34.279 -10.339 -24.194  0.00  0.00    +0.115 C 
BRANCH  25  28
ATOM     28  C   UNL     1      32.770  -8.674 -23.213  0.00  0.00    +0.075 C 
ATOM     29  C   UNL     1      31.346  -8.450 -23.726  0.00  0.00    +0.020 C 
ATOM     30  C   UNL     1      33.775  -7.788 -23.954  0.00  0.00    +0.020 C 
ATOM     31  C   UNL     1      30.951  -6.976 -23.668  0.00  0.00    +0.002 C 
ATOM     32  C   UNL     1      33.378  -6.315 -23.893  0.00  0.00    +0.002 C 
ATOM     33  C   UNL     1      31.957  -6.095 -24.403  0.00  0.00    +0.000 C 
ENDBRANCH  25  28
ENDBRANCH  23  26
ENDBRANCH  22  23
ENDBRANCH   1  22
TORSDOF 6
ENDMDL
MODEL 3
REMARK VINA RESULT:     -11.8      6.207     11.002
REMARK  Name = 16741238
REMARK  6 active torsions:
REMARK  status: ('A' for Active; 'I' for Inactive)
REMARK    1  A    between atoms: N_1  and  C_22
REMARK    2  A    between atoms: C_10  and  C_15
REMARK    3  A    between atoms: C_15  and  C_16
REMARK    4  A    between atoms: C_22  and  C_23
REMARK    5  A    between atoms: C_23  and  C_26
REMARK    6  A    between atoms: N_25  and  C_28
REMARK                            x       y       z     vdW  Elec       q    Type
REMARK                         _______ _______ _______ _____ _____    ______ ____
ROOT
ATOM      1  N   UNL     1      36.161 -22.567 -16.944  0.00  0.00    -0.249 N 
ATOM      2  N   UNL     1      36.515 -23.609 -14.806  0.00  0.00    -0.373 NA
ATOM      3  N   UNL     1      38.323 -23.008 -16.117  0.00  0.00    -0.321 N 
ATOM      4  C   UNL     1      34.701 -22.585 -16.843  0.00  0.00    +0.071 C 
ATOM      5  C   UNL     1      34.215 -23.202 -15.561  0.00  0.00    +0.045 C 
ATOM      6  C   UNL     1      36.962 -23.079 -15.919  0.00  0.00    +0.239 C 
ATOM      7  C   UNL     1      35.127 -23.681 -14.611  0.00  0.00    +0.136 C 
ATOM      8  C   UNL     1      32.838 -23.298 -15.315  0.00  0.00    +0.007 C 
ATOM      9  C   UNL     1      34.645 -24.250 -13.425  0.00  0.00    +0.032 C 
ATOM     10  C   UNL     1      32.369 -23.866 -14.131  0.00  0.00    +0.039 C 
ATOM     11  C   UNL     1      33.274 -24.343 -13.185  0.00  0.00    +0.006 C 
ATOM     12  H   UNL     1      38.680 -22.612 -16.946  0.00  0.00    +0.146 HD
ATOM     13  H   UNL     1      38.939 -23.353 -15.431  0.00  0.00    +0.146 HD
ENDROOT
BRANCH  10  15
ATOM     14  O   UNL     1      30.518 -24.247 -12.753  0.00  0.00    -0.287 OA
ATOM     15  C   UNL     1      30.940 -23.962 -13.884  0.00  0.00    +0.196 C 
BRANCH  15  16
ATOM     16  C   UNL     1      29.925 -23.727 -14.955  0.00  0.00    +0.039 C 
ATOM     17  C   UNL     1      29.365 -22.460 -15.120  0.00  0.00    +0.003 C 
ATOM     18  C   UNL     1      29.538 -24.774 -15.792  0.00  0.00    +0.003 C 
ATOM     19  C   UNL     1      28.419 -22.240 -16.120  0.00  0.00    +0.000 C 
ATOM     20  C   UNL     1      28.591 -24.554 -16.792  0.00  0.00    +0.000 C 
ATOM     21  C   UNL     1      28.031 -23.287 -16.956  0.00  0.00    +0.000 C 
ENDBRANCH  15  16
ENDBRANCH  10  15
BRANCH   1  22
ATOM     22  C   UNL     1      36.689 -21.982 -18.172  0.00  0.00    +0.109 C 
BRANCH  22  23
ATOM     23  C   UNL     1      35.555 -21.436 -19.035  0.00  0.00    +0.107 C 
BRANCH  23  26
ATOM     24  O   UNL     1      37.206 -20.149 -20.211  0.00  0.00    -0.275 OA
ATOM     25  N   UNL     1      34.993 -19.782 -20.799  0.00  0.00    -0.279 N 
ATOM     26  C   UNL     1      36.007 -20.402 -20.061  0.00  0.00    +0.227 C 
ATOM     27  C   UNL     1      33.579 -20.096 -20.606  0.00  0.00    +0.115 C 
BRANCH  25  28
ATOM     28  C   UNL     1      35.268 -18.786 -21.807  0.00  0.00    +0.075 C 
ATOM     29  C   UNL     1      34.725 -17.423 -21.374  0.00  0.00    +0.020 C 
ATOM     30  C   UNL     1      34.693 -19.212 -23.161  0.00  0.00    +0.020 C 
ATOM     31  C   UNL     1      34.954 -16.359 -22.445  0.00  0.00    +0.002 C 
ATOM     32  C   UNL     1      34.924 -18.146 -24.230  0.00  0.00    +0.002 C 
ATOM     33  C   UNL     1      34.383 -16.787 -23.795  0.00  0.00    +0.000 C 
ENDBRANCH  25  28
ENDBRANCH  23  26
ENDBRANCH  22  23
ENDBRANCH   1  22
TORSDOF 6
ENDMDL
MODEL 4
REMARK VINA RESULT:     -11.5      1.895     10.816
REMARK  Name = 16741238
REMARK  6 active torsions:
REMARK  status: ('A' for Active; 'I' for Inactive)
REMARK    1  A    between atoms: N_1  and  C_22
REMARK    2  A    between atoms: C_10  and  C_15
REMARK    3  A    between atoms: C_15  and  C_16
REMARK    4  A    between atoms: C_22  and  C_23
REMARK    5  A    between atoms: C_23  and  C_26
REMARK    6  A    between atoms: N_25  and  C_28
REMARK                            x       y       z     vdW  Elec       q    Type
REMARK                         _______ _______ _______ _____ _____    ______ ____
ROOT
ATOM      1  N   UNL     1      33.187 -14.003 -23.118  0.00  0.00    -0.249 N 
ATOM      2  N   UNL     1      31.980 -12.766 -21.446  0.00  0.00    -0.373 NA
ATOM      3  N   UNL     1      32.007 -15.078 -21.384  0.00  0.00    -0.321 N 
ATOM      4  C   UNL     1      33.653 -12.811 -23.831  0.00  0.00    +0.071 C 
ATOM      5  C   UNL     1      33.170 -11.533 -23.205  0.00  0.00    +0.045 C 
ATOM      6  C   UNL     1      32.385 -13.893 -21.978  0.00  0.00    +0.239 C 
ATOM      7  C   UNL     1      32.366 -11.562 -22.056  0.00  0.00    +0.136 C 
ATOM      8  C   UNL     1      33.527 -10.303 -23.774  0.00  0.00    +0.007 C 
ATOM      9  C   UNL     1      31.932 -10.355 -21.494  0.00  0.00    +0.032 C 
ATOM     10  C   UNL     1      33.089  -9.107 -23.206  0.00  0.00    +0.039 C 
ATOM     11  C   UNL     1      32.291  -9.134 -22.065  0.00  0.00    +0.006 C 
ATOM     12  H   UNL     1      32.302 -15.936 -21.767  0.00  0.00    +0.146 HD
ATOM     13  H   UNL     1      31.443 -15.066 -20.578  0.00  0.00    +0.146 HD
ENDROOT
BRANCH  10  15
ATOM     14  O   UNL     1      34.539  -7.723 -24.410  0.00  0.00    -0.287 OA
ATOM     15  C   UNL     1      33.464  -7.836 -23.803  0.00  0.00    +0.196 C 
BRANCH  15  16
ATOM     16  C   UNL     1      32.592  -6.625 -23.721  0.00  0.00    +0.039 C 
ATOM     17  C   UNL     1      32.134  -6.015 -24.889  0.00  0.00    +0.003 C 
ATOM     18  C   UNL     1      32.235  -6.105 -22.477  0.00  0.00    +0.003 C 
ATOM     19  C   UNL     1      31.320  -4.886 -24.812  0.00  0.00    +0.000 C 
ATOM     20  C   UNL     1      31.421  -4.976 -22.400  0.00  0.00    +0.000 C 
ATOM     21  C   UNL     1      30.963  -4.366 -23.569  0.00  0.00    +0.000 C 
ENDBRANCH  15  16
ENDBRANCH  10  15
BRANCH   1  22
ATOM     22  C   UNL     1      33.623 -15.274 -23.686  0.00  0.00    +0.109 C 
BRANCH  22  23
ATOM     23  C   UNL     1      35.020 -15.631 -23.186  0.00  0.00    +0.107 C 
BRANCH  23  26
ATOM     24  O   UNL     1      34.949 -15.942 -20.805  0.00  0.00    -0.275 OA
ATOM     25  N   UNL     1      35.098 -17.861 -22.097  0.00  0.00    -0.279 N 
ATOM     26  C   UNL     1      35.019 -16.476 -21.916  0.00  0.00    +0.227 C 
ATOM     27  C   UNL     1      35.180 -18.474 -23.421  0.00  0.00    +0.115 C 
BRANCH  25  28
ATOM     28  C   UNL     1      35.105 -18.788 -20.991  0.00  0.00    +0.075 C 
ATOM     29  C   UNL     1      36.452 -19.508 -20.904  0.00  0.00    +0.020 C 
ATOM     30  C   UNL     1      33.947 -19.783 -21.111  0.00  0.00    +0.020 C 
ATOM     31  C   UNL     1      36.470 -20.535 -19.774  0.00  0.00    +0.002 C 
ATOM     32  C   UNL     1      33.968 -20.808 -19.979  0.00  0.00    +0.002 C 
ATOM     33  C   UNL     1      35.313 -21.523 -19.893  0.00  0.00    +0.000 C 
ENDBRANCH  25  28
ENDBRANCH  23  26
ENDBRANCH  22  23
ENDBRANCH   1  22
TORSDOF 6
ENDMDL
MODEL 5
REMARK VINA RESULT:     -11.4      2.976     11.505
REMARK  Name = 16741238
REMARK  6 active torsions:
REMARK  status: ('A' for Active; 'I' for Inactive)
REMARK    1  A    between atoms: N_1  and  C_22
REMARK    2  A    between atoms: C_10  and  C_15
REMARK    3  A    between atoms: C_15  and  C_16
REMARK    4  A    between atoms: C_22  and  C_23
REMARK    5  A    between atoms: C_23  and  C_26
REMARK    6  A    between atoms: N_25  and  C_28
REMARK                            x       y       z     vdW  Elec       q    Type
REMARK                         _______ _______ _______ _____ _____    ______ ____
ROOT
ATOM      1  N   UNL     1      31.592 -10.431 -21.022  0.00  0.00    -0.249 N 
ATOM      2  N   UNL     1      32.104  -8.406 -19.831  0.00  0.00    -0.373 NA
ATOM      3  N   UNL     1      32.080 -10.433 -18.716  0.00  0.00    -0.321 N 
ATOM      4  C   UNL     1      31.407  -9.764 -22.312  0.00  0.00    +0.071 C 
ATOM      5  C   UNL     1      31.610  -8.277 -22.232  0.00  0.00    +0.045 C 
ATOM      6  C   UNL     1      31.927  -9.704 -19.876  0.00  0.00    +0.239 C 
ATOM      7  C   UNL     1      31.945  -7.669 -21.015  0.00  0.00    +0.136 C 
ATOM      8  C   UNL     1      31.464  -7.493 -23.386  0.00  0.00    +0.007 C 
ATOM      9  C   UNL     1      32.129  -6.281 -20.970  0.00  0.00    +0.032 C 
ATOM     10  C   UNL     1      31.649  -6.112 -23.330  0.00  0.00    +0.039 C 
ATOM     11  C   UNL     1      31.982  -5.506 -22.121  0.00  0.00    +0.006 C 
ATOM     12  H   UNL     1      31.953 -11.409 -18.728  0.00  0.00    +0.146 HD
ATOM     13  H   UNL     1      32.316  -9.977 -17.876  0.00  0.00    +0.146 HD
ENDROOT
BRANCH  10  15
ATOM     14  O   UNL     1      30.413  -4.752 -24.776  0.00  0.00    -0.287 OA
ATOM     15  C   UNL     1      31.494  -5.307 -24.530  0.00  0.00    +0.196 C 
BRANCH  15  16
ATOM     16  C   UNL     1      32.605  -5.109 -25.509  0.00  0.00    +0.039 C 
ATOM     17  C   UNL     1      33.765  -5.877 -25.414  0.00  0.00    +0.003 C 
ATOM     18  C   UNL     1      32.482  -4.155 -26.520  0.00  0.00    +0.003 C 
ATOM     19  C   UNL     1      34.802  -5.692 -26.329  0.00  0.00    +0.000 C 
ATOM     20  C   UNL     1      33.519  -3.970 -27.435  0.00  0.00    +0.000 C 
ATOM     21  C   UNL     1      34.679  -4.738 -27.339  0.00  0.00    +0.000 C 
ENDBRANCH  15  16
ENDBRANCH  10  15
BRANCH   1  22
ATOM     22  C   UNL     1      31.403 -11.878 -21.040  0.00  0.00    +0.109 C 
BRANCH  22  23
ATOM     23  C   UNL     1      32.303 -12.521 -22.091  0.00  0.00    +0.107 C 
BRANCH  23  26
ATOM     24  O   UNL     1      32.269 -14.511 -20.748  0.00  0.00    -0.275 OA
ATOM     25  N   UNL     1      33.446 -14.626 -22.742  0.00  0.00    -0.279 N 
ATOM     26  C   UNL     1      32.662 -13.972 -21.786  0.00  0.00    +0.227 C 
ATOM     27  C   UNL     1      33.902 -13.969 -23.965  0.00  0.00    +0.115 C 
BRANCH  25  28
ATOM     28  C   UNL     1      33.863 -16.000 -22.593  0.00  0.00    +0.075 C 
ATOM     29  C   UNL     1      34.769 -16.155 -21.369  0.00  0.00    +0.020 C 
ATOM     30  C   UNL     1      34.555 -16.498 -23.865  0.00  0.00    +0.020 C 
ATOM     31  C   UNL     1      35.269 -17.589 -21.216  0.00  0.00    +0.002 C 
ATOM     32  C   UNL     1      35.054 -17.933 -23.708  0.00  0.00    +0.002 C 
ATOM     33  C   UNL     1      35.955 -18.084 -22.486  0.00  0.00    +0.000 C 
ENDBRANCH  25  28
ENDBRANCH  23  26
ENDBRANCH  22  23
ENDBRANCH   1  22
TORSDOF 6
ENDMDL
MODEL 6
REMARK VINA RESULT:     -11.4      5.445      9.819
REMARK  Name = 16741238
REMARK  6 active torsions:
REMARK  status: ('A' for Active; 'I' for Inactive)
REMARK    1  A    between atoms: N_1  and  C_22
REMARK    2  A    between atoms: C_10  and  C_15
REMARK    3  A    between atoms: C_15  and  C_16
REMARK    4  A    between atoms: C_22  and  C_23
REMARK    5  A    between atoms: C_23  and  C_26
REMARK    6  A    between atoms: N_25  and  C_28
REMARK                            x       y       z     vdW  Elec       q    Type
REMARK                         _______ _______ _______ _____ _____    ______ ____
ROOT
ATOM      1  N   UNL     1      34.773 -21.875 -19.175  0.00  0.00    -0.249 N 
ATOM      2  N   UNL     1      32.600 -22.425 -18.304  0.00  0.00    -0.373 NA
ATOM      3  N   UNL     1      32.804 -21.508 -20.418  0.00  0.00    -0.321 N 
ATOM      4  C   UNL     1      35.494 -22.326 -17.984  0.00  0.00    +0.071 C 
ATOM      5  C   UNL     1      34.578 -22.852 -16.914  0.00  0.00    +0.045 C 
ATOM      6  C   UNL     1      33.379 -21.958 -19.250  0.00  0.00    +0.239 C 
ATOM      7  C   UNL     1      33.191 -22.879 -17.115  0.00  0.00    +0.136 C 
ATOM      8  C   UNL     1      35.117 -23.319 -15.707  0.00  0.00    +0.007 C 
ATOM      9  C   UNL     1      32.362 -23.376 -16.101  0.00  0.00    +0.032 C 
ATOM     10  C   UNL     1      34.282 -23.810 -14.704  0.00  0.00    +0.039 C 
ATOM     11  C   UNL     1      32.904 -23.839 -14.901  0.00  0.00    +0.006 C 
ATOM     12  H   UNL     1      33.371 -21.155 -21.141  0.00  0.00    +0.146 HD
ATOM     13  H   UNL     1      31.826 -21.541 -20.530  0.00  0.00    +0.146 HD
ENDROOT
BRANCH  10  15
ATOM     14  O   UNL     1      34.144 -24.369 -12.437  0.00  0.00    -0.287 OA
ATOM     15  C   UNL     1      34.849 -24.292 -13.455  0.00  0.00    +0.196 C 
BRANCH  15  16
ATOM     16  C   UNL     1      36.278 -24.711 -13.333  0.00  0.00    +0.039 C 
ATOM     17  C   UNL     1      36.745 -25.813 -14.050  0.00  0.00    +0.003 C 
ATOM     18  C   UNL     1      37.145 -24.001 -12.503  0.00  0.00    +0.003 C 
ATOM     19  C   UNL     1      38.079 -26.203 -13.937  0.00  0.00    +0.000 C 
ATOM     20  C   UNL     1      38.479 -24.392 -12.390  0.00  0.00    +0.000 C 
ATOM     21  C   UNL     1      38.946 -25.494 -13.107  0.00  0.00    +0.000 C 
ENDBRANCH  15  16
ENDBRANCH  10  15
BRANCH   1  22
ATOM     22  C   UNL     1      35.613 -21.350 -20.247  0.00  0.00    +0.109 C 
BRANCH  22  23
ATOM     23  C   UNL     1      36.141 -19.965 -19.881  0.00  0.00    +0.107 C 
BRANCH  23  26
ATOM     24  O   UNL     1      37.501 -18.948 -21.579  0.00  0.00    -0.275 OA
ATOM     25  N   UNL     1      35.251 -18.388 -21.579  0.00  0.00    -0.279 N 
ATOM     26  C   UNL     1      36.375 -19.060 -21.087  0.00  0.00    +0.227 C 
ATOM     27  C   UNL     1      33.926 -18.534 -20.981  0.00  0.00    +0.115 C 
BRANCH  25  28
ATOM     28  C   UNL     1      35.317 -17.500 -22.715  0.00  0.00    +0.075 C 
ATOM     29  C   UNL     1      34.574 -16.195 -22.418  0.00  0.00    +0.020 C 
ATOM     30  C   UNL     1      34.765 -18.182 -23.969  0.00  0.00    +0.020 C 
ATOM     31  C   UNL     1      34.581 -15.256 -23.622  0.00  0.00    +0.002 C 
ATOM     32  C   UNL     1      34.773 -17.241 -25.172  0.00  0.00    +0.002 C 
ATOM     33  C   UNL     1      34.035 -15.940 -24.872  0.00  0.00    +0.000 C 
ENDBRANCH  25  28
ENDBRANCH  23  26
ENDBRANCH  22  23
ENDBRANCH   1  22
TORSDOF 6
ENDMDL
MODEL 7
REMARK VINA RESULT:     -11.4      4.637      7.965
REMARK  Name = 16741238
REMARK  6 active torsions:
REMARK  status: ('A' for Active; 'I' for Inactive)
REMARK    1  A    between atoms: N_1  and  C_22
REMARK    2  A    between atoms: C_10  and  C_15
REMARK    3  A    between atoms: C_15  and  C_16
REMARK    4  A    between atoms: C_22  and  C_23
REMARK    5  A    between atoms: C_23  and  C_26
REMARK    6  A    between atoms: N_25  and  C_28
REMARK                            x       y       z     vdW  Elec       q    Type
REMARK                         _______ _______ _______ _____ _____    ______ ____
ROOT
ATOM      1  N   UNL     1      34.647 -20.476 -20.603  0.00  0.00    -0.249 N 
ATOM      2  N   UNL     1      33.175 -21.682 -19.131  0.00  0.00    -0.373 NA
ATOM      3  N   UNL     1      32.325 -20.601 -20.992  0.00  0.00    -0.321 N 
ATOM      4  C   UNL     1      35.856 -20.784 -19.837  0.00  0.00    +0.071 C 
ATOM      5  C   UNL     1      35.576 -21.621 -18.621  0.00  0.00    +0.045 C 
ATOM      6  C   UNL     1      33.395 -20.948 -20.195  0.00  0.00    +0.239 C 
ATOM      7  C   UNL     1      34.269 -22.030 -18.322  0.00  0.00    +0.136 C 
ATOM      8  C   UNL     1      36.632 -21.997 -17.779  0.00  0.00    +0.007 C 
ATOM      9  C   UNL     1      34.038 -22.811 -17.183  0.00  0.00    +0.032 C 
ATOM     10  C   UNL     1      36.391 -22.775 -16.646  0.00  0.00    +0.039 C 
ATOM     11  C   UNL     1      35.093 -23.182 -16.349  0.00  0.00    +0.006 C 
ATOM     12  H   UNL     1      32.468 -20.052 -21.796  0.00  0.00    +0.146 HD
ATOM     13  H   UNL     1      31.419 -20.904 -20.756  0.00  0.00    +0.146 HD
ENDROOT
BRANCH  10  15
ATOM     14  O   UNL     1      38.638 -22.740 -15.998  0.00  0.00    -0.287 OA
ATOM     15  C   UNL     1      37.492 -23.160 -15.779  0.00  0.00    +0.196 C 
BRANCH  15  16
ATOM     16  C   UNL     1      37.306 -24.059 -14.600  0.00  0.00    +0.039 C 
ATOM     17  C   UNL     1      37.012 -23.518 -13.349  0.00  0.00    +0.003 C 
ATOM     18  C   UNL     1      37.425 -25.441 -14.752  0.00  0.00    +0.003 C 
ATOM     19  C   UNL     1      36.837 -24.358 -12.249  0.00  0.00    +0.000 C 
ATOM     20  C   UNL     1      37.250 -26.281 -13.652  0.00  0.00    +0.000 C 
ATOM     21  C   UNL     1      36.957 -25.739 -12.400  0.00  0.00    +0.000 C 
ENDBRANCH  15  16
ENDBRANCH  10  15
BRANCH   1  22
ATOM     22  C   UNL     1      34.858 -19.660 -21.794  0.00  0.00    +0.109 C 
BRANCH  22  23
ATOM     23  C   UNL     1      35.923 -18.599 -21.531  0.00  0.00    +0.107 C 
BRANCH  23  26
ATOM     24  O   UNL     1      35.278 -16.797 -20.081  0.00  0.00    -0.275 OA
ATOM     25  N   UNL     1      34.929 -16.477 -22.350  0.00  0.00    -0.279 N 
ATOM     26  C   UNL     1      35.351 -17.215 -21.240  0.00  0.00    +0.227 C 
ATOM     27  C   UNL     1      35.024 -16.990 -23.715  0.00  0.00    +0.115 C 
BRANCH  25  28
ATOM     28  C   UNL     1      34.369 -15.152 -22.232  0.00  0.00    +0.075 C 
ATOM     29  C   UNL     1      33.004 -15.207 -21.541  0.00  0.00    +0.020 C 
ATOM     30  C   UNL     1      34.272 -14.479 -23.604  0.00  0.00    +0.020 C 
ATOM     31  C   UNL     1      32.363 -13.825 -21.449  0.00  0.00    +0.002 C 
ATOM     32  C   UNL     1      33.631 -13.097 -23.508  0.00  0.00    +0.002 C 
ATOM     33  C   UNL     1      32.272 -13.155 -22.817  0.00  0.00    +0.000 C 
ENDBRANCH  25  28
ENDBRANCH  23  26
ENDBRANCH  22  23
ENDBRANCH   1  22
TORSDOF 6
ENDMDL
MODEL 8
REMARK VINA RESULT:     -11.3      2.363     10.166
REMARK  Name = 16741238
REMARK  6 active torsions:
REMARK  status: ('A' for Active; 'I' for Inactive)
REMARK    1  A    between atoms: N_1  and  C_22
REMARK    2  A    between atoms: C_10  and  C_15
REMARK    3  A    between atoms: C_15  and  C_16
REMARK    4  A    between atoms: C_22  and  C_23
REMARK    5  A    between atoms: C_23  and  C_26
REMARK    6  A    between atoms: N_25  and  C_28
REMARK                            x       y       z     vdW  Elec       q    Type
REMARK                         _______ _______ _______ _____ _____    ______ ____
ROOT
ATOM      1  N   UNL     1      35.215 -17.821 -23.351  0.00  0.00    -0.249 N 
ATOM      2  N   UNL     1      34.030 -17.424 -25.406  0.00  0.00    -0.373 NA
ATOM      3  N   UNL     1      34.792 -19.548 -24.897  0.00  0.00    -0.321 N 
ATOM      4  C   UNL     1      35.131 -16.431 -22.898  0.00  0.00    +0.071 C 
ATOM      5  C   UNL     1      34.412 -15.544 -23.875  0.00  0.00    +0.045 C 
ATOM      6  C   UNL     1      34.658 -18.217 -24.571  0.00  0.00    +0.239 C 
ATOM      7  C   UNL     1      33.899 -16.068 -25.069  0.00  0.00    +0.136 C 
ATOM      8  C   UNL     1      34.253 -14.180 -23.587  0.00  0.00    +0.007 C 
ATOM      9  C   UNL     1      33.232 -15.217 -25.960  0.00  0.00    +0.032 C 
ATOM     10  C   UNL     1      33.587 -13.342 -24.481  0.00  0.00    +0.039 C 
ATOM     11  C   UNL     1      33.077 -13.861 -25.669  0.00  0.00    +0.006 C 
ATOM     12  H   UNL     1      35.259 -20.161 -24.284  0.00  0.00    +0.146 HD
ATOM     13  H   UNL     1      34.420 -19.887 -25.744  0.00  0.00    +0.146 HD
ENDROOT
BRANCH  10  15
ATOM     14  O   UNL     1      33.934 -11.070 -24.911  0.00  0.00    -0.287 OA
ATOM     15  C   UNL     1      33.427 -11.931 -24.176  0.00  0.00    +0.196 C 
BRANCH  15  16
ATOM     16  C   UNL     1      32.659 -11.451 -22.988  0.00  0.00    +0.039 C 
ATOM     17  C   UNL     1      32.082 -12.370 -22.112  0.00  0.00    +0.003 C 
ATOM     18  C   UNL     1      32.520 -10.082 -22.753  0.00  0.00    +0.003 C 
ATOM     19  C   UNL     1      31.366 -11.921 -21.002  0.00  0.00    +0.000 C 
ATOM     20  C   UNL     1      31.804  -9.634 -21.644  0.00  0.00    +0.000 C 
ATOM     21  C   UNL     1      31.226 -10.554 -20.768  0.00  0.00    +0.000 C 
ENDBRANCH  15  16
ENDBRANCH  10  15
BRANCH   1  22
ATOM     22  C   UNL     1      35.908 -18.728 -22.442  0.00  0.00    +0.109 C 
BRANCH  22  23
ATOM     23  C   UNL     1      34.930 -19.323 -21.434  0.00  0.00    +0.107 C 
BRANCH  23  26
ATOM     24  O   UNL     1      36.799 -20.421 -20.402  0.00  0.00    -0.275 OA
ATOM     25  N   UNL     1      34.692 -21.073 -19.689  0.00  0.00    -0.279 N 
ATOM     26  C   UNL     1      35.572 -20.316 -20.469  0.00  0.00    +0.227 C 
ATOM     27  C   UNL     1      33.240 -20.933 -19.785  0.00  0.00    +0.115 C 
BRANCH  25  28
ATOM     28  C   UNL     1      35.152 -22.050 -18.731  0.00  0.00    +0.075 C 
ATOM     29  C   UNL     1      33.976 -22.598 -17.918  0.00  0.00    +0.020 C 
ATOM     30  C   UNL     1      36.228 -21.451 -17.820  0.00  0.00    +0.020 C 
ATOM     31  C   UNL     1      34.440 -23.596 -16.860  0.00  0.00    +0.002 C 
ATOM     32  C   UNL     1      36.689 -22.451 -16.763  0.00  0.00    +0.002 C 
ATOM     33  C   UNL     1      35.515 -22.998 -15.956  0.00  0.00    +0.000 C 
ENDBRANCH  25  28
ENDBRANCH  23  26
ENDBRANCH  22  23
ENDBRANCH   1  22
TORSDOF 6
ENDMDL
MODEL 9
REMARK VINA RESULT:     -11.2      2.093      3.217
REMARK  Name = 16741238
REMARK  6 active torsions:
REMARK  status: ('A' for Active; 'I' for Inactive)
REMARK    1  A    between atoms: N_1  and  C_22
REMARK    2  A    between atoms: C_10  and  C_15
REMARK    3  A    between atoms: C_15  and  C_16
REMARK    4  A    between atoms: C_22  and  C_23
REMARK    5  A    between atoms: C_23  and  C_26
REMARK    6  A    between atoms: N_25  and  C_28
REMARK                            x       y       z     vdW  Elec       q    Type
REMARK                         _______ _______ _______ _____ _____    ______ ____
ROOT
ATOM      1  N   UNL     1      32.927 -12.271 -23.272  0.00  0.00    -0.249 N 
ATOM      2  N   UNL     1      31.902 -13.442 -21.438  0.00  0.00    -0.373 NA
ATOM      3  N   UNL     1      31.152 -11.337 -22.035  0.00  0.00    -0.321 N 
ATOM      4  C   UNL     1      33.882 -13.339 -23.573  0.00  0.00    +0.071 C 
ATOM      5  C   UNL     1      33.745 -14.518 -22.651  0.00  0.00    +0.045 C 
ATOM      6  C   UNL     1      32.006 -12.400 -22.228  0.00  0.00    +0.239 C 
ATOM      7  C   UNL     1      32.776 -14.522 -21.638  0.00  0.00    +0.136 C 
ATOM      8  C   UNL     1      34.594 -15.624 -22.807  0.00  0.00    +0.007 C 
ATOM      9  C   UNL     1      32.671 -15.635 -20.795  0.00  0.00    +0.032 C 
ATOM     10  C   UNL     1      34.480 -16.727 -21.962  0.00  0.00    +0.039 C 
ATOM     11  C   UNL     1      33.518 -16.732 -20.955  0.00  0.00    +0.006 C 
ATOM     12  H   UNL     1      31.212 -10.545 -22.618  0.00  0.00    +0.146 HD
ATOM     13  H   UNL     1      30.481 -11.369 -21.315  0.00  0.00    +0.146 HD
ENDROOT
BRANCH  10  15
ATOM     14  O   UNL     1      36.211 -17.876 -23.036  0.00  0.00    -0.287 OA
ATOM     15  C   UNL     1      35.364 -17.868 -22.130  0.00  0.00    +0.196 C 
BRANCH  15  16
ATOM     16  C   UNL     1      35.303 -19.066 -21.239  0.00  0.00    +0.039 C 
ATOM     17  C   UNL     1      34.080 -19.688 -20.988  0.00  0.00    +0.003 C 
ATOM     18  C   UNL     1      36.470 -19.564 -20.659  0.00  0.00    +0.003 C 
ATOM     19  C   UNL     1      34.024 -20.807 -20.157  0.00  0.00    +0.000 C 
ATOM     20  C   UNL     1      36.414 -20.683 -19.829  0.00  0.00    +0.000 C 
ATOM     21  C   UNL     1      35.191 -21.304 -19.577  0.00  0.00    +0.000 C 
ENDBRANCH  15  16
ENDBRANCH  10  15
BRANCH   1  22
ATOM     22  C   UNL     1      33.018 -11.098 -24.135  0.00  0.00    +0.109 C 
BRANCH  22  23
ATOM     23  C   UNL     1      33.331  -9.852 -23.310  0.00  0.00    +0.107 C 
BRANCH  23  26
ATOM     24  O   UNL     1      31.139  -8.873 -23.376  0.00  0.00    -0.275 OA
ATOM     25  N   UNL     1      32.912  -7.484 -23.926  0.00  0.00    -0.279 N 
ATOM     26  C   UNL     1      32.351  -8.705 -23.536  0.00  0.00    +0.227 C 
ATOM     27  C   UNL     1      34.351  -7.306 -24.111  0.00  0.00    +0.115 C 
BRANCH  25  28
ATOM     28  C   UNL     1      32.112  -6.309 -24.174  0.00  0.00    +0.075 C 
ATOM     29  C   UNL     1      32.723  -5.473 -25.302  0.00  0.00    +0.020 C 
ATOM     30  C   UNL     1      31.949  -5.484 -22.894  0.00  0.00    +0.020 C 
ATOM     31  C   UNL     1      31.926  -4.195 -25.551  0.00  0.00    +0.002 C 
ATOM     32  C   UNL     1      31.152  -4.206 -23.147  0.00  0.00    +0.002 C 
ATOM     33  C   UNL     1      31.762  -3.377 -24.273  0.00  0.00    +0.000 C 
ENDBRANCH  25  28
ENDBRANCH  23  26
ENDBRANCH  22  23
ENDBRANCH   1  22
TORSDOF 6
ENDMDL
