MODEL 1
REMARK VINA RESULT:      -6.3      0.000      0.000
REMARK  Name = 7405
REMARK  2 active torsions:
REMARK  status: ('A' for Active; 'I' for Inactive)
REMARK    1  A    between atoms: CA_3  and  C_9
REMARK    2  A    between atoms: C_9  and  O_10
REMARK                            x       y       z     vdW  Elec       q    Type
REMARK                         _______ _______ _______ _____ _____    ______ ____
ROOT
ATOM      1  O   UNL     1      36.150 -26.542 -15.735  0.00  0.00    -0.275 OA
ATOM      2  N   UNL     1      38.093 -25.290 -15.366  0.00  0.00    -0.297 N 
ATOM      3  CA  UNL     1      39.066 -25.128 -14.322  0.00  0.00    +0.172 C 
ATOM      4  C   UNL     1      38.364 -25.662 -13.089  0.00  0.00    +0.041 C 
ATOM      5  C   UNL     1      37.363 -26.681 -13.634  0.00  0.00    +0.087 C 
ATOM      6  C   UNL     1      37.082 -26.183 -15.031  0.00  0.00    +0.223 C 
ATOM      7  H   UNL     1      38.138 -24.817 -16.229  0.00  0.00    +0.150 HD
ENDROOT
BRANCH   3   9
ATOM      8  OXT UNL     1      40.983 -26.541 -13.933  0.00  0.00    -0.248 OA
ATOM      9  C   UNL     1      40.256 -25.945 -14.712  0.00  0.00    +0.332 C 
BRANCH   9  10
ATOM     10  O   UNL     1      40.424 -25.932 -16.057  0.00  0.00    -0.479 OA
ATOM     11  H   UNL     1      39.730 -25.638 -16.614  0.00  0.00    +0.295 HD
ENDBRANCH   9  10
ENDBRANCH   3   9
TORSDOF 2
ENDMDL
MODEL 2
REMARK VINA RESULT:      -5.8      2.033      2.521
REMARK  Name = 7405
REMARK  2 active torsions:
REMARK  status: ('A' for Active; 'I' for Inactive)
REMARK    1  A    between atoms: CA_3  and  C_9
REMARK    2  A    between atoms: C_9  and  O_10
REMARK                            x       y       z     vdW  Elec       q    Type
REMARK                         _______ _______ _______ _____ _____    ______ ____
ROOT
ATOM      1  O   UNL     1      37.913 -24.525 -11.327  0.00  0.00    -0.275 OA
ATOM      2  N   UNL     1      38.747 -25.942 -12.993  0.00  0.00    -0.297 N 
ATOM      3  CA  UNL     1      38.760 -25.995 -14.428  0.00  0.00    +0.172 C 
ATOM      4  C   UNL     1      37.631 -25.068 -14.835  0.00  0.00    +0.041 C 
ATOM      5  C   UNL     1      37.530 -24.069 -13.682  0.00  0.00    +0.087 C 
ATOM      6  C   UNL     1      38.053 -24.844 -12.497  0.00  0.00    +0.223 C 
ATOM      7  H   UNL     1      39.183 -26.614 -12.421  0.00  0.00    +0.150 HD
ENDROOT
BRANCH   3   9
ATOM      8  OXT UNL     1      40.854 -24.819 -14.184  0.00  0.00    -0.248 OA
ATOM      9  C   UNL     1      40.103 -25.501 -14.864  0.00  0.00    +0.332 C 
BRANCH   9  10
ATOM     10  O   UNL     1      40.375 -25.911 -16.127  0.00  0.00    -0.479 OA
ATOM     11  H   UNL     1      40.653 -25.291 -16.772  0.00  0.00    +0.295 HD
ENDBRANCH   9  10
ENDBRANCH   3   9
TORSDOF 2
ENDMDL
MODEL 3
REMARK VINA RESULT:      -5.7      1.315      3.390
REMARK  Name = 7405
REMARK  2 active torsions:
REMARK  status: ('A' for Active; 'I' for Inactive)
REMARK    1  A    between atoms: CA_3  and  C_9
REMARK    2  A    between atoms: C_9  and  O_10
REMARK                            x       y       z     vdW  Elec       q    Type
REMARK                         _______ _______ _______ _____ _____    ______ ____
ROOT
ATOM      1  O   UNL     1      40.507 -25.043 -14.044  0.00  0.00    -0.275 OA
ATOM      2  N   UNL     1      38.803 -26.618 -14.353  0.00  0.00    -0.297 N 
ATOM      3  CA  UNL     1      37.412 -26.750 -14.022  0.00  0.00    +0.172 C 
ATOM      4  C   UNL     1      37.210 -25.750 -12.900  0.00  0.00    +0.041 C 
ATOM      5  C   UNL     1      38.278 -24.685 -13.147  0.00  0.00    +0.087 C 
ATOM      6  C   UNL     1      39.363 -25.437 -13.879  0.00  0.00    +0.223 C 
ATOM      7  H   UNL     1      39.307 -27.293 -14.862  0.00  0.00    +0.150 HD
ENDROOT
BRANCH   3   9
ATOM      8  OXT UNL     1      35.867 -25.462 -15.356  0.00  0.00    -0.248 OA
ATOM      9  C   UNL     1      36.641 -26.401 -15.255  0.00  0.00    +0.332 C 
BRANCH   9  10
ATOM     10  O   UNL     1      36.915 -27.276 -16.253  0.00  0.00    -0.479 OA
ATOM     11  H   UNL     1      37.521 -27.976 -16.110  0.00  0.00    +0.295 HD
ENDBRANCH   9  10
ENDBRANCH   3   9
TORSDOF 2
ENDMDL
MODEL 4
REMARK VINA RESULT:      -5.6      2.336      2.943
REMARK  Name = 7405
REMARK  2 active torsions:
REMARK  status: ('A' for Active; 'I' for Inactive)
REMARK    1  A    between atoms: CA_3  and  C_9
REMARK    2  A    between atoms: C_9  and  O_10
REMARK                            x       y       z     vdW  Elec       q    Type
REMARK                         _______ _______ _______ _____ _____    ______ ____
ROOT
ATOM      1  O   UNL     1      36.678 -27.268 -15.982  0.00  0.00    -0.275 OA
ATOM      2  N   UNL     1      38.115 -26.641 -14.245  0.00  0.00    -0.297 N 
ATOM      3  CA  UNL     1      38.399 -25.459 -13.480  0.00  0.00    +0.172 C 
ATOM      4  C   UNL     1      37.839 -24.335 -14.330  0.00  0.00    +0.041 C 
ATOM      5  C   UNL     1      36.716 -24.992 -15.133  0.00  0.00    +0.087 C 
ATOM      6  C   UNL     1      37.143 -26.437 -15.217  0.00  0.00    +0.223 C 
ATOM      7  H   UNL     1      38.564 -27.504 -14.096  0.00  0.00    +0.150 HD
ENDROOT
BRANCH   3   9
ATOM      8  OXT UNL     1      36.989 -26.564 -11.862  0.00  0.00    -0.248 OA
ATOM      9  C   UNL     1      37.684 -25.610 -12.175  0.00  0.00    +0.332 C 
BRANCH   9  10
ATOM     10  O   UNL     1      37.910 -24.535 -11.380  0.00  0.00    -0.479 OA
ATOM     11  H   UNL     1      37.963 -24.642 -10.451  0.00  0.00    +0.295 HD
ENDBRANCH   9  10
ENDBRANCH   3   9
TORSDOF 2
ENDMDL
MODEL 5
REMARK VINA RESULT:      -5.5      2.419      3.294
REMARK  Name = 7405
REMARK  2 active torsions:
REMARK  status: ('A' for Active; 'I' for Inactive)
REMARK    1  A    between atoms: CA_3  and  C_9
REMARK    2  A    between atoms: C_9  and  O_10
REMARK                            x       y       z     vdW  Elec       q    Type
REMARK                         _______ _______ _______ _____ _____    ______ ____
ROOT
ATOM      1  O   UNL     1      35.479 -25.098 -11.029  0.00  0.00    -0.275 OA
ATOM      2  N   UNL     1      35.778 -25.167 -13.349  0.00  0.00    -0.297 N 
ATOM      3  CA  UNL     1      36.873 -25.118 -14.277  0.00  0.00    +0.172 C 
ATOM      4  C   UNL     1      38.005 -24.514 -13.469  0.00  0.00    +0.041 C 
ATOM      5  C   UNL     1      37.686 -24.899 -12.025  0.00  0.00    +0.087 C 
ATOM      6  C   UNL     1      36.184 -25.051 -12.025  0.00  0.00    +0.223 C 
ATOM      7  H   UNL     1      34.838 -25.271 -13.624  0.00  0.00    +0.150 HD
ENDROOT
BRANCH   3   9
ATOM      8  OXT UNL     1      38.241 -27.070 -14.659  0.00  0.00    -0.248 OA
ATOM      9  C   UNL     1      37.147 -26.528 -14.694  0.00  0.00    +0.332 C 
BRANCH   9  10
ATOM     10  O   UNL     1      36.010 -27.128 -15.123  0.00  0.00    -0.479 OA
ATOM     11  H   UNL     1      35.251 -26.613 -15.315  0.00  0.00    +0.295 HD
ENDBRANCH   9  10
ENDBRANCH   3   9
TORSDOF 2
ENDMDL
MODEL 6
REMARK VINA RESULT:      -5.5      2.296      3.202
REMARK  Name = 7405
REMARK  2 active torsions:
REMARK  status: ('A' for Active; 'I' for Inactive)
REMARK    1  A    between atoms: CA_3  and  C_9
REMARK    2  A    between atoms: C_9  and  O_10
REMARK                            x       y       z     vdW  Elec       q    Type
REMARK                         _______ _______ _______ _____ _____    ______ ____
ROOT
ATOM      1  O   UNL     1      38.724 -23.442 -11.646  0.00  0.00    -0.275 OA
ATOM      2  N   UNL     1      38.091 -25.553 -12.436  0.00  0.00    -0.297 N 
ATOM      3  CA  UNL     1      37.204 -26.088 -13.431  0.00  0.00    +0.172 C 
ATOM      4  C   UNL     1      36.244 -24.947 -13.711  0.00  0.00    +0.041 C 
ATOM      5  C   UNL     1      37.050 -23.689 -13.389  0.00  0.00    +0.087 C 
ATOM      6  C   UNL     1      38.053 -24.164 -12.366  0.00  0.00    +0.223 C 
ATOM      7  H   UNL     1      38.665 -26.111 -11.864  0.00  0.00    +0.150 HD
ENDROOT
BRANCH   3   9
ATOM      8  OXT UNL     1      39.254 -26.624 -14.586  0.00  0.00    -0.248 OA
ATOM      9  C   UNL     1      38.047 -26.440 -14.615  0.00  0.00    +0.332 C 
BRANCH   9  10
ATOM     10  O   UNL     1      37.287 -26.525 -15.734  0.00  0.00    -0.479 OA
ATOM     11  H   UNL     1      37.469 -25.972 -16.467  0.00  0.00    +0.295 HD
ENDBRANCH   9  10
ENDBRANCH   3   9
TORSDOF 2
ENDMDL
MODEL 7
REMARK VINA RESULT:      -5.4     10.773     11.693
REMARK  Name = 7405
REMARK  2 active torsions:
REMARK  status: ('A' for Active; 'I' for Inactive)
REMARK    1  A    between atoms: CA_3  and  C_9
REMARK    2  A    between atoms: C_9  and  O_10
REMARK                            x       y       z     vdW  Elec       q    Type
REMARK                         _______ _______ _______ _____ _____    ______ ____
ROOT
ATOM      1  O   UNL     1      42.379 -16.428 -19.257  0.00  0.00    -0.275 OA
ATOM      2  N   UNL     1      42.566 -15.896 -16.985  0.00  0.00    -0.297 N 
ATOM      3  CA  UNL     1      42.093 -14.873 -16.095  0.00  0.00    +0.172 C 
ATOM      4  C   UNL     1      41.703 -13.739 -17.023  0.00  0.00    +0.041 C 
ATOM      5  C   UNL     1      41.343 -14.433 -18.337  0.00  0.00    +0.087 C 
ATOM      6  C   UNL     1      42.160 -15.701 -18.300  0.00  0.00    +0.223 C 
ATOM      7  H   UNL     1      43.121 -16.655 -16.693  0.00  0.00    +0.150 HD
ENDROOT
BRANCH   3   9
ATOM      8  OXT UNL     1      40.388 -16.513 -15.622  0.00  0.00    -0.248 OA
ATOM      9  C   UNL     1      40.926 -15.449 -15.360  0.00  0.00    +0.332 C 
BRANCH   9  10
ATOM     10  O   UNL     1      40.538 -14.622 -14.357  0.00  0.00    -0.479 OA
ATOM     11  H   UNL     1      39.718 -14.173 -14.411  0.00  0.00    +0.295 HD
ENDBRANCH   9  10
ENDBRANCH   3   9
TORSDOF 2
ENDMDL
MODEL 8
REMARK VINA RESULT:      -5.2      2.692      3.363
REMARK  Name = 7405
REMARK  2 active torsions:
REMARK  status: ('A' for Active; 'I' for Inactive)
REMARK    1  A    between atoms: CA_3  and  C_9
REMARK    2  A    between atoms: C_9  and  O_10
REMARK                            x       y       z     vdW  Elec       q    Type
REMARK                         _______ _______ _______ _____ _____    ______ ____
ROOT
ATOM      1  O   UNL     1      36.027 -25.272 -15.418  0.00  0.00    -0.275 OA
ATOM      2  N   UNL     1      36.753 -25.644 -13.224  0.00  0.00    -0.297 N 
ATOM      3  CA  UNL     1      37.968 -25.501 -12.473  0.00  0.00    +0.172 C 
ATOM      4  C   UNL     1      39.046 -25.438 -13.538  0.00  0.00    +0.041 C 
ATOM      5  C   UNL     1      38.332 -24.870 -14.764  0.00  0.00    +0.087 C 
ATOM      6  C   UNL     1      36.896 -25.288 -14.560  0.00  0.00    +0.223 C 
ATOM      7  H   UNL     1      35.907 -25.962 -12.833  0.00  0.00    +0.150 HD
ENDROOT
BRANCH   3   9
ATOM      8  OXT UNL     1      38.637 -23.300 -11.741  0.00  0.00    -0.248 OA
ATOM      9  C   UNL     1      37.846 -24.230 -11.695  0.00  0.00    +0.332 C 
BRANCH   9  10
ATOM     10  O   UNL     1      36.732 -24.248 -10.922  0.00  0.00    -0.479 OA
ATOM     11  H   UNL     1      36.438 -25.052 -10.543  0.00  0.00    +0.295 HD
ENDBRANCH   9  10
ENDBRANCH   3   9
TORSDOF 2
ENDMDL
MODEL 9
REMARK VINA RESULT:      -5.2      3.428      4.704
REMARK  Name = 7405
REMARK  2 active torsions:
REMARK  status: ('A' for Active; 'I' for Inactive)
REMARK    1  A    between atoms: CA_3  and  C_9
REMARK    2  A    between atoms: C_9  and  O_10
REMARK                            x       y       z     vdW  Elec       q    Type
REMARK                         _______ _______ _______ _____ _____    ______ ____
ROOT
ATOM      1  O   UNL     1      39.014 -26.031 -13.117  0.00  0.00    -0.275 OA
ATOM      2  N   UNL     1      37.868 -24.554 -11.709  0.00  0.00    -0.297 N 
ATOM      3  CA  UNL     1      36.850 -23.548 -11.833  0.00  0.00    +0.172 C 
ATOM      4  C   UNL     1      36.867 -23.197 -13.308  0.00  0.00    +0.041 C 
ATOM      5  C   UNL     1      37.376 -24.466 -13.993  0.00  0.00    +0.087 C 
ATOM      6  C   UNL     1      38.213 -25.130 -12.927  0.00  0.00    +0.223 C 
ATOM      7  H   UNL     1      38.277 -24.809 -10.851  0.00  0.00    +0.150 HD
ENDROOT
BRANCH   3   9
ATOM      8  OXT UNL     1      35.465 -25.065 -10.565  0.00  0.00    -0.248 OA
ATOM      9  C   UNL     1      35.565 -24.181 -11.403  0.00  0.00    +0.332 C 
BRANCH   9  10
ATOM     10  O   UNL     1      34.519 -23.641 -12.074  0.00  0.00    -0.479 OA
ATOM     11  H   UNL     1      34.151 -24.091 -12.809  0.00  0.00    +0.295 HD
ENDBRANCH   9  10
ENDBRANCH   3   9
TORSDOF 2
ENDMDL
