MODEL 1
REMARK VINA RESULT:      -9.2      0.000      0.000
REMARK  Name = 11779629
REMARK  9 active torsions:
REMARK  status: ('A' for Active; 'I' for Inactive)
REMARK    1  A    between atoms: N_1  and  C_4
REMARK    2  A    between atoms: N_1  and  C_17
REMARK    3  A    between atoms: C_4  and  C_6
REMARK    4  A    between atoms: C_6  and  C_7
REMARK    5  A    between atoms: C_6  and  O_15
REMARK    6  A    between atoms: C_12  and  O_13
REMARK    7  A    between atoms: C_17  and  C_19
REMARK    8  A    between atoms: C_19  and  O_20
REMARK    9  A    between atoms: O_20  and  C_21
REMARK                            x       y       z     vdW  Elec       q    Type
REMARK                         _______ _______ _______ _____ _____    ______ ____
ROOT
ATOM      1  N   UNL     1      34.535 -22.807 -14.993  0.00  0.00    +0.391 N 
ATOM      2  H   UNL     1      35.153 -22.206 -14.447  0.00  0.00    -0.084 HD
ATOM      3  H   UNL     1      33.654 -22.327 -15.178  0.00  0.00    -0.084 HD
ENDROOT
BRANCH   1   4
ATOM      4  C   UNL     1      34.256 -24.032 -14.231  0.00  0.00    -0.030 C 
ATOM      5  C   UNL     1      32.814 -23.957 -13.729  0.00  0.00    -0.021 C 
BRANCH   4   6
ATOM      6  C   UNL     1      35.279 -24.172 -13.082  0.00  0.00    +0.113 C 
BRANCH   6   7
ATOM      7  C   UNL     1      36.573 -24.840 -13.496  0.00  0.00    +0.002 C 
ATOM      8  C   UNL     1      37.759 -24.442 -12.902  0.00  0.00    +0.001 C 
ATOM      9  C   UNL     1      36.542 -25.833 -14.459  0.00  0.00    +0.001 C 
ATOM     10  C   UNL     1      38.951 -25.058 -13.283  0.00  0.00    +0.036 C 
ATOM     11  C   UNL     1      37.734 -26.449 -14.840  0.00  0.00    +0.036 C 
ATOM     12  C   UNL     1      38.938 -26.062 -14.252  0.00  0.00    +0.134 C 
BRANCH  12  13
ATOM     13  O   UNL     1      40.102 -26.661 -14.625  0.00  0.00    -0.506 OA
ATOM     14  H   UNL     1      40.182 -27.594 -14.585  0.00  0.00    +0.292 HD
ENDBRANCH  12  13
ENDBRANCH   6   7
BRANCH   6  15
ATOM     15  O   UNL     1      34.724 -24.966 -12.030  0.00  0.00    -0.382 OA
ATOM     16  H   UNL     1      34.165 -24.409 -11.465  0.00  0.00    +0.211 HD
ENDBRANCH   6  15
ENDBRANCH   4   6
ENDBRANCH   1   4
BRANCH   1  17
ATOM     17  C   UNL     1      35.171 -23.126 -16.258  0.00  0.00    -0.017 C 
ATOM     18  C   UNL     1      36.469 -22.332 -16.408  0.00  0.00    -0.020 C 
BRANCH  17  19
ATOM     19  C   UNL     1      34.195 -22.840 -17.400  0.00  0.00    +0.184 C 
BRANCH  19  20
ATOM     20  O   UNL     1      34.910 -22.729 -18.625  0.00  0.00    -0.478 OA
BRANCH  20  21
ATOM     21  C   UNL     1      34.610 -21.654 -19.419  0.00  0.00    +0.138 C 
ATOM     22  C   UNL     1      33.283 -21.282 -19.601  0.00  0.00    +0.037 C 
ATOM     23  C   UNL     1      35.635 -20.947 -20.036  0.00  0.00    +0.037 C 
ATOM     24  C   UNL     1      32.977 -20.187 -20.411  0.00  0.00    +0.003 C 
ATOM     25  C   UNL     1      35.330 -19.853 -20.847  0.00  0.00    +0.003 C 
ATOM     26  C   UNL     1      34.002 -19.473 -21.033  0.00  0.00    +0.000 C 
ENDBRANCH  20  21
ENDBRANCH  19  20
ENDBRANCH  17  19
ENDBRANCH   1  17
TORSDOF 9
ENDMDL
MODEL 2
REMARK VINA RESULT:      -9.0      4.611     10.601
REMARK  Name = 11779629
REMARK  9 active torsions:
REMARK  status: ('A' for Active; 'I' for Inactive)
REMARK    1  A    between atoms: N_1  and  C_4
REMARK    2  A    between atoms: N_1  and  C_17
REMARK    3  A    between atoms: C_4  and  C_6
REMARK    4  A    between atoms: C_6  and  C_7
REMARK    5  A    between atoms: C_6  and  O_15
REMARK    6  A    between atoms: C_12  and  O_13
REMARK    7  A    between atoms: C_17  and  C_19
REMARK    8  A    between atoms: C_19  and  O_20
REMARK    9  A    between atoms: O_20  and  C_21
REMARK                            x       y       z     vdW  Elec       q    Type
REMARK                         _______ _______ _______ _____ _____    ______ ____
ROOT
ATOM      1  N   UNL     1      34.891 -18.502 -21.078  0.00  0.00    +0.391 N 
ATOM      2  H   UNL     1      34.409 -18.011 -20.324  0.00  0.00    -0.084 HD
ATOM      3  H   UNL     1      35.901 -18.450 -20.941  0.00  0.00    -0.084 HD
ENDROOT
BRANCH   1   4
ATOM      4  C   UNL     1      34.554 -17.871 -22.360  0.00  0.00    -0.030 C 
ATOM      5  C   UNL     1      35.077 -18.770 -23.481  0.00  0.00    -0.021 C 
BRANCH   4   6
ATOM      6  C   UNL     1      35.153 -16.448 -22.412  0.00  0.00    +0.113 C 
BRANCH   6   7
ATOM      7  C   UNL     1      34.127 -15.347 -22.240  0.00  0.00    +0.002 C 
ATOM      8  C   UNL     1      33.691 -15.024 -20.967  0.00  0.00    +0.001 C 
ATOM      9  C   UNL     1      33.649 -14.690 -23.360  0.00  0.00    +0.001 C 
ATOM     10  C   UNL     1      32.746 -14.010 -20.809  0.00  0.00    +0.036 C 
ATOM     11  C   UNL     1      32.705 -13.676 -23.202  0.00  0.00    +0.036 C 
ATOM     12  C   UNL     1      32.253 -13.336 -21.926  0.00  0.00    +0.134 C 
BRANCH  12  13
ATOM     13  O   UNL     1      31.330 -12.348 -21.772  0.00  0.00    -0.506 OA
ATOM     14  H   UNL     1      31.454 -11.689 -21.118  0.00  0.00    +0.292 HD
ENDBRANCH  12  13
ENDBRANCH   6   7
BRANCH   6  15
ATOM     15  O   UNL     1      35.782 -16.230 -23.678  0.00  0.00    -0.382 OA
ATOM     16  H   UNL     1      36.627 -16.706 -23.704  0.00  0.00    +0.211 HD
ENDBRANCH   6  15
ENDBRANCH   4   6
ENDBRANCH   1   4
BRANCH   1  17
ATOM     17  C   UNL     1      34.488 -19.897 -21.074  0.00  0.00    -0.017 C 
ATOM     18  C   UNL     1      33.094 -20.039 -20.463  0.00  0.00    -0.020 C 
BRANCH  17  19
ATOM     19  C   UNL     1      35.529 -20.721 -20.314  0.00  0.00    +0.184 C 
BRANCH  19  20
ATOM     20  O   UNL     1      34.887 -21.791 -19.631  0.00  0.00    -0.478 OA
BRANCH  20  21
ATOM     21  C   UNL     1      35.348 -22.085 -18.375  0.00  0.00    +0.138 C 
ATOM     22  C   UNL     1      34.534 -22.781 -17.489  0.00  0.00    +0.037 C 
ATOM     23  C   UNL     1      36.624 -21.683 -17.999  0.00  0.00    +0.037 C 
ATOM     24  C   UNL     1      35.003 -23.079 -16.208  0.00  0.00    +0.003 C 
ATOM     25  C   UNL     1      37.094 -21.981 -16.720  0.00  0.00    +0.003 C 
ATOM     26  C   UNL     1      36.284 -22.679 -15.825  0.00  0.00    +0.000 C 
ENDBRANCH  20  21
ENDBRANCH  19  20
ENDBRANCH  17  19
ENDBRANCH   1  17
TORSDOF 9
ENDMDL
MODEL 3
REMARK VINA RESULT:      -9.0      5.482      9.262
REMARK  Name = 11779629
REMARK  9 active torsions:
REMARK  status: ('A' for Active; 'I' for Inactive)
REMARK    1  A    between atoms: N_1  and  C_4
REMARK    2  A    between atoms: N_1  and  C_17
REMARK    3  A    between atoms: C_4  and  C_6
REMARK    4  A    between atoms: C_6  and  C_7
REMARK    5  A    between atoms: C_6  and  O_15
REMARK    6  A    between atoms: C_12  and  O_13
REMARK    7  A    between atoms: C_17  and  C_19
REMARK    8  A    between atoms: C_19  and  O_20
REMARK    9  A    between atoms: O_20  and  C_21
REMARK                            x       y       z     vdW  Elec       q    Type
REMARK                         _______ _______ _______ _____ _____    ______ ____
ROOT
ATOM      1  N   UNL     1      35.428 -17.562 -23.283  0.00  0.00    +0.391 N 
ATOM      2  H   UNL     1      36.308 -18.048 -23.461  0.00  0.00    -0.084 HD
ATOM      3  H   UNL     1      35.579 -16.553 -23.281  0.00  0.00    -0.084 HD
ENDROOT
BRANCH   1   4
ATOM      4  C   UNL     1      34.910 -17.967 -21.970  0.00  0.00    -0.030 C 
ATOM      5  C   UNL     1      34.986 -16.756 -21.040  0.00  0.00    -0.021 C 
BRANCH   4   6
ATOM      6  C   UNL     1      35.717 -19.173 -21.443  0.00  0.00    +0.113 C 
BRANCH   6   7
ATOM      7  C   UNL     1      34.901 -20.131 -20.601  0.00  0.00    +0.002 C 
ATOM      8  C   UNL     1      35.553 -21.103 -19.861  0.00  0.00    +0.001 C 
ATOM      9  C   UNL     1      33.523 -20.015 -20.590  0.00  0.00    +0.001 C 
ATOM     10  C   UNL     1      34.802 -21.986 -19.085  0.00  0.00    +0.036 C 
ATOM     11  C   UNL     1      32.771 -20.897 -19.814  0.00  0.00    +0.036 C 
ATOM     12  C   UNL     1      33.411 -21.882 -19.062  0.00  0.00    +0.134 C 
BRANCH  12  13
ATOM     13  O   UNL     1      32.678 -22.745 -18.306  0.00  0.00    -0.506 OA
ATOM     14  H   UNL     1      33.000 -23.608 -18.135  0.00  0.00    +0.292 HD
ENDBRANCH  12  13
ENDBRANCH   6   7
BRANCH   6  15
ATOM     15  O   UNL     1      36.794 -18.716 -20.619  0.00  0.00    -0.382 OA
ATOM     16  H   UNL     1      36.688 -19.071 -19.723  0.00  0.00    +0.211 HD
ENDBRANCH   6  15
ENDBRANCH   4   6
ENDBRANCH   1   4
BRANCH   1  17
ATOM     17  C   UNL     1      34.479 -17.892 -24.331  0.00  0.00    -0.017 C 
ATOM     18  C   UNL     1      34.636 -19.357 -24.739  0.00  0.00    -0.020 C 
BRANCH  17  19
ATOM     19  C   UNL     1      34.687 -16.947 -25.516  0.00  0.00    +0.184 C 
BRANCH  19  20
ATOM     20  O   UNL     1      33.476 -16.252 -25.792  0.00  0.00    -0.478 OA
BRANCH  20  21
ATOM     21  C   UNL     1      33.498 -14.891 -25.637  0.00  0.00    +0.138 C 
ATOM     22  C   UNL     1      33.377 -14.069 -26.751  0.00  0.00    +0.037 C 
ATOM     23  C   UNL     1      33.644 -14.346 -24.366  0.00  0.00    +0.037 C 
ATOM     24  C   UNL     1      33.400 -12.682 -26.593  0.00  0.00    +0.003 C 
ATOM     25  C   UNL     1      33.667 -12.960 -24.207  0.00  0.00    +0.003 C 
ATOM     26  C   UNL     1      33.545 -12.129 -25.320  0.00  0.00    +0.000 C 
ENDBRANCH  20  21
ENDBRANCH  19  20
ENDBRANCH  17  19
ENDBRANCH   1  17
TORSDOF 9
ENDMDL
MODEL 4
REMARK VINA RESULT:      -8.9      5.991     10.004
REMARK  Name = 11779629
REMARK  9 active torsions:
REMARK  status: ('A' for Active; 'I' for Inactive)
REMARK    1  A    between atoms: N_1  and  C_4
REMARK    2  A    between atoms: N_1  and  C_17
REMARK    3  A    between atoms: C_4  and  C_6
REMARK    4  A    between atoms: C_6  and  C_7
REMARK    5  A    between atoms: C_6  and  O_15
REMARK    6  A    between atoms: C_12  and  O_13
REMARK    7  A    between atoms: C_17  and  C_19
REMARK    8  A    between atoms: C_19  and  O_20
REMARK    9  A    between atoms: O_20  and  C_21
REMARK                            x       y       z     vdW  Elec       q    Type
REMARK                         _______ _______ _______ _____ _____    ______ ____
ROOT
ATOM      1  N   UNL     1      34.927 -16.067 -23.340  0.00  0.00    +0.391 N 
ATOM      2  H   UNL     1      35.407 -16.595 -24.069  0.00  0.00    -0.084 HD
ATOM      3  H   UNL     1      35.557 -15.374 -22.936  0.00  0.00    -0.084 HD
ENDROOT
BRANCH   1   4
ATOM      4  C   UNL     1      34.493 -16.988 -22.282  0.00  0.00    -0.030 C 
ATOM      5  C   UNL     1      34.842 -16.356 -20.934  0.00  0.00    -0.021 C 
BRANCH   4   6
ATOM      6  C   UNL     1      35.164 -18.365 -22.485  0.00  0.00    +0.113 C 
BRANCH   6   7
ATOM      7  C   UNL     1      34.767 -19.395 -21.449  0.00  0.00    +0.002 C 
ATOM      8  C   UNL     1      35.756 -20.085 -20.768  0.00  0.00    +0.001 C 
ATOM      9  C   UNL     1      33.424 -19.625 -21.206  0.00  0.00    +0.001 C 
ATOM     10  C   UNL     1      35.389 -21.033 -19.814  0.00  0.00    +0.036 C 
ATOM     11  C   UNL     1      33.058 -20.574 -20.252  0.00  0.00    +0.036 C 
ATOM     12  C   UNL     1      34.041 -21.278 -19.556  0.00  0.00    +0.134 C 
BRANCH  12  13
ATOM     13  O   UNL     1      33.684 -22.206 -18.626  0.00  0.00    -0.506 OA
ATOM     14  H   UNL     1      34.341 -22.728 -18.209  0.00  0.00    +0.292 HD
ENDBRANCH  12  13
ENDBRANCH   6   7
BRANCH   6  15
ATOM     15  O   UNL     1      36.586 -18.229 -22.406  0.00  0.00    -0.382 OA
ATOM     16  H   UNL     1      36.807 -17.454 -21.865  0.00  0.00    +0.211 HD
ENDBRANCH   6  15
ENDBRANCH   4   6
ENDBRANCH   1   4
BRANCH   1  17
ATOM     17  C   UNL     1      33.786 -15.381 -23.920  0.00  0.00    -0.017 C 
ATOM     18  C   UNL     1      33.707 -15.670 -25.419  0.00  0.00    -0.020 C 
BRANCH  17  19
ATOM     19  C   UNL     1      33.899 -13.883 -23.635  0.00  0.00    +0.184 C 
BRANCH  19  20
ATOM     20  O   UNL     1      32.600 -13.304 -23.591  0.00  0.00    -0.478 OA
BRANCH  20  21
ATOM     21  C   UNL     1      32.248 -12.668 -22.431  0.00  0.00    +0.138 C 
ATOM     22  C   UNL     1      31.814 -11.348 -22.474  0.00  0.00    +0.037 C 
ATOM     23  C   UNL     1      32.329 -13.348 -21.221  0.00  0.00    +0.037 C 
ATOM     24  C   UNL     1      31.456 -10.699 -21.291  0.00  0.00    +0.003 C 
ATOM     25  C   UNL     1      31.972 -12.700 -20.038  0.00  0.00    +0.003 C 
ATOM     26  C   UNL     1      31.535 -11.376 -20.073  0.00  0.00    +0.000 C 
ENDBRANCH  20  21
ENDBRANCH  19  20
ENDBRANCH  17  19
ENDBRANCH   1  17
TORSDOF 9
ENDMDL
MODEL 5
REMARK VINA RESULT:      -8.9      6.809     10.711
REMARK  Name = 11779629
REMARK  9 active torsions:
REMARK  status: ('A' for Active; 'I' for Inactive)
REMARK    1  A    between atoms: N_1  and  C_4
REMARK    2  A    between atoms: N_1  and  C_17
REMARK    3  A    between atoms: C_4  and  C_6
REMARK    4  A    between atoms: C_6  and  C_7
REMARK    5  A    between atoms: C_6  and  O_15
REMARK    6  A    between atoms: C_12  and  O_13
REMARK    7  A    between atoms: C_17  and  C_19
REMARK    8  A    between atoms: C_19  and  O_20
REMARK    9  A    between atoms: O_20  and  C_21
REMARK                            x       y       z     vdW  Elec       q    Type
REMARK                         _______ _______ _______ _____ _____    ______ ____
ROOT
ATOM      1  N   UNL     1      34.801 -15.829 -23.227  0.00  0.00    +0.391 N 
ATOM      2  H   UNL     1      35.192 -16.328 -24.028  0.00  0.00    -0.084 HD
ATOM      3  H   UNL     1      35.505 -15.211 -22.822  0.00  0.00    -0.084 HD
ENDROOT
BRANCH   1   4
ATOM      4  C   UNL     1      34.382 -16.802 -22.210  0.00  0.00    -0.030 C 
ATOM      5  C   UNL     1      34.827 -16.277 -20.845  0.00  0.00    -0.021 C 
BRANCH   4   6
ATOM      6  C   UNL     1      34.981 -18.187 -22.538  0.00  0.00    +0.113 C 
BRANCH   6   7
ATOM      7  C   UNL     1      34.652 -19.252 -21.513  0.00  0.00    +0.002 C 
ATOM      8  C   UNL     1      35.685 -19.934 -20.894  0.00  0.00    +0.001 C 
ATOM      9  C   UNL     1      33.327 -19.519 -21.219  0.00  0.00    +0.001 C 
ATOM     10  C   UNL     1      35.382 -20.915 -19.949  0.00  0.00    +0.036 C 
ATOM     11  C   UNL     1      33.024 -20.500 -20.275  0.00  0.00    +0.036 C 
ATOM     12  C   UNL     1      34.052 -21.197 -19.640  0.00  0.00    +0.134 C 
BRANCH  12  13
ATOM     13  O   UNL     1      33.756 -22.156 -18.719  0.00  0.00    -0.506 OA
ATOM     14  H   UNL     1      33.046 -22.747 -18.870  0.00  0.00    +0.292 HD
ENDBRANCH  12  13
ENDBRANCH   6   7
BRANCH   6  15
ATOM     15  O   UNL     1      36.408 -18.099 -22.597  0.00  0.00    -0.382 OA
ATOM     16  H   UNL     1      36.788 -18.477 -21.789  0.00  0.00    +0.211 HD
ENDBRANCH   6  15
ENDBRANCH   4   6
ENDBRANCH   1   4
BRANCH   1  17
ATOM     17  C   UNL     1      33.671 -15.030 -23.667  0.00  0.00    -0.017 C 
ATOM     18  C   UNL     1      33.490 -15.163 -25.179  0.00  0.00    -0.020 C 
BRANCH  17  19
ATOM     19  C   UNL     1      33.889 -13.575 -23.247  0.00  0.00    +0.184 C 
BRANCH  19  20
ATOM     20  O   UNL     1      33.719 -12.722 -24.372  0.00  0.00    -0.478 OA
BRANCH  20  21
ATOM     21  C   UNL     1      33.817 -11.375 -24.144  0.00  0.00    +0.138 C 
ATOM     22  C   UNL     1      34.822 -10.643 -24.765  0.00  0.00    +0.037 C 
ATOM     23  C   UNL     1      32.911 -10.753 -23.292  0.00  0.00    +0.037 C 
ATOM     24  C   UNL     1      34.923  -9.270 -24.531  0.00  0.00    +0.003 C 
ATOM     25  C   UNL     1      33.011  -9.382 -23.058  0.00  0.00    +0.003 C 
ATOM     26  C   UNL     1      34.016  -8.640 -23.678  0.00  0.00    +0.000 C 
ENDBRANCH  20  21
ENDBRANCH  19  20
ENDBRANCH  17  19
ENDBRANCH   1  17
TORSDOF 9
ENDMDL
MODEL 6
REMARK VINA RESULT:      -8.8      7.350     11.263
REMARK  Name = 11779629
REMARK  9 active torsions:
REMARK  status: ('A' for Active; 'I' for Inactive)
REMARK    1  A    between atoms: N_1  and  C_4
REMARK    2  A    between atoms: N_1  and  C_17
REMARK    3  A    between atoms: C_4  and  C_6
REMARK    4  A    between atoms: C_6  and  C_7
REMARK    5  A    between atoms: C_6  and  O_15
REMARK    6  A    between atoms: C_12  and  O_13
REMARK    7  A    between atoms: C_17  and  C_19
REMARK    8  A    between atoms: C_19  and  O_20
REMARK    9  A    between atoms: O_20  and  C_21
REMARK                            x       y       z     vdW  Elec       q    Type
REMARK                         _______ _______ _______ _____ _____    ______ ____
ROOT
ATOM      1  N   UNL     1      34.309 -14.649 -22.789  0.00  0.00    +0.391 N 
ATOM      2  H   UNL     1      35.036 -14.833 -23.482  0.00  0.00    -0.084 HD
ATOM      3  H   UNL     1      34.613 -13.916 -22.148  0.00  0.00    -0.084 HD
ENDROOT
BRANCH   1   4
ATOM      4  C   UNL     1      34.051 -15.874 -22.022  0.00  0.00    -0.030 C 
ATOM      5  C   UNL     1      34.611 -15.675 -20.613  0.00  0.00    -0.021 C 
BRANCH   4   6
ATOM      6  C   UNL     1      34.683 -17.083 -22.747  0.00  0.00    +0.113 C 
BRANCH   6   7
ATOM      7  C   UNL     1      34.917 -18.279 -21.848  0.00  0.00    +0.002 C 
ATOM      8  C   UNL     1      33.832 -19.022 -21.417  0.00  0.00    +0.001 C 
ATOM      9  C   UNL     1      36.211 -18.601 -21.476  0.00  0.00    +0.001 C 
ATOM     10  C   UNL     1      34.047 -20.124 -20.590  0.00  0.00    +0.036 C 
ATOM     11  C   UNL     1      36.426 -19.703 -20.649  0.00  0.00    +0.036 C 
ATOM     12  C   UNL     1      35.345 -20.464 -20.205  0.00  0.00    +0.134 C 
BRANCH  12  13
ATOM     13  O   UNL     1      35.554 -21.538 -19.396  0.00  0.00    -0.506 OA
ATOM     14  H   UNL     1      35.230 -22.382 -19.644  0.00  0.00    +0.292 HD
ENDBRANCH  12  13
ENDBRANCH   6   7
BRANCH   6  15
ATOM     15  O   UNL     1      35.957 -16.717 -23.284  0.00  0.00    -0.382 OA
ATOM     16  H   UNL     1      35.888 -16.628 -24.248  0.00  0.00    +0.211 HD
ENDBRANCH   6  15
ENDBRANCH   4   6
ENDBRANCH   1   4
BRANCH   1  17
ATOM     17  C   UNL     1      33.103 -14.208 -23.467  0.00  0.00    -0.017 C 
ATOM     18  C   UNL     1      33.224 -14.460 -24.971  0.00  0.00    -0.020 C 
BRANCH  17  19
ATOM     19  C   UNL     1      32.861 -12.730 -23.157  0.00  0.00    +0.184 C 
BRANCH  19  20
ATOM     20  O   UNL     1      33.574 -11.922 -24.086  0.00  0.00    -0.478 OA
BRANCH  20  21
ATOM     21  C   UNL     1      33.664 -10.586 -23.800  0.00  0.00    +0.138 C 
ATOM     22  C   UNL     1      32.695  -9.985 -23.005  0.00  0.00    +0.037 C 
ATOM     23  C   UNL     1      34.723  -9.843 -24.309  0.00  0.00    +0.037 C 
ATOM     24  C   UNL     1      32.785  -8.623 -22.715  0.00  0.00    +0.003 C 
ATOM     25  C   UNL     1      34.815  -8.481 -24.019  0.00  0.00    +0.003 C 
ATOM     26  C   UNL     1      33.846  -7.872 -23.222  0.00  0.00    +0.000 C 
ENDBRANCH  20  21
ENDBRANCH  19  20
ENDBRANCH  17  19
ENDBRANCH   1  17
TORSDOF 9
ENDMDL
MODEL 7
REMARK VINA RESULT:      -8.8      6.572     12.362
REMARK  Name = 11779629
REMARK  9 active torsions:
REMARK  status: ('A' for Active; 'I' for Inactive)
REMARK    1  A    between atoms: N_1  and  C_4
REMARK    2  A    between atoms: N_1  and  C_17
REMARK    3  A    between atoms: C_4  and  C_6
REMARK    4  A    between atoms: C_6  and  C_7
REMARK    5  A    between atoms: C_6  and  O_15
REMARK    6  A    between atoms: C_12  and  O_13
REMARK    7  A    between atoms: C_17  and  C_19
REMARK    8  A    between atoms: C_19  and  O_20
REMARK    9  A    between atoms: O_20  and  C_21
REMARK                            x       y       z     vdW  Elec       q    Type
REMARK                         _______ _______ _______ _____ _____    ______ ____
ROOT
ATOM      1  N   UNL     1      34.122 -16.598 -22.532  0.00  0.00    +0.391 N 
ATOM      2  H   UNL     1      33.231 -16.842 -22.968  0.00  0.00    -0.084 HD
ATOM      3  H   UNL     1      34.190 -17.026 -21.609  0.00  0.00    -0.084 HD
ENDROOT
BRANCH   1   4
ATOM      4  C   UNL     1      34.203 -15.139 -22.385  0.00  0.00    -0.030 C 
ATOM      5  C   UNL     1      34.688 -14.834 -20.967  0.00  0.00    -0.021 C 
BRANCH   4   6
ATOM      6  C   UNL     1      32.826 -14.509 -22.690  0.00  0.00    +0.113 C 
BRANCH   6   7
ATOM      7  C   UNL     1      32.887 -13.025 -22.985  0.00  0.00    +0.002 C 
ATOM      8  C   UNL     1      32.059 -12.163 -22.286  0.00  0.00    +0.001 C 
ATOM      9  C   UNL     1      33.768 -12.563 -23.947  0.00  0.00    +0.001 C 
ATOM     10  C   UNL     1      32.115 -10.796 -22.557  0.00  0.00    +0.036 C 
ATOM     11  C   UNL     1      33.824 -11.196 -24.218  0.00  0.00    +0.036 C 
ATOM     12  C   UNL     1      32.997 -10.313 -23.523  0.00  0.00    +0.134 C 
BRANCH  12  13
ATOM     13  O   UNL     1      33.050  -8.979 -23.789  0.00  0.00    -0.506 OA
ATOM     14  H   UNL     1      32.885  -8.667 -24.657  0.00  0.00    +0.292 HD
ENDBRANCH  12  13
ENDBRANCH   6   7
BRANCH   6  15
ATOM     15  O   UNL     1      31.957 -14.670 -21.565  0.00  0.00    -0.382 OA
ATOM     16  H   UNL     1      31.663 -15.593 -21.515  0.00  0.00    +0.211 HD
ENDBRANCH   6  15
ENDBRANCH   4   6
ENDBRANCH   1   4
BRANCH   1  17
ATOM     17  C   UNL     1      35.209 -17.089 -23.359  0.00  0.00    -0.017 C 
ATOM     18  C   UNL     1      34.882 -16.876 -24.837  0.00  0.00    -0.020 C 
BRANCH  17  19
ATOM     19  C   UNL     1      35.460 -18.564 -23.039  0.00  0.00    +0.184 C 
BRANCH  19  20
ATOM     20  O   UNL     1      35.853 -18.699 -21.679  0.00  0.00    -0.478 OA
BRANCH  20  21
ATOM     21  C   UNL     1      35.200 -19.649 -20.940  0.00  0.00    +0.138 C 
ATOM     22  C   UNL     1      35.932 -20.601 -20.241  0.00  0.00    +0.037 C 
ATOM     23  C   UNL     1      33.810 -19.654 -20.899  0.00  0.00    +0.037 C 
ATOM     24  C   UNL     1      35.267 -21.571 -19.489  0.00  0.00    +0.003 C 
ATOM     25  C   UNL     1      33.144 -20.623 -20.148  0.00  0.00    +0.003 C 
ATOM     26  C   UNL     1      33.872 -21.580 -19.442  0.00  0.00    +0.000 C 
ENDBRANCH  20  21
ENDBRANCH  19  20
ENDBRANCH  17  19
ENDBRANCH   1  17
TORSDOF 9
ENDMDL
MODEL 8
REMARK VINA RESULT:      -8.8      6.596     12.512
REMARK  Name = 11779629
REMARK  9 active torsions:
REMARK  status: ('A' for Active; 'I' for Inactive)
REMARK    1  A    between atoms: N_1  and  C_4
REMARK    2  A    between atoms: N_1  and  C_17
REMARK    3  A    between atoms: C_4  and  C_6
REMARK    4  A    between atoms: C_6  and  C_7
REMARK    5  A    between atoms: C_6  and  O_15
REMARK    6  A    between atoms: C_12  and  O_13
REMARK    7  A    between atoms: C_17  and  C_19
REMARK    8  A    between atoms: C_19  and  O_20
REMARK    9  A    between atoms: O_20  and  C_21
REMARK                            x       y       z     vdW  Elec       q    Type
REMARK                         _______ _______ _______ _____ _____    ______ ____
ROOT
ATOM      1  N   UNL     1      34.884 -15.561 -23.019  0.00  0.00    +0.391 N 
ATOM      2  H   UNL     1      35.079 -14.581 -22.812  0.00  0.00    -0.084 HD
ATOM      3  H   UNL     1      35.729 -16.024 -23.355  0.00  0.00    -0.084 HD
ENDROOT
BRANCH   1   4
ATOM      4  C   UNL     1      33.855 -15.637 -24.064  0.00  0.00    -0.030 C 
ATOM      5  C   UNL     1      34.182 -16.832 -24.962  0.00  0.00    -0.021 C 
BRANCH   4   6
ATOM      6  C   UNL     1      33.806 -14.305 -24.844  0.00  0.00    +0.113 C 
BRANCH   6   7
ATOM      7  C   UNL     1      33.282 -13.141 -24.030  0.00  0.00    +0.002 C 
ATOM      8  C   UNL     1      32.371 -13.382 -23.016  0.00  0.00    +0.001 C 
ATOM      9  C   UNL     1      33.725 -11.862 -24.318  0.00  0.00    +0.001 C 
ATOM     10  C   UNL     1      31.889 -12.310 -22.266  0.00  0.00    +0.036 C 
ATOM     11  C   UNL     1      33.242 -10.789 -23.568  0.00  0.00    +0.036 C 
ATOM     12  C   UNL     1      32.324 -11.013 -22.542  0.00  0.00    +0.134 C 
BRANCH  12  13
ATOM     13  O   UNL     1      31.851  -9.967 -21.811  0.00  0.00    -0.506 OA
ATOM     14  H   UNL     1      30.962  -9.689 -21.911  0.00  0.00    +0.292 HD
ENDBRANCH  12  13
ENDBRANCH   6   7
BRANCH   6  15
ATOM     15  O   UNL     1      32.944 -14.435 -25.978  0.00  0.00    -0.382 OA
ATOM     16  H   UNL     1      32.270 -13.738 -25.952  0.00  0.00    +0.211 HD
ENDBRANCH   6  15
ENDBRANCH   4   6
ENDBRANCH   1   4
BRANCH   1  17
ATOM     17  C   UNL     1      34.433 -16.225 -21.809  0.00  0.00    -0.017 C 
ATOM     18  C   UNL     1      34.487 -15.255 -20.628  0.00  0.00    -0.020 C 
BRANCH  17  19
ATOM     19  C   UNL     1      35.292 -17.466 -21.565  0.00  0.00    +0.184 C 
BRANCH  19  20
ATOM     20  O   UNL     1      34.583 -18.628 -21.981  0.00  0.00    -0.478 OA
BRANCH  20  21
ATOM     21  C   UNL     1      34.493 -19.652 -21.075  0.00  0.00    +0.138 C 
ATOM     22  C   UNL     1      33.245 -20.055 -20.614  0.00  0.00    +0.037 C 
ATOM     23  C   UNL     1      35.650 -20.276 -20.625  0.00  0.00    +0.037 C 
ATOM     24  C   UNL     1      33.153 -21.097 -19.690  0.00  0.00    +0.003 C 
ATOM     25  C   UNL     1      35.560 -21.317 -19.702  0.00  0.00    +0.003 C 
ATOM     26  C   UNL     1      34.312 -21.728 -19.235  0.00  0.00    +0.000 C 
ENDBRANCH  20  21
ENDBRANCH  19  20
ENDBRANCH  17  19
ENDBRANCH   1  17
TORSDOF 9
ENDMDL
MODEL 9
REMARK VINA RESULT:      -8.7      2.098      6.187
REMARK  Name = 11779629
REMARK  9 active torsions:
REMARK  status: ('A' for Active; 'I' for Inactive)
REMARK    1  A    between atoms: N_1  and  C_4
REMARK    2  A    between atoms: N_1  and  C_17
REMARK    3  A    between atoms: C_4  and  C_6
REMARK    4  A    between atoms: C_6  and  C_7
REMARK    5  A    between atoms: C_6  and  O_15
REMARK    6  A    between atoms: C_12  and  O_13
REMARK    7  A    between atoms: C_17  and  C_19
REMARK    8  A    between atoms: C_19  and  O_20
REMARK    9  A    between atoms: O_20  and  C_21
REMARK                            x       y       z     vdW  Elec       q    Type
REMARK                         _______ _______ _______ _____ _____    ______ ____
ROOT
ATOM      1  N   UNL     1      36.688 -23.816 -13.252  0.00  0.00    +0.391 N 
ATOM      2  H   UNL     1      37.199 -22.933 -13.224  0.00  0.00    -0.084 HD
ATOM      3  H   UNL     1      37.269 -24.570 -12.885  0.00  0.00    -0.084 HD
ENDROOT
BRANCH   1   4
ATOM      4  C   UNL     1      36.332 -24.125 -14.643  0.00  0.00    -0.030 C 
ATOM      5  C   UNL     1      37.079 -25.397 -15.048  0.00  0.00    -0.021 C 
BRANCH   4   6
ATOM      6  C   UNL     1      36.677 -22.920 -15.546  0.00  0.00    +0.113 C 
BRANCH   6   7
ATOM      7  C   UNL     1      35.701 -22.715 -16.686  0.00  0.00    +0.002 C 
ATOM      8  C   UNL     1      36.117 -22.031 -17.816  0.00  0.00    +0.001 C 
ATOM      9  C   UNL     1      34.416 -23.215 -16.573  0.00  0.00    +0.001 C 
ATOM     10  C   UNL     1      35.219 -21.843 -18.866  0.00  0.00    +0.036 C 
ATOM     11  C   UNL     1      33.517 -23.026 -17.623  0.00  0.00    +0.036 C 
ATOM     12  C   UNL     1      33.919 -22.340 -18.769  0.00  0.00    +0.134 C 
BRANCH  12  13
ATOM     13  O   UNL     1      33.042 -22.154 -19.794  0.00  0.00    -0.506 OA
ATOM     14  H   UNL     1      33.204 -22.551 -20.627  0.00  0.00    +0.292 HD
ENDBRANCH  12  13
ENDBRANCH   6   7
BRANCH   6  15
ATOM     15  O   UNL     1      37.966 -23.108 -16.137  0.00  0.00    -0.382 OA
ATOM     16  H   UNL     1      38.545 -23.566 -15.508  0.00  0.00    +0.211 HD
ENDBRANCH   6  15
ENDBRANCH   4   6
ENDBRANCH   1   4
BRANCH   1  17
ATOM     17  C   UNL     1      35.494 -23.703 -12.433  0.00  0.00    -0.017 C 
ATOM     18  C   UNL     1      35.727 -24.359 -11.072  0.00  0.00    -0.020 C 
BRANCH  17  19
ATOM     19  C   UNL     1      34.313 -24.333 -13.173  0.00  0.00    +0.184 C 
BRANCH  19  20
ATOM     20  O   UNL     1      33.122 -23.616 -12.873  0.00  0.00    -0.478 OA
BRANCH  20  21
ATOM     21  C   UNL     1      32.054 -23.819 -13.706  0.00  0.00    +0.138 C 
ATOM     22  C   UNL     1      31.529 -25.097 -13.855  0.00  0.00    +0.037 C 
ATOM     23  C   UNL     1      31.506 -22.744 -14.396  0.00  0.00    +0.037 C 
ATOM     24  C   UNL     1      30.442 -25.304 -14.706  0.00  0.00    +0.003 C 
ATOM     25  C   UNL     1      30.419 -22.949 -15.246  0.00  0.00    +0.003 C 
ATOM     26  C   UNL     1      29.887 -24.229 -15.400  0.00  0.00    +0.000 C 
ENDBRANCH  20  21
ENDBRANCH  19  20
ENDBRANCH  17  19
ENDBRANCH   1  17
TORSDOF 9
ENDMDL
