MODEL 1
REMARK VINA RESULT:      -6.9      0.000      0.000
REMARK  Name = 332
REMARK  3 active torsions:
REMARK  status: ('A' for Active; 'I' for Inactive)
REMARK    1  A    between atoms: C_1  and  C_11
REMARK    2  A    between atoms: C_2  and  O_7
REMARK    3  A    between atoms: C_4  and  O_9
REMARK                            x       y       z     vdW  Elec       q    Type
REMARK                         _______ _______ _______ _____ _____    ______ ____
ROOT
ATOM      1  C   UNL     1      35.050 -19.570 -21.063  0.00  0.00    +0.003 C 
ATOM      2  C   UNL     1      34.943 -21.415 -19.507  0.00  0.00    +0.172 C 
ATOM      3  C   UNL     1      35.693 -20.521 -20.271  0.00  0.00    +0.040 C 
ATOM      4  C   UNL     1      33.550 -21.358 -19.535  0.00  0.00    +0.168 C 
ATOM      5  C   UNL     1      33.656 -19.513 -21.090  0.00  0.00    +0.003 C 
ATOM      6  C   UNL     1      32.906 -20.407 -20.327  0.00  0.00    +0.040 C 
ENDROOT
BRANCH   2   7
ATOM      7  O   UNL     1      35.583 -22.340 -18.738  0.00  0.00    -0.468 OA
ATOM      8  C   UNL     1      36.547 -21.853 -17.808  0.00  0.00    +0.253 C 
ENDBRANCH   2   7
BRANCH   4   9
ATOM      9  O   UNL     1      32.806 -22.225 -18.793  0.00  0.00    -0.503 OA
ATOM     10  H   UNL     1      31.975 -22.520 -19.110  0.00  0.00    +0.292 HD
ENDBRANCH   4   9
BRANCH   1  11
ATOM     11  C   UNL     1      35.831 -18.638 -21.860  0.00  0.00    +0.000 C 
ATOM     12  C   UNL     1      35.624 -18.324 -23.156  0.00  0.00    +0.000 C 
ENDBRANCH   1  11
TORSDOF 3
ENDMDL
MODEL 2
REMARK VINA RESULT:      -6.7      4.161      5.919
REMARK  Name = 332
REMARK  3 active torsions:
REMARK  status: ('A' for Active; 'I' for Inactive)
REMARK    1  A    between atoms: C_1  and  C_11
REMARK    2  A    between atoms: C_2  and  O_7
REMARK    3  A    between atoms: C_4  and  O_9
REMARK                            x       y       z     vdW  Elec       q    Type
REMARK                         _______ _______ _______ _____ _____    ______ ____
ROOT
ATOM      1  C   UNL     1      34.621 -18.685 -22.224  0.00  0.00    +0.003 C 
ATOM      2  C   UNL     1      34.861 -16.600 -23.421  0.00  0.00    +0.172 C 
ATOM      3  C   UNL     1      34.772 -17.298 -22.216  0.00  0.00    +0.040 C 
ATOM      4  C   UNL     1      34.799 -17.288 -24.632  0.00  0.00    +0.168 C 
ATOM      5  C   UNL     1      34.558 -19.373 -23.436  0.00  0.00    +0.003 C 
ATOM      6  C   UNL     1      34.647 -18.674 -24.640  0.00  0.00    +0.040 C 
ENDROOT
BRANCH   2   7
ATOM      7  O   UNL     1      35.010 -15.246 -23.400  0.00  0.00    -0.468 OA
ATOM      8  C   UNL     1      34.341 -14.537 -22.360  0.00  0.00    +0.253 C 
ENDBRANCH   2   7
BRANCH   4   9
ATOM      9  O   UNL     1      34.886 -16.618 -25.815  0.00  0.00    -0.503 OA
ATOM     10  H   UNL     1      34.272 -15.938 -26.014  0.00  0.00    +0.292 HD
ENDBRANCH   4   9
BRANCH   1  11
ATOM     11  C   UNL     1      34.527 -19.414 -20.969  0.00  0.00    +0.000 C 
ATOM     12  C   UNL     1      33.464 -20.121 -20.532  0.00  0.00    +0.000 C 
ENDBRANCH   1  11
TORSDOF 3
ENDMDL
MODEL 3
REMARK VINA RESULT:      -6.1      5.666      7.180
REMARK  Name = 332
REMARK  3 active torsions:
REMARK  status: ('A' for Active; 'I' for Inactive)
REMARK    1  A    between atoms: C_1  and  C_11
REMARK    2  A    between atoms: C_2  and  O_7
REMARK    3  A    between atoms: C_4  and  O_9
REMARK                            x       y       z     vdW  Elec       q    Type
REMARK                         _______ _______ _______ _____ _____    ______ ____
ROOT
ATOM      1  C   UNL     1      34.134 -14.947 -22.951  0.00  0.00    +0.003 C 
ATOM      2  C   UNL     1      34.121 -16.300 -24.953  0.00  0.00    +0.172 C 
ATOM      3  C   UNL     1      34.455 -16.135 -23.609  0.00  0.00    +0.040 C 
ATOM      4  C   UNL     1      33.468 -15.276 -25.640  0.00  0.00    +0.168 C 
ATOM      5  C   UNL     1      33.481 -13.924 -23.638  0.00  0.00    +0.003 C 
ATOM      6  C   UNL     1      33.147 -14.089 -24.983  0.00  0.00    +0.040 C 
ENDROOT
BRANCH   2   7
ATOM      7  O   UNL     1      34.439 -17.464 -25.584  0.00  0.00    -0.468 OA
ATOM      8  C   UNL     1      34.476 -18.645 -24.786  0.00  0.00    +0.253 C 
ENDBRANCH   2   7
BRANCH   4   9
ATOM      9  O   UNL     1      33.136 -15.426 -26.952  0.00  0.00    -0.503 OA
ATOM     10  H   UNL     1      33.700 -15.905 -27.527  0.00  0.00    +0.292 HD
ENDBRANCH   4   9
BRANCH   1  11
ATOM     11  C   UNL     1      34.482 -14.774 -21.550  0.00  0.00    +0.000 C 
ATOM     12  C   UNL     1      34.548 -15.745 -20.615  0.00  0.00    +0.000 C 
ENDBRANCH   1  11
TORSDOF 3
ENDMDL
MODEL 4
REMARK VINA RESULT:      -6.1      3.430      5.025
REMARK  Name = 332
REMARK  3 active torsions:
REMARK  status: ('A' for Active; 'I' for Inactive)
REMARK    1  A    between atoms: C_1  and  C_11
REMARK    2  A    between atoms: C_2  and  O_7
REMARK    3  A    between atoms: C_4  and  O_9
REMARK                            x       y       z     vdW  Elec       q    Type
REMARK                         _______ _______ _______ _____ _____    ______ ____
ROOT
ATOM      1  C   UNL     1      34.592 -17.021 -24.111  0.00  0.00    +0.003 C 
ATOM      2  C   UNL     1      35.014 -16.872 -21.736  0.00  0.00    +0.172 C 
ATOM      3  C   UNL     1      34.641 -16.268 -22.937  0.00  0.00    +0.040 C 
ATOM      4  C   UNL     1      35.337 -18.229 -21.709  0.00  0.00    +0.168 C 
ATOM      5  C   UNL     1      34.915 -18.377 -24.083  0.00  0.00    +0.003 C 
ATOM      6  C   UNL     1      35.288 -18.982 -22.882  0.00  0.00    +0.040 C 
ENDROOT
BRANCH   2   7
ATOM      7  O   UNL     1      35.058 -16.127 -20.597  0.00  0.00    -0.468 OA
ATOM      8  C   UNL     1      34.387 -14.869 -20.619  0.00  0.00    +0.253 C 
ENDBRANCH   2   7
BRANCH   4   9
ATOM      9  O   UNL     1      35.701 -18.831 -20.542  0.00  0.00    -0.503 OA
ATOM     10  H   UNL     1      35.931 -19.739 -20.536  0.00  0.00    +0.292 HD
ENDBRANCH   4   9
BRANCH   1  11
ATOM     11  C   UNL     1      34.205 -16.392 -25.363  0.00  0.00    +0.000 C 
ATOM     12  C   UNL     1      33.447 -15.284 -25.502  0.00  0.00    +0.000 C 
ENDBRANCH   1  11
TORSDOF 3
ENDMDL
MODEL 5
REMARK VINA RESULT:      -6.0      4.097      5.594
REMARK  Name = 332
REMARK  3 active torsions:
REMARK  status: ('A' for Active; 'I' for Inactive)
REMARK    1  A    between atoms: C_1  and  C_11
REMARK    2  A    between atoms: C_2  and  O_7
REMARK    3  A    between atoms: C_4  and  O_9
REMARK                            x       y       z     vdW  Elec       q    Type
REMARK                         _______ _______ _______ _____ _____    ______ ____
ROOT
ATOM      1  C   UNL     1      34.369 -14.829 -22.863  0.00  0.00    +0.003 C 
ATOM      2  C   UNL     1      35.249 -17.077 -22.750  0.00  0.00    +0.172 C 
ATOM      3  C   UNL     1      34.858 -15.969 -23.502  0.00  0.00    +0.040 C 
ATOM      4  C   UNL     1      35.152 -17.044 -21.359  0.00  0.00    +0.168 C 
ATOM      5  C   UNL     1      34.273 -14.798 -21.472  0.00  0.00    +0.003 C 
ATOM      6  C   UNL     1      34.664 -15.905 -20.720  0.00  0.00    +0.040 C 
ENDROOT
BRANCH   2   7
ATOM      7  O   UNL     1      35.724 -18.184 -23.385  0.00  0.00    -0.468 OA
ATOM      8  C   UNL     1      34.774 -18.999 -24.066  0.00  0.00    +0.253 C 
ENDBRANCH   2   7
BRANCH   4   9
ATOM      9  O   UNL     1      35.532 -18.119 -20.613  0.00  0.00    -0.503 OA
ATOM     10  H   UNL     1      34.888 -18.619 -20.149  0.00  0.00    +0.292 HD
ENDBRANCH   4   9
BRANCH   1  11
ATOM     11  C   UNL     1      33.961 -13.675 -23.647  0.00  0.00    +0.000 C 
ATOM     12  C   UNL     1      33.055 -12.742 -23.286  0.00  0.00    +0.000 C 
ENDBRANCH   1  11
TORSDOF 3
ENDMDL
MODEL 6
REMARK VINA RESULT:      -6.0      5.272      7.098
REMARK  Name = 332
REMARK  3 active torsions:
REMARK  status: ('A' for Active; 'I' for Inactive)
REMARK    1  A    between atoms: C_1  and  C_11
REMARK    2  A    between atoms: C_2  and  O_7
REMARK    3  A    between atoms: C_4  and  O_9
REMARK                            x       y       z     vdW  Elec       q    Type
REMARK                         _______ _______ _______ _____ _____    ______ ____
ROOT
ATOM      1  C   UNL     1      34.335 -15.567 -22.619  0.00  0.00    +0.003 C 
ATOM      2  C   UNL     1      34.090 -16.074 -24.969  0.00  0.00    +0.172 C 
ATOM      3  C   UNL     1      33.974 -15.175 -23.909  0.00  0.00    +0.040 C 
ATOM      4  C   UNL     1      34.567 -17.365 -24.740  0.00  0.00    +0.168 C 
ATOM      5  C   UNL     1      34.812 -16.858 -22.391  0.00  0.00    +0.003 C 
ATOM      6  C   UNL     1      34.928 -17.757 -23.451  0.00  0.00    +0.040 C 
ENDROOT
BRANCH   2   7
ATOM      7  O   UNL     1      33.734 -15.680 -26.223  0.00  0.00    -0.468 OA
ATOM      8  C   UNL     1      32.852 -14.565 -26.327  0.00  0.00    +0.253 C 
ENDBRANCH   2   7
BRANCH   4   9
ATOM      9  O   UNL     1      34.686 -18.252 -25.767  0.00  0.00    -0.503 OA
ATOM     10  H   UNL     1      33.918 -18.619 -26.160  0.00  0.00    +0.292 HD
ENDBRANCH   4   9
BRANCH   1  11
ATOM     11  C   UNL     1      34.213 -14.631 -21.514  0.00  0.00    +0.000 C 
ATOM     12  C   UNL     1      33.189 -14.554 -20.639  0.00  0.00    +0.000 C 
ENDBRANCH   1  11
TORSDOF 3
ENDMDL
MODEL 7
REMARK VINA RESULT:      -6.0      1.398      2.769
REMARK  Name = 332
REMARK  3 active torsions:
REMARK  status: ('A' for Active; 'I' for Inactive)
REMARK    1  A    between atoms: C_1  and  C_11
REMARK    2  A    between atoms: C_2  and  O_7
REMARK    3  A    between atoms: C_4  and  O_9
REMARK                            x       y       z     vdW  Elec       q    Type
REMARK                         _______ _______ _______ _____ _____    ______ ____
ROOT
ATOM      1  C   UNL     1      34.687 -20.506 -20.382  0.00  0.00    +0.003 C 
ATOM      2  C   UNL     1      34.900 -22.108 -18.585  0.00  0.00    +0.172 C 
ATOM      3  C   UNL     1      34.111 -21.447 -19.527  0.00  0.00    +0.040 C 
ATOM      4  C   UNL     1      36.263 -21.828 -18.497  0.00  0.00    +0.168 C 
ATOM      5  C   UNL     1      36.051 -20.227 -20.293  0.00  0.00    +0.003 C 
ATOM      6  C   UNL     1      36.839 -20.887 -19.351  0.00  0.00    +0.040 C 
ENDROOT
BRANCH   2   7
ATOM      7  O   UNL     1      34.326 -23.025 -17.757  0.00  0.00    -0.468 OA
ATOM      8  C   UNL     1      32.908 -22.978 -17.621  0.00  0.00    +0.253 C 
ENDBRANCH   2   7
BRANCH   4   9
ATOM      9  O   UNL     1      37.044 -22.467 -17.582  0.00  0.00    -0.503 OA
ATOM     10  H   UNL     1      37.881 -22.804 -17.834  0.00  0.00    +0.292 HD
ENDBRANCH   4   9
BRANCH   1  11
ATOM     11  C   UNL     1      33.866 -19.817 -21.363  0.00  0.00    +0.000 C 
ATOM     12  C   UNL     1      34.310 -19.085 -22.406  0.00  0.00    +0.000 C 
ENDBRANCH   1  11
TORSDOF 3
ENDMDL
MODEL 8
REMARK VINA RESULT:      -5.9      2.794      4.861
REMARK  Name = 332
REMARK  3 active torsions:
REMARK  status: ('A' for Active; 'I' for Inactive)
REMARK    1  A    between atoms: C_1  and  C_11
REMARK    2  A    between atoms: C_2  and  O_7
REMARK    3  A    between atoms: C_4  and  O_9
REMARK                            x       y       z     vdW  Elec       q    Type
REMARK                         _______ _______ _______ _____ _____    ______ ____
ROOT
ATOM      1  C   UNL     1      34.305 -20.438 -20.379  0.00  0.00    +0.003 C 
ATOM      2  C   UNL     1      34.933 -18.869 -22.107  0.00  0.00    +0.172 C 
ATOM      3  C   UNL     1      33.953 -19.610 -21.446  0.00  0.00    +0.040 C 
ATOM      4  C   UNL     1      36.265 -18.957 -21.701  0.00  0.00    +0.168 C 
ATOM      5  C   UNL     1      35.637 -20.525 -19.975  0.00  0.00    +0.003 C 
ATOM      6  C   UNL     1      36.617 -19.784 -20.636  0.00  0.00    +0.040 C 
ENDROOT
BRANCH   2   7
ATOM      7  O   UNL     1      34.577 -18.064 -23.146  0.00  0.00    -0.468 OA
ATOM      8  C   UNL     1      34.522 -18.661 -24.439  0.00  0.00    +0.253 C 
ENDBRANCH   2   7
BRANCH   4   9
ATOM      9  O   UNL     1      37.231 -18.238 -22.338  0.00  0.00    -0.503 OA
ATOM     10  H   UNL     1      37.242 -17.303 -22.269  0.00  0.00    +0.292 HD
ENDBRANCH   4   9
BRANCH   1  11
ATOM     11  C   UNL     1      33.284 -21.211 -19.690  0.00  0.00    +0.000 C 
ATOM     12  C   UNL     1      33.495 -22.224 -18.825  0.00  0.00    +0.000 C 
ENDBRANCH   1  11
TORSDOF 3
ENDMDL
MODEL 9
REMARK VINA RESULT:      -5.9      1.811      3.870
REMARK  Name = 332
REMARK  3 active torsions:
REMARK  status: ('A' for Active; 'I' for Inactive)
REMARK    1  A    between atoms: C_1  and  C_11
REMARK    2  A    between atoms: C_2  and  O_7
REMARK    3  A    between atoms: C_4  and  O_9
REMARK                            x       y       z     vdW  Elec       q    Type
REMARK                         _______ _______ _______ _____ _____    ______ ____
ROOT
ATOM      1  C   UNL     1      35.721 -21.530 -18.866  0.00  0.00    +0.003 C 
ATOM      2  C   UNL     1      34.723 -20.188 -20.610  0.00  0.00    +0.172 C 
ATOM      3  C   UNL     1      35.846 -20.586 -19.886  0.00  0.00    +0.040 C 
ATOM      4  C   UNL     1      33.473 -20.733 -20.314  0.00  0.00    +0.168 C 
ATOM      5  C   UNL     1      34.471 -22.075 -18.571  0.00  0.00    +0.003 C 
ATOM      6  C   UNL     1      33.347 -21.677 -19.295  0.00  0.00    +0.040 C 
ENDROOT
BRANCH   2   7
ATOM      7  O   UNL     1      34.858 -19.265 -21.604  0.00  0.00    -0.468 OA
ATOM      8  C   UNL     1      35.434 -18.011 -21.249  0.00  0.00    +0.253 C 
ENDBRANCH   2   7
BRANCH   4   9
ATOM      9  O   UNL     1      32.368 -20.353 -21.015  0.00  0.00    -0.503 OA
ATOM     10  H   UNL     1      31.687 -20.973 -21.188  0.00  0.00    +0.292 HD
ENDBRANCH   4   9
BRANCH   1  11
ATOM     11  C   UNL     1      36.891 -21.945 -18.111  0.00  0.00    +0.000 C 
ATOM     12  C   UNL     1      37.103 -21.752 -16.792  0.00  0.00    +0.000 C 
ENDBRANCH   1  11
TORSDOF 3
ENDMDL
