MODEL 1
REMARK VINA RESULT:     -12.5      0.000      0.000
REMARK  Name = 16040279
REMARK  5 active torsions:
REMARK  status: ('A' for Active; 'I' for Inactive)
REMARK    1  A    between atoms: N_2  and  C_21
REMARK    2  A    between atoms: C_3  and  C_11
REMARK    3  A    between atoms: C_4  and  N_17
REMARK    4  A    between atoms: C_21  and  C_22
REMARK    5  A    between atoms: C_22  and  C_25
REMARK                            x       y       z     vdW  Elec       q    Type
REMARK                         _______ _______ _______ _____ _____    ______ ____
ROOT
ATOM      1  O   UNL     1      35.122 -16.224 -20.121  0.00  0.00    -0.275 OA
ATOM      2  N   UNL     1      34.642 -16.726 -22.335  0.00  0.00    -0.281 N 
ATOM      3  C   UNL     1      33.924 -13.977 -22.762  0.00  0.00    +0.015 C 
ATOM      4  C   UNL     1      33.384 -15.052 -23.721  0.00  0.00    -0.041 C 
ATOM      5  C   UNL     1      34.325 -16.254 -23.682  0.00  0.00    +0.072 C 
ATOM      6  C   UNL     1      33.954 -14.560 -21.347  0.00  0.00    +0.088 C 
ATOM      7  C   UNL     1      34.656 -15.899 -21.216  0.00  0.00    +0.226 C 
ENDROOT
BRANCH   3  11
ATOM      8  F   UNL     1      34.612 -11.761 -24.397  0.00  0.00    -0.204 F 
ATOM      9  F   UNL     1      30.234 -11.199 -21.167  0.00  0.00    -0.202 F 
ATOM     10  F   UNL     1      31.010  -9.144 -22.794  0.00  0.00    -0.202 F 
ATOM     11  C   UNL     1      33.141 -12.674 -22.772  0.00  0.00    +0.006 C 
ATOM     12  C   UNL     1      33.540 -11.630 -23.602  0.00  0.00    +0.138 C 
ATOM     13  C   UNL     1      32.028 -12.533 -21.949  0.00  0.00    +0.030 C 
ATOM     14  C   UNL     1      31.306 -11.339 -21.957  0.00  0.00    +0.167 C 
ATOM     15  C   UNL     1      32.819 -10.435 -23.610  0.00  0.00    +0.061 C 
ATOM     16  C   UNL     1      31.702 -10.290 -22.787  0.00  0.00    +0.170 C 
ENDBRANCH   3  11
BRANCH   4  17
ATOM     17  N   UNL     1      33.308 -14.570 -25.102  0.00  0.00    +0.383 N 
ATOM     18  H   UNL     1      32.698 -15.182 -25.643  0.00  0.00    -0.089 HD
ATOM     19  H   UNL     1      34.243 -14.570 -25.514  0.00  0.00    -0.089 HD
ATOM     20  H   UNL     1      32.933 -13.621 -25.112  0.00  0.00    -0.089 HD
ENDBRANCH   4  17
BRANCH   2  21
ATOM     21  C   UNL     1      35.216 -18.063 -22.249  0.00  0.00    +0.098 C 
BRANCH  21  22
ATOM     22  C   UNL     1      34.150 -19.151 -22.131  0.00  0.00    +0.048 C 
BRANCH  22  25
ATOM     23  O   UNL     1      32.715 -22.325 -18.632  0.00  0.00    -0.435 OA
ATOM     24  O   UNL     1      34.977 -22.722 -17.901  0.00  0.00    -0.435 OA
ATOM     25  C   UNL     1      34.410 -20.108 -20.994  0.00  0.00    -0.017 C 
ATOM     26  C   UNL     1      33.336 -20.745 -20.387  0.00  0.00    +0.036 C 
ATOM     27  C   UNL     1      35.726 -20.328 -20.580  0.00  0.00    -0.001 C 
ATOM     28  C   UNL     1      33.623 -21.611 -19.351  0.00  0.00    +0.176 C 
ATOM     29  C   UNL     1      34.915 -21.837 -18.933  0.00  0.00    +0.176 C 
ATOM     30  C   UNL     1      35.990 -21.209 -19.528  0.00  0.00    +0.040 C 
ATOM     31  C   UNL     1      33.580 -23.027 -17.716  0.00  0.00    +0.429 C 
ENDBRANCH  22  25
ENDBRANCH  21  22
ENDBRANCH   2  21
TORSDOF 5
ENDMDL
MODEL 2
REMARK VINA RESULT:     -12.4      1.590      2.743
REMARK  Name = 16040279
REMARK  5 active torsions:
REMARK  status: ('A' for Active; 'I' for Inactive)
REMARK    1  A    between atoms: N_2  and  C_21
REMARK    2  A    between atoms: C_3  and  C_11
REMARK    3  A    between atoms: C_4  and  N_17
REMARK    4  A    between atoms: C_21  and  C_22
REMARK    5  A    between atoms: C_22  and  C_25
REMARK                            x       y       z     vdW  Elec       q    Type
REMARK                         _______ _______ _______ _____ _____    ______ ____
ROOT
ATOM      1  O   UNL     1      34.088 -17.245 -25.546  0.00  0.00    -0.275 OA
ATOM      2  N   UNL     1      34.777 -17.118 -23.334  0.00  0.00    -0.281 N 
ATOM      3  C   UNL     1      33.534 -14.535 -23.136  0.00  0.00    +0.015 C 
ATOM      4  C   UNL     1      34.643 -14.914 -22.139  0.00  0.00    -0.041 C 
ATOM      5  C   UNL     1      34.709 -16.436 -22.042  0.00  0.00    +0.072 C 
ATOM      6  C   UNL     1      33.892 -15.121 -24.505  0.00  0.00    +0.088 C 
ATOM      7  C   UNL     1      34.229 -16.600 -24.504  0.00  0.00    +0.226 C 
ENDROOT
BRANCH   3  11
ATOM      8  F   UNL     1      31.585 -13.155 -21.602  0.00  0.00    -0.204 F 
ATOM      9  F   UNL     1      34.518 -10.188 -25.140  0.00  0.00    -0.202 F 
ATOM     10  F   UNL     1      32.606  -8.987 -23.598  0.00  0.00    -0.202 F 
ATOM     11  C   UNL     1      33.282 -13.040 -23.259  0.00  0.00    +0.006 C 
ATOM     12  C   UNL     1      32.307 -12.434 -22.472  0.00  0.00    +0.138 C 
ATOM     13  C   UNL     1      34.029 -12.288 -24.160  0.00  0.00    +0.030 C 
ATOM     14  C   UNL     1      33.801 -10.916 -24.275  0.00  0.00    +0.167 C 
ATOM     15  C   UNL     1      32.078 -11.062 -22.587  0.00  0.00    +0.061 C 
ATOM     16  C   UNL     1      32.826 -10.304 -23.488  0.00  0.00    +0.170 C 
ENDBRANCH   3  11
BRANCH   4  17
ATOM     17  N   UNL     1      34.385 -14.378 -20.800  0.00  0.00    +0.383 N 
ATOM     18  H   UNL     1      34.867 -13.485 -20.693  0.00  0.00    -0.089 HD
ATOM     19  H   UNL     1      34.727 -15.036 -20.098  0.00  0.00    -0.089 HD
ATOM     20  H   UNL     1      33.382 -14.240 -20.676  0.00  0.00    -0.089 HD
ENDBRANCH   4  17
BRANCH   2  21
ATOM     21  C   UNL     1      35.210 -18.509 -23.296  0.00  0.00    +0.098 C 
BRANCH  21  22
ATOM     22  C   UNL     1      35.869 -18.882 -21.970  0.00  0.00    +0.048 C 
BRANCH  22  25
ATOM     23  O   UNL     1      35.156 -22.475 -18.659  0.00  0.00    -0.435 OA
ATOM     24  O   UNL     1      32.761 -22.222 -18.728  0.00  0.00    -0.435 OA
ATOM     25  C   UNL     1      35.001 -19.765 -21.108  0.00  0.00    -0.017 C 
ATOM     26  C   UNL     1      35.600 -20.712 -20.289  0.00  0.00    +0.036 C 
ATOM     27  C   UNL     1      33.613 -19.608 -21.159  0.00  0.00    -0.001 C 
ATOM     28  C   UNL     1      34.765 -21.497 -19.520  0.00  0.00    +0.176 C 
ATOM     29  C   UNL     1      33.396 -21.352 -19.560  0.00  0.00    +0.176 C 
ATOM     30  C   UNL     1      32.789 -20.415 -20.370  0.00  0.00    +0.040 C 
ATOM     31  C   UNL     1      33.881 -22.929 -18.161  0.00  0.00    +0.429 C 
ENDBRANCH  22  25
ENDBRANCH  21  22
ENDBRANCH   2  21
TORSDOF 5
ENDMDL
MODEL 3
REMARK VINA RESULT:     -11.9      4.531      9.607
REMARK  Name = 16040279
REMARK  5 active torsions:
REMARK  status: ('A' for Active; 'I' for Inactive)
REMARK    1  A    between atoms: N_2  and  C_21
REMARK    2  A    between atoms: C_3  and  C_11
REMARK    3  A    between atoms: C_4  and  N_17
REMARK    4  A    between atoms: C_21  and  C_22
REMARK    5  A    between atoms: C_22  and  C_25
REMARK                            x       y       z     vdW  Elec       q    Type
REMARK                         _______ _______ _______ _____ _____    ______ ____
ROOT
ATOM      1  O   UNL     1      34.567 -16.780 -25.824  0.00  0.00    -0.275 OA
ATOM      2  N   UNL     1      34.218 -15.370 -24.014  0.00  0.00    -0.281 N 
ATOM      3  C   UNL     1      35.159 -17.447 -22.265  0.00  0.00    +0.015 C 
ATOM      4  C   UNL     1      34.271 -16.327 -21.693  0.00  0.00    -0.041 C 
ATOM      5  C   UNL     1      34.402 -15.098 -22.590  0.00  0.00    +0.072 C 
ATOM      6  C   UNL     1      34.666 -17.783 -23.675  0.00  0.00    +0.088 C 
ATOM      7  C   UNL     1      34.513 -16.595 -24.605  0.00  0.00    +0.226 C 
ENDROOT
BRANCH   3  11
ATOM      8  F   UNL     1      37.582 -18.698 -21.477  0.00  0.00    -0.204 F 
ATOM      9  F   UNL     1      32.926 -21.021 -19.793  0.00  0.00    -0.202 F 
ATOM     10  F   UNL     1      35.333 -22.121 -19.107  0.00  0.00    -0.202 F 
ATOM     11  C   UNL     1      35.209 -18.706 -21.415  0.00  0.00    +0.006 C 
ATOM     12  C   UNL     1      36.437 -19.262 -21.068  0.00  0.00    +0.138 C 
ATOM     13  C   UNL     1      34.022 -19.295 -20.988  0.00  0.00    +0.030 C 
ATOM     14  C   UNL     1      34.064 -20.451 -20.206  0.00  0.00    +0.167 C 
ATOM     15  C   UNL     1      36.479 -20.418 -20.288  0.00  0.00    +0.061 C 
ATOM     16  C   UNL     1      35.292 -21.012 -19.857  0.00  0.00    +0.170 C 
ENDBRANCH   3  11
BRANCH   4  17
ATOM     17  N   UNL     1      34.666 -15.951 -20.334  0.00  0.00    +0.383 N 
ATOM     18  H   UNL     1      35.016 -14.993 -20.334  0.00  0.00    -0.089 HD
ATOM     19  H   UNL     1      35.400 -16.581 -20.007  0.00  0.00    -0.089 HD
ATOM     20  H   UNL     1      33.859 -16.018 -19.713  0.00  0.00    -0.089 HD
ENDBRANCH   4  17
BRANCH   2  21
ATOM     21  C   UNL     1      33.966 -14.207 -24.856  0.00  0.00    +0.098 C 
BRANCH  21  22
ATOM     22  C   UNL     1      32.991 -13.221 -24.215  0.00  0.00    +0.048 C 
BRANCH  22  25
ATOM     23  O   UNL     1      33.095  -8.593 -22.499  0.00  0.00    -0.435 OA
ATOM     24  O   UNL     1      34.848  -7.945 -24.020  0.00  0.00    -0.435 OA
ATOM     25  C   UNL     1      33.516 -11.807 -24.190  0.00  0.00    -0.017 C 
ATOM     26  C   UNL     1      32.977 -10.901 -23.286  0.00  0.00    +0.036 C 
ATOM     27  C   UNL     1      34.532 -11.445 -25.078  0.00  0.00    -0.001 C 
ATOM     28  C   UNL     1      33.489  -9.620 -23.300  0.00  0.00    +0.176 C 
ATOM     29  C   UNL     1      34.490  -9.250 -24.170  0.00  0.00    +0.176 C 
ATOM     30  C   UNL     1      35.033 -10.141 -25.072  0.00  0.00    +0.040 C 
ATOM     31  C   UNL     1      33.961  -7.536 -22.960  0.00  0.00    +0.429 C 
ENDBRANCH  22  25
ENDBRANCH  21  22
ENDBRANCH   2  21
TORSDOF 5
ENDMDL
MODEL 4
REMARK VINA RESULT:     -11.7      3.564      6.158
REMARK  Name = 16040279
REMARK  5 active torsions:
REMARK  status: ('A' for Active; 'I' for Inactive)
REMARK    1  A    between atoms: N_2  and  C_21
REMARK    2  A    between atoms: C_3  and  C_11
REMARK    3  A    between atoms: C_4  and  N_17
REMARK    4  A    between atoms: C_21  and  C_22
REMARK    5  A    between atoms: C_22  and  C_25
REMARK                            x       y       z     vdW  Elec       q    Type
REMARK                         _______ _______ _______ _____ _____    ______ ____
ROOT
ATOM      1  O   UNL     1      32.682 -21.145 -19.503  0.00  0.00    -0.275 OA
ATOM      2  N   UNL     1      35.001 -21.124 -19.608  0.00  0.00    -0.281 N 
ATOM      3  C   UNL     1      34.863 -18.836 -21.340  0.00  0.00    +0.015 C 
ATOM      4  C   UNL     1      36.132 -19.708 -21.345  0.00  0.00    -0.041 C 
ATOM      5  C   UNL     1      36.227 -20.435 -20.006  0.00  0.00    +0.072 C 
ATOM      6  C   UNL     1      33.648 -19.750 -21.164  0.00  0.00    +0.088 C 
ATOM      7  C   UNL     1      33.729 -20.711 -19.994  0.00  0.00    +0.226 C 
ENDROOT
BRANCH   3  11
ATOM      8  F   UNL     1      34.855 -19.877 -23.980  0.00  0.00    -0.204 F 
ATOM      9  F   UNL     1      34.206 -14.473 -23.441  0.00  0.00    -0.202 F 
ATOM     10  F   UNL     1      34.219 -15.612 -25.927  0.00  0.00    -0.202 F 
ATOM     11  C   UNL     1      34.690 -17.969 -22.577  0.00  0.00    +0.006 C 
ATOM     12  C   UNL     1      34.697 -18.554 -23.840  0.00  0.00    +0.138 C 
ATOM     13  C   UNL     1      34.525 -16.595 -22.437  0.00  0.00    +0.030 C 
ATOM     14  C   UNL     1      34.365 -15.796 -23.571  0.00  0.00    +0.167 C 
ATOM     15  C   UNL     1      34.538 -17.756 -24.974  0.00  0.00    +0.061 C 
ATOM     16  C   UNL     1      34.372 -16.377 -24.839  0.00  0.00    +0.170 C 
ENDBRANCH   3  11
BRANCH   4  17
ATOM     17  N   UNL     1      37.347 -18.910 -21.524  0.00  0.00    +0.383 N 
ATOM     18  H   UNL     1      38.045 -19.461 -22.024  0.00  0.00    -0.089 HD
ATOM     19  H   UNL     1      37.715 -18.641 -20.611  0.00  0.00    -0.089 HD
ATOM     20  H   UNL     1      37.128 -18.071 -22.062  0.00  0.00    -0.089 HD
ENDBRANCH   4  17
BRANCH   2  21
ATOM     21  C   UNL     1      35.145 -22.119 -18.553  0.00  0.00    +0.098 C 
BRANCH  21  22
ATOM     22  C   UNL     1      36.379 -21.878 -17.685  0.00  0.00    +0.048 C 
BRANCH  22  25
ATOM     23  O   UNL     1      38.434 -24.054 -13.758  0.00  0.00    -0.435 OA
ATOM     24  O   UNL     1      36.294 -24.566 -12.777  0.00  0.00    -0.435 OA
ATOM     25  C   UNL     1      36.319 -22.601 -16.362  0.00  0.00    -0.017 C 
ATOM     26  C   UNL     1      37.503 -22.960 -15.733  0.00  0.00    +0.036 C 
ATOM     27  C   UNL     1      35.071 -22.892 -15.805  0.00  0.00    -0.001 C 
ATOM     28  C   UNL     1      37.397 -23.620 -14.525  0.00  0.00    +0.176 C 
ATOM     29  C   UNL     1      36.174 -23.913 -13.965  0.00  0.00    +0.176 C 
ATOM     30  C   UNL     1      34.991 -23.561 -14.581  0.00  0.00    +0.040 C 
ATOM     31  C   UNL     1      37.727 -24.652 -12.652  0.00  0.00    +0.429 C 
ENDBRANCH  22  25
ENDBRANCH  21  22
ENDBRANCH   2  21
TORSDOF 5
ENDMDL
MODEL 5
REMARK VINA RESULT:     -11.7      3.857      6.458
REMARK  Name = 16040279
REMARK  5 active torsions:
REMARK  status: ('A' for Active; 'I' for Inactive)
REMARK    1  A    between atoms: N_2  and  C_21
REMARK    2  A    between atoms: C_3  and  C_11
REMARK    3  A    between atoms: C_4  and  N_17
REMARK    4  A    between atoms: C_21  and  C_22
REMARK    5  A    between atoms: C_22  and  C_25
REMARK                            x       y       z     vdW  Elec       q    Type
REMARK                         _______ _______ _______ _____ _____    ______ ____
ROOT
ATOM      1  O   UNL     1      32.706 -21.370 -19.307  0.00  0.00    -0.275 OA
ATOM      2  N   UNL     1      35.026 -21.317 -19.334  0.00  0.00    -0.281 N 
ATOM      3  C   UNL     1      34.913 -18.999 -21.029  0.00  0.00    +0.015 C 
ATOM      4  C   UNL     1      36.193 -19.853 -21.008  0.00  0.00    -0.041 C 
ATOM      5  C   UNL     1      36.254 -20.603 -19.679  0.00  0.00    +0.072 C 
ATOM      6  C   UNL     1      33.705 -19.932 -20.909  0.00  0.00    +0.088 C 
ATOM      7  C   UNL     1      33.762 -20.914 -19.754  0.00  0.00    +0.226 C 
ENDROOT
BRANCH   3  11
ATOM      8  F   UNL     1      34.767 -16.167 -20.895  0.00  0.00    -0.204 F 
ATOM      9  F   UNL     1      34.505 -18.434 -25.865  0.00  0.00    -0.202 F 
ATOM     10  F   UNL     1      34.376 -15.717 -25.589  0.00  0.00    -0.202 F 
ATOM     11  C   UNL     1      34.768 -18.112 -22.256  0.00  0.00    +0.006 C 
ATOM     12  C   UNL     1      34.703 -16.730 -22.110  0.00  0.00    +0.138 C 
ATOM     13  C   UNL     1      34.701 -18.692 -23.519  0.00  0.00    +0.030 C 
ATOM     14  C   UNL     1      34.569 -17.882 -24.648  0.00  0.00    +0.167 C 
ATOM     15  C   UNL     1      34.570 -15.919 -23.237  0.00  0.00    +0.061 C 
ATOM     16  C   UNL     1      34.503 -16.496 -24.506  0.00  0.00    +0.170 C 
ENDBRANCH   3  11
BRANCH   4  17
ATOM     17  N   UNL     1      37.402 -19.036 -21.133  0.00  0.00    +0.383 N 
ATOM     18  H   UNL     1      37.230 -18.270 -21.785  0.00  0.00    -0.089 HD
ATOM     19  H   UNL     1      38.169 -19.613 -21.481  0.00  0.00    -0.089 HD
ATOM     20  H   UNL     1      37.651 -18.654 -20.220  0.00  0.00    -0.089 HD
ENDBRANCH   4  17
BRANCH   2  21
ATOM     21  C   UNL     1      35.150 -22.329 -18.293  0.00  0.00    +0.098 C 
BRANCH  21  22
ATOM     22  C   UNL     1      36.295 -22.036 -17.325  0.00  0.00    +0.048 C 
BRANCH  22  25
ATOM     23  O   UNL     1      38.495 -24.339 -13.553  0.00  0.00    -0.435 OA
ATOM     24  O   UNL     1      36.450 -25.409 -12.862  0.00  0.00    -0.435 OA
ATOM     25  C   UNL     1      36.300 -22.951 -16.126  0.00  0.00    -0.017 C 
ATOM     26  C   UNL     1      37.489 -23.160 -15.439  0.00  0.00    +0.036 C 
ATOM     27  C   UNL     1      35.107 -23.566 -15.737  0.00  0.00    -0.001 C 
ATOM     28  C   UNL     1      37.444 -24.006 -14.350  0.00  0.00    +0.176 C 
ATOM     29  C   UNL     1      36.275 -24.618 -13.955  0.00  0.00    +0.176 C 
ATOM     30  C   UNL     1      35.088 -24.417 -14.629  0.00  0.00    +0.040 C 
ATOM     31  C   UNL     1      37.858 -25.227 -12.612  0.00  0.00    +0.429 C 
ENDBRANCH  22  25
ENDBRANCH  21  22
ENDBRANCH   2  21
TORSDOF 5
ENDMDL
MODEL 6
REMARK VINA RESULT:     -11.6      4.441      9.397
REMARK  Name = 16040279
REMARK  5 active torsions:
REMARK  status: ('A' for Active; 'I' for Inactive)
REMARK    1  A    between atoms: N_2  and  C_21
REMARK    2  A    between atoms: C_3  and  C_11
REMARK    3  A    between atoms: C_4  and  N_17
REMARK    4  A    between atoms: C_21  and  C_22
REMARK    5  A    between atoms: C_22  and  C_25
REMARK                            x       y       z     vdW  Elec       q    Type
REMARK                         _______ _______ _______ _____ _____    ______ ____
ROOT
ATOM      1  O   UNL     1      34.598 -18.306 -25.637  0.00  0.00    -0.275 OA
ATOM      2  N   UNL     1      34.606 -16.623 -24.038  0.00  0.00    -0.281 N 
ATOM      3  C   UNL     1      35.176 -18.593 -22.025  0.00  0.00    +0.015 C 
ATOM      4  C   UNL     1      34.552 -17.250 -21.607  0.00  0.00    -0.041 C 
ATOM      5  C   UNL     1      34.894 -16.205 -22.667  0.00  0.00    +0.072 C 
ATOM      6  C   UNL     1      34.574 -19.009 -23.370  0.00  0.00    +0.088 C 
ATOM      7  C   UNL     1      34.627 -17.951 -24.455  0.00  0.00    +0.226 C 
ENDROOT
BRANCH   3  11
ATOM      8  F   UNL     1      32.645 -19.617 -21.250  0.00  0.00    -0.204 F 
ATOM      9  F   UNL     1      37.051 -21.852 -18.903  0.00  0.00    -0.202 F 
ATOM     10  F   UNL     1      34.549 -22.741 -18.249  0.00  0.00    -0.202 F 
ATOM     11  C   UNL     1      35.005 -19.710 -21.008  0.00  0.00    +0.006 C 
ATOM     12  C   UNL     1      33.729 -20.159 -20.679  0.00  0.00    +0.138 C 
ATOM     13  C   UNL     1      36.127 -20.277 -20.412  0.00  0.00    +0.030 C 
ATOM     14  C   UNL     1      35.974 -21.303 -19.479  0.00  0.00    +0.167 C 
ATOM     15  C   UNL     1      33.575 -21.184 -19.745  0.00  0.00    +0.061 C 
ATOM     16  C   UNL     1      34.698 -21.756 -19.145  0.00  0.00    +0.170 C 
ENDBRANCH   3  11
BRANCH   4  17
ATOM     17  N   UNL     1      35.066 -16.783 -20.317  0.00  0.00    +0.383 N 
ATOM     18  H   UNL     1      34.868 -17.481 -19.600  0.00  0.00    -0.089 HD
ATOM     19  H   UNL     1      34.612 -15.902 -20.069  0.00  0.00    -0.089 HD
ATOM     20  H   UNL     1      36.073 -16.639 -20.383  0.00  0.00    -0.089 HD
ENDBRANCH   4  17
BRANCH   2  21
ATOM     21  C   UNL     1      34.560 -15.558 -25.031  0.00  0.00    +0.098 C 
BRANCH  21  22
ATOM     22  C   UNL     1      33.184 -14.900 -25.121  0.00  0.00    +0.048 C 
BRANCH  22  25
ATOM     23  O   UNL     1      34.411 -10.130 -24.767  0.00  0.00    -0.435 OA
ATOM     24  O   UNL     1      33.091  -9.819 -22.775  0.00  0.00    -0.435 OA
ATOM     25  C   UNL     1      33.136 -13.544 -24.463  0.00  0.00    -0.017 C 
ATOM     26  C   UNL     1      33.856 -12.495 -25.019  0.00  0.00    +0.036 C 
ATOM     27  C   UNL     1      32.367 -13.378 -23.307  0.00  0.00    -0.001 C 
ATOM     28  C   UNL     1      33.781 -11.273 -24.381  0.00  0.00    +0.176 C 
ATOM     29  C   UNL     1      33.027 -11.096 -23.243  0.00  0.00    +0.176 C 
ATOM     30  C   UNL     1      32.308 -12.130 -22.681  0.00  0.00    +0.040 C 
ATOM     31  C   UNL     1      33.968  -9.214 -23.745  0.00  0.00    +0.429 C 
ENDBRANCH  22  25
ENDBRANCH  21  22
ENDBRANCH   2  21
TORSDOF 5
ENDMDL
MODEL 7
REMARK VINA RESULT:     -11.6      4.302      9.466
REMARK  Name = 16040279
REMARK  5 active torsions:
REMARK  status: ('A' for Active; 'I' for Inactive)
REMARK    1  A    between atoms: N_2  and  C_21
REMARK    2  A    between atoms: C_3  and  C_11
REMARK    3  A    between atoms: C_4  and  N_17
REMARK    4  A    between atoms: C_21  and  C_22
REMARK    5  A    between atoms: C_22  and  C_25
REMARK                            x       y       z     vdW  Elec       q    Type
REMARK                         _______ _______ _______ _____ _____    ______ ____
ROOT
ATOM      1  O   UNL     1      34.233 -14.679 -21.089  0.00  0.00    -0.275 OA
ATOM      2  N   UNL     1      34.631 -15.779 -23.094  0.00  0.00    -0.281 N 
ATOM      3  C   UNL     1      34.204 -18.287 -21.758  0.00  0.00    +0.015 C 
ATOM      4  C   UNL     1      35.007 -18.261 -23.070  0.00  0.00    -0.041 C 
ATOM      5  C   UNL     1      34.602 -17.021 -23.863  0.00  0.00    +0.072 C 
ATOM      6  C   UNL     1      34.546 -17.028 -20.955  0.00  0.00    +0.088 C 
ATOM      7  C   UNL     1      34.422 -15.724 -21.718  0.00  0.00    +0.226 C 
ENDROOT
BRANCH   3  11
ATOM      8  F   UNL     1      32.089 -19.786 -20.603  0.00  0.00    -0.204 F 
ATOM      9  F   UNL     1      37.182 -21.538 -19.651  0.00  0.00    -0.202 F 
ATOM     10  F   UNL     1      35.049 -22.887 -18.600  0.00  0.00    -0.202 F 
ATOM     11  C   UNL     1      34.429 -19.526 -20.906  0.00  0.00    +0.006 C 
ATOM     12  C   UNL     1      33.339 -20.209 -20.373  0.00  0.00    +0.138 C 
ATOM     13  C   UNL     1      35.725 -19.970 -20.666  0.00  0.00    +0.030 C 
ATOM     14  C   UNL     1      35.936 -21.107 -19.885  0.00  0.00    +0.167 C 
ATOM     15  C   UNL     1      33.549 -21.346 -19.592  0.00  0.00    +0.061 C 
ATOM     16  C   UNL     1      34.848 -21.795 -19.349  0.00  0.00    +0.170 C 
ENDBRANCH   3  11
BRANCH   4  17
ATOM     17  N   UNL     1      34.748 -19.442 -23.897  0.00  0.00    +0.383 N 
ATOM     18  H   UNL     1      34.940 -19.223 -24.874  0.00  0.00    -0.089 HD
ATOM     19  H   UNL     1      33.770 -19.720 -23.797  0.00  0.00    -0.089 HD
ATOM     20  H   UNL     1      35.351 -20.208 -23.595  0.00  0.00    -0.089 HD
ENDBRANCH   4  17
BRANCH   2  21
ATOM     21  C   UNL     1      34.620 -14.547 -23.873  0.00  0.00    +0.098 C 
BRANCH  21  22
ATOM     22  C   UNL     1      33.215 -13.969 -24.034  0.00  0.00    +0.048 C 
BRANCH  22  25
ATOM     23  O   UNL     1      31.497 -10.042 -21.583  0.00  0.00    -0.435 OA
ATOM     24  O   UNL     1      32.874  -8.513 -22.836  0.00  0.00    -0.435 OA
ATOM     25  C   UNL     1      33.149 -12.492 -23.737  0.00  0.00    -0.017 C 
ATOM     26  C   UNL     1      32.292 -12.039 -22.743  0.00  0.00    +0.036 C 
ATOM     27  C   UNL     1      33.952 -11.616 -24.472  0.00  0.00    -0.001 C 
ATOM     28  C   UNL     1      32.266 -10.679 -22.508  0.00  0.00    +0.176 C 
ATOM     29  C   UNL     1      33.052  -9.805 -23.224  0.00  0.00    +0.176 C 
ATOM     30  C   UNL     1      33.907 -10.244 -24.214  0.00  0.00    +0.040 C 
ATOM     31  C   UNL     1      31.888  -8.671 -21.797  0.00  0.00    +0.429 C 
ENDBRANCH  22  25
ENDBRANCH  21  22
ENDBRANCH   2  21
TORSDOF 5
ENDMDL
MODEL 8
REMARK VINA RESULT:     -11.5      3.846      6.427
REMARK  Name = 16040279
REMARK  5 active torsions:
REMARK  status: ('A' for Active; 'I' for Inactive)
REMARK    1  A    between atoms: N_2  and  C_21
REMARK    2  A    between atoms: C_3  and  C_11
REMARK    3  A    between atoms: C_4  and  N_17
REMARK    4  A    between atoms: C_21  and  C_22
REMARK    5  A    between atoms: C_22  and  C_25
REMARK                            x       y       z     vdW  Elec       q    Type
REMARK                         _______ _______ _______ _____ _____    ______ ____
ROOT
ATOM      1  O   UNL     1      36.945 -21.779 -18.985  0.00  0.00    -0.275 OA
ATOM      2  N   UNL     1      34.627 -21.866 -19.060  0.00  0.00    -0.281 N 
ATOM      3  C   UNL     1      34.661 -19.906 -21.161  0.00  0.00    +0.015 C 
ATOM      4  C   UNL     1      33.380 -20.094 -20.329  0.00  0.00    -0.041 C 
ATOM      5  C   UNL     1      33.385 -21.503 -19.741  0.00  0.00    +0.072 C 
ATOM      6  C   UNL     1      35.869 -20.072 -20.236  0.00  0.00    +0.088 C 
ATOM      7  C   UNL     1      35.870 -21.336 -19.397  0.00  0.00    +0.226 C 
ENDROOT
BRANCH   3  11
ATOM      8  F   UNL     1      34.859 -19.698 -23.985  0.00  0.00    -0.204 F 
ATOM      9  F   UNL     1      34.783 -15.021 -21.151  0.00  0.00    -0.202 F 
ATOM     10  F   UNL     1      34.971 -14.969 -23.878  0.00  0.00    -0.202 F 
ATOM     11  C   UNL     1      34.745 -18.577 -21.896  0.00  0.00    +0.006 C 
ATOM     12  C   UNL     1      34.840 -18.556 -23.284  0.00  0.00    +0.138 C 
ATOM     13  C   UNL     1      34.726 -17.389 -21.172  0.00  0.00    +0.030 C 
ATOM     14  C   UNL     1      34.802 -16.167 -21.843  0.00  0.00    +0.167 C 
ATOM     15  C   UNL     1      34.917 -17.335 -23.955  0.00  0.00    +0.061 C 
ATOM     16  C   UNL     1      34.898 -16.141 -23.234  0.00  0.00    +0.170 C 
ENDBRANCH   3  11
BRANCH   4  17
ATOM     17  N   UNL     1      32.170 -19.936 -21.139  0.00  0.00    +0.383 N 
ATOM     18  H   UNL     1      31.453 -19.462 -20.590  0.00  0.00    -0.089 HD
ATOM     19  H   UNL     1      31.828 -20.856 -21.422  0.00  0.00    -0.089 HD
ATOM     20  H   UNL     1      32.384 -19.383 -21.969  0.00  0.00    -0.089 HD
ENDBRANCH   4  17
BRANCH   2  21
ATOM     21  C   UNL     1      34.554 -23.024 -18.179  0.00  0.00    +0.098 C 
BRANCH  21  22
ATOM     22  C   UNL     1      33.296 -23.022 -17.312  0.00  0.00    +0.048 C 
BRANCH  22  25
ATOM     23  O   UNL     1      36.264 -24.316 -13.584  0.00  0.00    -0.435 OA
ATOM     24  O   UNL     1      34.424 -24.540 -12.044  0.00  0.00    -0.435 OA
ATOM     25  C   UNL     1      33.564 -23.429 -15.884  0.00  0.00    -0.017 C 
ATOM     26  C   UNL     1      34.871 -23.668 -15.483  0.00  0.00    +0.036 C 
ATOM     27  C   UNL     1      32.487 -23.556 -15.002  0.00  0.00    -0.001 C 
ATOM     28  C   UNL     1      35.066 -24.039 -14.167  0.00  0.00    +0.176 C 
ATOM     29  C   UNL     1      34.015 -24.167 -13.288  0.00  0.00    +0.176 C 
ATOM     30  C   UNL     1      32.712 -23.932 -13.676  0.00  0.00    +0.040 C 
ATOM     31  C   UNL     1      35.849 -24.633 -12.240  0.00  0.00    +0.429 C 
ENDBRANCH  22  25
ENDBRANCH  21  22
ENDBRANCH   2  21
TORSDOF 5
ENDMDL
MODEL 9
REMARK VINA RESULT:     -11.5      4.008      6.519
REMARK  Name = 16040279
REMARK  5 active torsions:
REMARK  status: ('A' for Active; 'I' for Inactive)
REMARK    1  A    between atoms: N_2  and  C_21
REMARK    2  A    between atoms: C_3  and  C_11
REMARK    3  A    between atoms: C_4  and  N_17
REMARK    4  A    between atoms: C_21  and  C_22
REMARK    5  A    between atoms: C_22  and  C_25
REMARK                            x       y       z     vdW  Elec       q    Type
REMARK                         _______ _______ _______ _____ _____    ______ ____
ROOT
ATOM      1  O   UNL     1      37.005 -21.940 -18.681  0.00  0.00    -0.275 OA
ATOM      2  N   UNL     1      34.692 -22.066 -18.830  0.00  0.00    -0.281 N 
ATOM      3  C   UNL     1      34.763 -20.127 -20.949  0.00  0.00    +0.015 C 
ATOM      4  C   UNL     1      33.459 -20.327 -20.157  0.00  0.00    -0.041 C 
ATOM      5  C   UNL     1      33.468 -21.731 -19.555  0.00  0.00    +0.072 C 
ATOM      6  C   UNL     1      35.943 -20.264 -19.983  0.00  0.00    +0.088 C 
ATOM      7  C   UNL     1      35.936 -21.519 -19.132  0.00  0.00    +0.226 C 
ENDROOT
BRANCH   3  11
ATOM      8  F   UNL     1      34.992 -19.943 -23.772  0.00  0.00    -0.204 F 
ATOM      9  F   UNL     1      34.864 -15.241 -20.980  0.00  0.00    -0.202 F 
ATOM     10  F   UNL     1      35.083 -15.212 -23.705  0.00  0.00    -0.202 F 
ATOM     11  C   UNL     1      34.850 -18.804 -21.694  0.00  0.00    +0.006 C 
ATOM     12  C   UNL     1      34.961 -18.794 -23.081  0.00  0.00    +0.138 C 
ATOM     13  C   UNL     1      34.817 -17.609 -20.981  0.00  0.00    +0.030 C 
ATOM     14  C   UNL     1      34.896 -16.393 -21.662  0.00  0.00    +0.167 C 
ATOM     15  C   UNL     1      35.040 -17.579 -23.762  0.00  0.00    +0.061 C 
ATOM     16  C   UNL     1      35.007 -16.379 -23.052  0.00  0.00    +0.170 C 
ENDBRANCH   3  11
BRANCH   4  17
ATOM     17  N   UNL     1      32.273 -20.198 -21.008  0.00  0.00    +0.383 N 
ATOM     18  H   UNL     1      31.582 -19.612 -20.541  0.00  0.00    -0.089 HD
ATOM     19  H   UNL     1      31.876 -21.123 -21.180  0.00  0.00    -0.089 HD
ATOM     20  H   UNL     1      32.536 -19.771 -21.896  0.00  0.00    -0.089 HD
ENDBRANCH   4  17
BRANCH   2  21
ATOM     21  C   UNL     1      34.609 -23.216 -17.940  0.00  0.00    +0.098 C 
BRANCH  21  22
ATOM     22  C   UNL     1      34.455 -22.813 -16.474  0.00  0.00    +0.048 C 
BRANCH  22  25
ATOM     23  O   UNL     1      29.618 -23.779 -16.265  0.00  0.00    -0.435 OA
ATOM     24  O   UNL     1      29.826 -24.958 -14.174  0.00  0.00    -0.435 OA
ATOM     25  C   UNL     1      33.228 -23.405 -15.826  0.00  0.00    -0.017 C 
ATOM     26  C   UNL     1      31.996 -23.258 -16.450  0.00  0.00    +0.036 C 
ATOM     27  C   UNL     1      33.363 -24.085 -14.613  0.00  0.00    -0.001 C 
ATOM     28  C   UNL     1      30.902 -23.815 -15.819  0.00  0.00    +0.176 C 
ATOM     29  C   UNL     1      31.021 -24.488 -14.624  0.00  0.00    +0.176 C 
ATOM     30  C   UNL     1      32.240 -24.640 -13.995  0.00  0.00    +0.040 C 
ATOM     31  C   UNL     1      28.941 -24.505 -15.218  0.00  0.00    +0.429 C 
ENDBRANCH  22  25
ENDBRANCH  21  22
ENDBRANCH   2  21
TORSDOF 5
ENDMDL
