MODEL 1
REMARK VINA RESULT:     -12.6      0.000      0.000
REMARK  Name = 5288711
REMARK  4 active torsions:
REMARK  status: ('A' for Active; 'I' for Inactive)
REMARK    1  A    between atoms: C_1  and  S_7
REMARK    2  A    between atoms: C_2  and  N_17
REMARK    3  A    between atoms: S_7  and  N_11
REMARK    4  A    between atoms: N_17  and  C_25
REMARK                            x       y       z     vdW  Elec       q    Type
REMARK                         _______ _______ _______ _____ _____    ______ ____
ROOT
ATOM      1  C   UNL     1      34.509 -21.775 -19.150  0.00  0.00    +0.125 C 
ATOM      2  C   UNL     1      35.583 -19.735 -20.731  0.00  0.00    +0.048 C 
ATOM      3  C   UNL     1      35.891 -21.592 -19.210  0.00  0.00    +0.021 C 
ATOM      4  C   UNL     1      33.663 -20.939 -19.878  0.00  0.00    +0.021 C 
ATOM      5  C   UNL     1      36.426 -20.574 -19.998  0.00  0.00    +0.016 C 
ATOM      6  C   UNL     1      34.198 -19.920 -20.667  0.00  0.00    +0.016 C 
ENDROOT
BRANCH   1   7
ATOM      7  S   UNL     1      33.838 -23.049 -18.163  0.00  0.00    +0.075 S 
ATOM      8  O   UNL     1      33.575 -24.202 -19.015  0.00  0.00    -0.150 OA
ATOM      9  O   UNL     1      34.694 -23.202 -16.994  0.00  0.00    -0.150 OA
BRANCH   7  11
ATOM     10  S   UNL     1      29.992 -23.192 -16.474  0.00  0.00    -0.050 S 
ATOM     11  N   UNL     1      32.337 -22.353 -17.697  0.00  0.00    -0.194 N 
ATOM     12  N   UNL     1      32.375 -23.338 -15.483  0.00  0.00    -0.221 NA
ATOM     13  C   UNL     1      31.680 -22.962 -16.520  0.00  0.00    +0.179 C 
ATOM     14  C   UNL     1      30.169 -23.870 -14.909  0.00  0.00    +0.059 C 
ATOM     15  C   UNL     1      31.502 -23.864 -14.550  0.00  0.00    +0.108 C 
ATOM     16  H   UNL     1      31.939 -21.595 -18.183  0.00  0.00    +0.176 HD
ENDBRANCH   7  11
ENDBRANCH   1   7
BRANCH   2  17
ATOM     17  N   UNL     1      36.123 -18.710 -21.525  0.00  0.00    -0.311 N 
ATOM     18  H   UNL     1      37.034 -18.421 -21.288  0.00  0.00    +0.152 HD
BRANCH  17  25
ATOM     19  O   UNL     1      35.152 -16.310 -20.220  0.00  0.00    -0.270 OA
ATOM     20  N   UNL     1      34.076 -14.911 -21.791  0.00  0.00    -0.280 N 
ATOM     21  C   UNL     1      34.323 -16.176 -23.696  0.00  0.00    +0.019 C 
ATOM     22  C   UNL     1      34.937 -16.882 -22.575  0.00  0.00    +0.069 C 
ATOM     23  C   UNL     1      33.816 -14.987 -23.164  0.00  0.00    +0.051 C 
ATOM     24  C   UNL     1      34.766 -16.042 -21.342  0.00  0.00    +0.251 C 
ATOM     25  C   UNL     1      35.555 -18.064 -22.575  0.00  0.00    +0.066 C 
ATOM     26  C   UNL     1      34.180 -16.466 -25.039  0.00  0.00    +0.001 C 
ATOM     27  C   UNL     1      33.157 -14.052 -23.938  0.00  0.00    +0.015 C 
ATOM     28  C   UNL     1      33.516 -15.533 -25.843  0.00  0.00    +0.000 C 
ATOM     29  C   UNL     1      33.010 -14.338 -25.297  0.00  0.00    +0.001 C 
ATOM     30  H   UNL     1      33.809 -14.160 -21.215  0.00  0.00    +0.155 HD
ENDBRANCH  17  25
ENDBRANCH   2  17
TORSDOF 4
ENDMDL
MODEL 2
REMARK VINA RESULT:     -12.4      1.366      1.749
REMARK  Name = 5288711
REMARK  4 active torsions:
REMARK  status: ('A' for Active; 'I' for Inactive)
REMARK    1  A    between atoms: C_1  and  S_7
REMARK    2  A    between atoms: C_2  and  N_17
REMARK    3  A    between atoms: S_7  and  N_11
REMARK    4  A    between atoms: N_17  and  C_25
REMARK                            x       y       z     vdW  Elec       q    Type
REMARK                         _______ _______ _______ _____ _____    ______ ____
ROOT
ATOM      1  C   UNL     1      34.444 -21.856 -19.088  0.00  0.00    +0.125 C 
ATOM      2  C   UNL     1      35.526 -19.890 -20.755  0.00  0.00    +0.048 C 
ATOM      3  C   UNL     1      35.826 -21.677 -19.150  0.00  0.00    +0.021 C 
ATOM      4  C   UNL     1      33.602 -21.053 -19.857  0.00  0.00    +0.021 C 
ATOM      5  C   UNL     1      36.366 -20.696 -19.981  0.00  0.00    +0.016 C 
ATOM      6  C   UNL     1      34.141 -20.072 -20.689  0.00  0.00    +0.016 C 
ENDROOT
BRANCH   1   7
ATOM      7  S   UNL     1      33.767 -23.085 -18.048  0.00  0.00    +0.075 S 
ATOM      8  O   UNL     1      33.524 -24.281 -18.845  0.00  0.00    -0.150 OA
ATOM      9  O   UNL     1      34.608 -23.172 -16.861  0.00  0.00    -0.150 OA
BRANCH   7  11
ATOM     10  S   UNL     1      29.858 -23.199 -16.508  0.00  0.00    -0.050 S 
ATOM     11  N   UNL     1      32.255 -22.377 -17.638  0.00  0.00    -0.194 N 
ATOM     12  N   UNL     1      32.200 -23.368 -15.427  0.00  0.00    -0.221 NA
ATOM     13  C   UNL     1      31.549 -22.983 -16.488  0.00  0.00    +0.179 C 
ATOM     14  C   UNL     1      29.970 -23.882 -14.939  0.00  0.00    +0.059 C 
ATOM     15  C   UNL     1      31.288 -23.888 -14.530  0.00  0.00    +0.108 C 
ATOM     16  H   UNL     1      31.882 -21.615 -18.137  0.00  0.00    +0.176 HD
ENDBRANCH   7  11
ENDBRANCH   1   7
BRANCH   2  17
ATOM     17  N   UNL     1      36.070 -18.902 -21.592  0.00  0.00    -0.311 N 
ATOM     18  H   UNL     1      36.917 -19.137 -22.036  0.00  0.00    +0.152 HD
BRANCH  17  25
ATOM     19  O   UNL     1      35.091 -19.304 -24.291  0.00  0.00    -0.270 OA
ATOM     20  N   UNL     1      34.149 -17.301 -25.118  0.00  0.00    -0.280 N 
ATOM     21  C   UNL     1      34.473 -15.922 -23.306  0.00  0.00    +0.019 C 
ATOM     22  C   UNL     1      34.999 -17.247 -22.993  0.00  0.00    +0.069 C 
ATOM     23  C   UNL     1      33.969 -16.010 -24.607  0.00  0.00    +0.051 C 
ATOM     24  C   UNL     1      34.780 -18.132 -24.186  0.00  0.00    +0.251 C 
ATOM     25  C   UNL     1      35.584 -17.665 -21.869  0.00  0.00    +0.066 C 
ATOM     26  C   UNL     1      34.403 -14.735 -22.601  0.00  0.00    +0.001 C 
ATOM     27  C   UNL     1      33.384 -14.937 -25.248  0.00  0.00    +0.015 C 
ATOM     28  C   UNL     1      33.814 -13.634 -23.232  0.00  0.00    +0.000 C 
ATOM     29  C   UNL     1      33.310 -13.734 -24.542  0.00  0.00    +0.001 C 
ATOM     30  H   UNL     1      33.869 -17.587 -26.017  0.00  0.00    +0.155 HD
ENDBRANCH  17  25
ENDBRANCH   2  17
TORSDOF 4
ENDMDL
MODEL 3
REMARK VINA RESULT:     -11.7      2.789      9.718
REMARK  Name = 5288711
REMARK  4 active torsions:
REMARK  status: ('A' for Active; 'I' for Inactive)
REMARK    1  A    between atoms: C_1  and  S_7
REMARK    2  A    between atoms: C_2  and  N_17
REMARK    3  A    between atoms: S_7  and  N_11
REMARK    4  A    between atoms: N_17  and  C_25
REMARK                            x       y       z     vdW  Elec       q    Type
REMARK                         _______ _______ _______ _____ _____    ______ ____
ROOT
ATOM      1  C   UNL     1      34.733 -19.431 -21.357  0.00  0.00    +0.125 C 
ATOM      2  C   UNL     1      34.420 -21.484 -19.486  0.00  0.00    +0.048 C 
ATOM      3  C   UNL     1      35.855 -20.048 -20.804  0.00  0.00    +0.021 C 
ATOM      4  C   UNL     1      33.455 -19.838 -20.977  0.00  0.00    +0.021 C 
ATOM      5  C   UNL     1      35.699 -21.073 -19.872  0.00  0.00    +0.016 C 
ATOM      6  C   UNL     1      33.298 -20.863 -20.044  0.00  0.00    +0.016 C 
ENDROOT
BRANCH   1   7
ATOM      7  S   UNL     1      34.928 -18.147 -22.525  0.00  0.00    +0.075 S 
ATOM      8  O   UNL     1      36.303 -17.670 -22.461  0.00  0.00    -0.150 OA
ATOM      9  O   UNL     1      34.391 -18.620 -23.795  0.00  0.00    -0.150 OA
BRANCH   7  11
ATOM     10  S   UNL     1      33.775 -14.170 -21.806  0.00  0.00    -0.050 S 
ATOM     11  N   UNL     1      33.892 -16.942 -21.870  0.00  0.00    -0.194 N 
ATOM     12  N   UNL     1      33.815 -15.654 -23.922  0.00  0.00    -0.221 NA
ATOM     13  C   UNL     1      33.830 -15.667 -22.618  0.00  0.00    +0.179 C 
ATOM     14  C   UNL     1      33.725 -13.391 -23.333  0.00  0.00    +0.059 C 
ATOM     15  C   UNL     1      33.754 -14.338 -24.336  0.00  0.00    +0.108 C 
ATOM     16  H   UNL     1      33.372 -17.090 -21.048  0.00  0.00    +0.176 HD
ENDBRANCH   7  11
ENDBRANCH   1   7
BRANCH   2  17
ATOM     17  N   UNL     1      34.263 -22.516 -18.546  0.00  0.00    -0.311 N 
ATOM     18  H   UNL     1      35.046 -23.098 -18.416  0.00  0.00    +0.152 HD
BRANCH  17  25
ATOM     19  O   UNL     1      35.532 -23.628 -16.188  0.00  0.00    -0.270 OA
ATOM     20  N   UNL     1      33.892 -24.280 -14.617  0.00  0.00    -0.280 N 
ATOM     21  C   UNL     1      31.982 -23.697 -15.758  0.00  0.00    +0.019 C 
ATOM     22  C   UNL     1      33.144 -23.367 -16.578  0.00  0.00    +0.069 C 
ATOM     23  C   UNL     1      32.493 -24.248 -14.579  0.00  0.00    +0.051 C 
ATOM     24  C   UNL     1      34.380 -23.754 -15.819  0.00  0.00    +0.251 C 
ATOM     25  C   UNL     1      33.174 -22.818 -17.794  0.00  0.00    +0.066 C 
ATOM     26  C   UNL     1      30.619 -23.566 -15.943  0.00  0.00    +0.001 C 
ATOM     27  C   UNL     1      31.680 -24.684 -13.553  0.00  0.00    +0.015 C 
ATOM     28  C   UNL     1      29.775 -24.001 -14.915  0.00  0.00    +0.000 C 
ATOM     29  C   UNL     1      30.300 -24.554 -13.732  0.00  0.00    +0.001 C 
ATOM     30  H   UNL     1      34.460 -24.628 -13.893  0.00  0.00    +0.155 HD
ENDBRANCH  17  25
ENDBRANCH   2  17
TORSDOF 4
ENDMDL
MODEL 4
REMARK VINA RESULT:     -11.7      1.564      1.848
REMARK  Name = 5288711
REMARK  4 active torsions:
REMARK  status: ('A' for Active; 'I' for Inactive)
REMARK    1  A    between atoms: C_1  and  S_7
REMARK    2  A    between atoms: C_2  and  N_17
REMARK    3  A    between atoms: S_7  and  N_11
REMARK    4  A    between atoms: N_17  and  C_25
REMARK                            x       y       z     vdW  Elec       q    Type
REMARK                         _______ _______ _______ _____ _____    ______ ____
ROOT
ATOM      1  C   UNL     1      34.457 -21.465 -19.480  0.00  0.00    +0.125 C 
ATOM      2  C   UNL     1      35.471 -19.371 -21.030  0.00  0.00    +0.048 C 
ATOM      3  C   UNL     1      35.833 -21.253 -19.552  0.00  0.00    +0.021 C 
ATOM      4  C   UNL     1      33.586 -20.631 -20.181  0.00  0.00    +0.021 C 
ATOM      5  C   UNL     1      36.339 -20.209 -20.325  0.00  0.00    +0.016 C 
ATOM      6  C   UNL     1      34.091 -19.586 -20.955  0.00  0.00    +0.016 C 
ENDROOT
BRANCH   1   7
ATOM      7  S   UNL     1      33.823 -22.772 -18.512  0.00  0.00    +0.075 S 
ATOM      8  O   UNL     1      32.607 -22.312 -17.853  0.00  0.00    -0.150 OA
ATOM      9  O   UNL     1      33.776 -23.962 -19.352  0.00  0.00    -0.150 OA
BRANCH   7  11
ATOM     10  S   UNL     1      35.287 -22.755 -14.572  0.00  0.00    -0.050 S 
ATOM     11  N   UNL     1      35.060 -22.943 -17.331  0.00  0.00    -0.194 N 
ATOM     12  N   UNL     1      33.715 -24.338 -15.877  0.00  0.00    -0.221 NA
ATOM     13  C   UNL     1      34.622 -23.410 -15.998  0.00  0.00    +0.179 C 
ATOM     14  C   UNL     1      34.274 -23.802 -13.669  0.00  0.00    +0.059 C 
ATOM     15  C   UNL     1      33.513 -24.566 -14.530  0.00  0.00    +0.108 C 
ATOM     16  H   UNL     1      36.004 -22.742 -17.530  0.00  0.00    +0.176 HD
ENDBRANCH   7  11
ENDBRANCH   1   7
BRANCH   2  17
ATOM     17  N   UNL     1      35.980 -18.320 -21.809  0.00  0.00    -0.311 N 
ATOM     18  H   UNL     1      36.874 -17.995 -21.556  0.00  0.00    +0.152 HD
BRANCH  17  25
ATOM     19  O   UNL     1      35.004 -15.907 -20.532  0.00  0.00    -0.270 OA
ATOM     20  N   UNL     1      33.913 -14.536 -22.117  0.00  0.00    -0.280 N 
ATOM     21  C   UNL     1      34.156 -15.826 -24.005  0.00  0.00    +0.019 C 
ATOM     22  C   UNL     1      34.780 -16.512 -22.879  0.00  0.00    +0.069 C 
ATOM     23  C   UNL     1      33.646 -14.631 -23.487  0.00  0.00    +0.051 C 
ATOM     24  C   UNL     1      34.611 -15.657 -21.656  0.00  0.00    +0.251 C 
ATOM     25  C   UNL     1      35.404 -17.692 -22.866  0.00  0.00    +0.066 C 
ATOM     26  C   UNL     1      34.008 -16.135 -25.344  0.00  0.00    +0.001 C 
ATOM     27  C   UNL     1      32.978 -13.711 -24.270  0.00  0.00    +0.015 C 
ATOM     28  C   UNL     1      33.334 -15.216 -26.157  0.00  0.00    +0.000 C 
ATOM     29  C   UNL     1      32.825 -14.016 -25.625  0.00  0.00    +0.001 C 
ATOM     30  H   UNL     1      33.644 -13.778 -21.550  0.00  0.00    +0.155 HD
ENDBRANCH  17  25
ENDBRANCH   2  17
TORSDOF 4
ENDMDL
MODEL 5
REMARK VINA RESULT:     -11.7      1.651      2.319
REMARK  Name = 5288711
REMARK  4 active torsions:
REMARK  status: ('A' for Active; 'I' for Inactive)
REMARK    1  A    between atoms: C_1  and  S_7
REMARK    2  A    between atoms: C_2  and  N_17
REMARK    3  A    between atoms: S_7  and  N_11
REMARK    4  A    between atoms: N_17  and  C_25
REMARK                            x       y       z     vdW  Elec       q    Type
REMARK                         _______ _______ _______ _____ _____    ______ ____
ROOT
ATOM      1  C   UNL     1      34.116 -21.436 -19.539  0.00  0.00    +0.125 C 
ATOM      2  C   UNL     1      34.344 -19.069 -21.008  0.00  0.00    +0.048 C 
ATOM      3  C   UNL     1      35.375 -20.965 -19.912  0.00  0.00    +0.021 C 
ATOM      4  C   UNL     1      32.972 -20.726 -19.898  0.00  0.00    +0.021 C 
ATOM      5  C   UNL     1      35.489 -19.784 -20.645  0.00  0.00    +0.016 C 
ATOM      6  C   UNL     1      33.085 -19.544 -20.631  0.00  0.00    +0.016 C 
ENDROOT
BRANCH   1   7
ATOM      7  S   UNL     1      33.973 -22.915 -18.621  0.00  0.00    +0.075 S 
ATOM      8  O   UNL     1      33.848 -24.027 -19.555  0.00  0.00    -0.150 OA
ATOM      9  O   UNL     1      35.043 -22.927 -17.631  0.00  0.00    -0.150 OA
BRANCH   7  11
ATOM     10  S   UNL     1      30.886 -24.019 -15.991  0.00  0.00    -0.050 S 
ATOM     11  N   UNL     1      32.461 -22.677 -17.840  0.00  0.00    -0.194 N 
ATOM     12  N   UNL     1      33.320 -23.222 -15.641  0.00  0.00    -0.221 NA
ATOM     13  C   UNL     1      32.331 -23.265 -16.489  0.00  0.00    +0.179 C 
ATOM     14  C   UNL     1      31.624 -24.339 -14.477  0.00  0.00    +0.059 C 
ATOM     15  C   UNL     1      32.912 -23.843 -14.476  0.00  0.00    +0.108 C 
ATOM     16  H   UNL     1      31.726 -22.178 -18.265  0.00  0.00    +0.176 HD
ENDBRANCH   7  11
ENDBRANCH   1   7
BRANCH   2  17
ATOM     17  N   UNL     1      34.459 -17.880 -21.747  0.00  0.00    -0.311 N 
ATOM     18  H   UNL     1      35.054 -17.919 -22.530  0.00  0.00    +0.152 HD
BRANCH  17  25
ATOM     19  O   UNL     1      35.003 -16.530 -24.254  0.00  0.00    -0.270 OA
ATOM     20  N   UNL     1      34.078 -14.357 -24.222  0.00  0.00    -0.280 N 
ATOM     21  C   UNL     1      33.144 -14.344 -22.121  0.00  0.00    +0.019 C 
ATOM     22  C   UNL     1      33.785 -15.636 -22.347  0.00  0.00    +0.069 C 
ATOM     23  C   UNL     1      33.352 -13.607 -23.290  0.00  0.00    +0.051 C 
ATOM     24  C   UNL     1      34.389 -15.626 -23.722  0.00  0.00    +0.251 C 
ATOM     25  C   UNL     1      33.859 -16.683 -21.523  0.00  0.00    +0.066 C 
ATOM     26  C   UNL     1      32.447 -13.801 -21.058  0.00  0.00    +0.001 C 
ATOM     27  C   UNL     1      32.881 -12.318 -23.445  0.00  0.00    +0.015 C 
ATOM     28  C   UNL     1      31.961 -12.496 -21.194  0.00  0.00    +0.000 C 
ATOM     29  C   UNL     1      32.176 -11.763 -22.375  0.00  0.00    +0.001 C 
ATOM     30  H   UNL     1      34.338 -14.033 -25.114  0.00  0.00    +0.155 HD
ENDBRANCH  17  25
ENDBRANCH   2  17
TORSDOF 4
ENDMDL
MODEL 6
REMARK VINA RESULT:     -11.4      3.727      6.395
REMARK  Name = 5288711
REMARK  4 active torsions:
REMARK  status: ('A' for Active; 'I' for Inactive)
REMARK    1  A    between atoms: C_1  and  S_7
REMARK    2  A    between atoms: C_2  and  N_17
REMARK    3  A    between atoms: S_7  and  N_11
REMARK    4  A    between atoms: N_17  and  C_25
REMARK                            x       y       z     vdW  Elec       q    Type
REMARK                         _______ _______ _______ _____ _____    ______ ____
ROOT
ATOM      1  C   UNL     1      34.819 -17.103 -23.260  0.00  0.00    +0.125 C 
ATOM      2  C   UNL     1      33.776 -14.736 -24.320  0.00  0.00    +0.048 C 
ATOM      3  C   UNL     1      34.417 -17.054 -24.595  0.00  0.00    +0.021 C 
ATOM      4  C   UNL     1      34.701 -15.971 -22.455  0.00  0.00    +0.021 C 
ATOM      5  C   UNL     1      33.898 -15.873 -25.124  0.00  0.00    +0.016 C 
ATOM      6  C   UNL     1      34.181 -14.789 -22.983  0.00  0.00    +0.016 C 
ENDROOT
BRANCH   1   7
ATOM      7  S   UNL     1      35.470 -18.582 -22.597  0.00  0.00    +0.075 S 
ATOM      8  O   UNL     1      35.263 -19.652 -23.565  0.00  0.00    -0.150 OA
ATOM      9  O   UNL     1      36.817 -18.297 -22.119  0.00  0.00    -0.150 OA
BRANCH   7  11
ATOM     10  S   UNL     1      33.400 -20.997 -19.850  0.00  0.00    -0.050 S 
ATOM     11  N   UNL     1      34.421 -18.836 -21.260  0.00  0.00    -0.194 N 
ATOM     12  N   UNL     1      35.899 -20.429 -20.187  0.00  0.00    -0.221 NA
ATOM     13  C   UNL     1      34.681 -20.050 -20.455  0.00  0.00    +0.179 C 
ATOM     14  C   UNL     1      34.563 -22.042 -19.144  0.00  0.00    +0.059 C 
ATOM     15  C   UNL     1      35.832 -21.581 -19.428  0.00  0.00    +0.108 C 
ATOM     16  H   UNL     1      33.692 -18.212 -21.041  0.00  0.00    +0.176 HD
ENDBRANCH   7  11
ENDBRANCH   1   7
BRANCH   2  17
ATOM     17  N   UNL     1      33.252 -13.547 -24.853  0.00  0.00    -0.311 N 
ATOM     18  H   UNL     1      32.450 -13.647 -25.414  0.00  0.00    +0.152 HD
BRANCH  17  25
ATOM     19  O   UNL     1      31.522 -12.615 -22.722  0.00  0.00    -0.270 OA
ATOM     20  N   UNL     1      32.043 -10.376 -22.176  0.00  0.00    -0.280 N 
ATOM     21  C   UNL     1      33.753  -9.983 -23.662  0.00  0.00    +0.019 C 
ATOM     22  C   UNL     1      33.275 -11.351 -23.840  0.00  0.00    +0.069 C 
ATOM     23  C   UNL     1      32.971  -9.437 -22.640  0.00  0.00    +0.051 C 
ATOM     24  C   UNL     1      32.161 -11.589 -22.863  0.00  0.00    +0.251 C 
ATOM     25  C   UNL     1      33.706 -12.277 -24.698  0.00  0.00    +0.066 C 
ATOM     26  C   UNL     1      34.739  -9.233 -24.274  0.00  0.00    +0.001 C 
ATOM     27  C   UNL     1      33.138  -8.142 -22.193  0.00  0.00    +0.015 C 
ATOM     28  C   UNL     1      34.926  -7.917 -23.836  0.00  0.00    +0.000 C 
ATOM     29  C   UNL     1      34.133  -7.377 -22.806  0.00  0.00    +0.001 C 
ATOM     30  H   UNL     1      31.391 -10.205 -21.459  0.00  0.00    +0.155 HD
ENDBRANCH  17  25
ENDBRANCH   2  17
TORSDOF 4
ENDMDL
MODEL 7
REMARK VINA RESULT:     -11.4      2.002      2.496
REMARK  Name = 5288711
REMARK  4 active torsions:
REMARK  status: ('A' for Active; 'I' for Inactive)
REMARK    1  A    between atoms: C_1  and  S_7
REMARK    2  A    between atoms: C_2  and  N_17
REMARK    3  A    between atoms: S_7  and  N_11
REMARK    4  A    between atoms: N_17  and  C_25
REMARK                            x       y       z     vdW  Elec       q    Type
REMARK                         _______ _______ _______ _____ _____    ______ ____
ROOT
ATOM      1  C   UNL     1      34.488 -21.480 -19.472  0.00  0.00    +0.125 C 
ATOM      2  C   UNL     1      35.619 -19.442 -21.015  0.00  0.00    +0.048 C 
ATOM      3  C   UNL     1      35.874 -21.326 -19.517  0.00  0.00    +0.021 C 
ATOM      4  C   UNL     1      33.667 -20.617 -20.196  0.00  0.00    +0.021 C 
ATOM      5  C   UNL     1      36.438 -20.310 -20.286  0.00  0.00    +0.016 C 
ATOM      6  C   UNL     1      34.231 -19.599 -20.966  0.00  0.00    +0.016 C 
ENDROOT
BRANCH   1   7
ATOM      7  S   UNL     1      33.781 -22.754 -18.509  0.00  0.00    +0.075 S 
ATOM      8  O   UNL     1      32.569 -22.241 -17.884  0.00  0.00    -0.150 OA
ATOM      9  O   UNL     1      33.709 -23.949 -19.340  0.00  0.00    -0.150 OA
BRANCH   7  11
ATOM     10  S   UNL     1      35.145 -22.780 -14.533  0.00  0.00    -0.050 S 
ATOM     11  N   UNL     1      34.983 -22.961 -17.297  0.00  0.00    -0.194 N 
ATOM     12  N   UNL     1      33.561 -24.317 -15.879  0.00  0.00    -0.221 NA
ATOM     13  C   UNL     1      34.498 -23.416 -15.976  0.00  0.00    +0.179 C 
ATOM     14  C   UNL     1      34.078 -23.798 -13.657  0.00  0.00    +0.059 C 
ATOM     15  C   UNL     1      33.318 -24.539 -14.538  0.00  0.00    +0.108 C 
ATOM     16  H   UNL     1      35.936 -22.788 -17.472  0.00  0.00    +0.176 HD
ENDBRANCH   7  11
ENDBRANCH   1   7
BRANCH   2  17
ATOM     17  N   UNL     1      36.188 -18.418 -21.790  0.00  0.00    -0.311 N 
ATOM     18  H   UNL     1      37.115 -18.569 -22.083  0.00  0.00    +0.152 HD
BRANCH  17  25
ATOM     19  O   UNL     1      35.176 -19.167 -24.401  0.00  0.00    -0.270 OA
ATOM     20  N   UNL     1      34.108 -17.321 -25.417  0.00  0.00    -0.280 N 
ATOM     21  C   UNL     1      34.392 -15.734 -23.776  0.00  0.00    +0.019 C 
ATOM     22  C   UNL     1      34.998 -16.987 -23.335  0.00  0.00    +0.069 C 
ATOM     23  C   UNL     1      33.867 -15.993 -25.046  0.00  0.00    +0.051 C 
ATOM     24  C   UNL     1      34.803 -18.009 -24.417  0.00  0.00    +0.251 C 
ATOM     25  C   UNL     1      35.628 -17.247 -22.188  0.00  0.00    +0.066 C 
ATOM     26  C   UNL     1      34.272 -14.483 -23.204  0.00  0.00    +0.001 C 
ATOM     27  C   UNL     1      33.210 -15.029 -25.785  0.00  0.00    +0.015 C 
ATOM     28  C   UNL     1      33.610 -13.490 -23.935  0.00  0.00    +0.000 C 
ATOM     29  C   UNL     1      33.084 -13.761 -25.212  0.00  0.00    +0.001 C 
ATOM     30  H   UNL     1      33.825 -17.719 -26.271  0.00  0.00    +0.155 HD
ENDBRANCH  17  25
ENDBRANCH   2  17
TORSDOF 4
ENDMDL
MODEL 8
REMARK VINA RESULT:     -11.4      4.102      6.738
REMARK  Name = 5288711
REMARK  4 active torsions:
REMARK  status: ('A' for Active; 'I' for Inactive)
REMARK    1  A    between atoms: C_1  and  S_7
REMARK    2  A    between atoms: C_2  and  N_17
REMARK    3  A    between atoms: S_7  and  N_11
REMARK    4  A    between atoms: N_17  and  C_25
REMARK                            x       y       z     vdW  Elec       q    Type
REMARK                         _______ _______ _______ _____ _____    ______ ____
ROOT
ATOM      1  C   UNL     1      34.709 -16.878 -23.144  0.00  0.00    +0.125 C 
ATOM      2  C   UNL     1      33.821 -14.372 -24.006  0.00  0.00    +0.048 C 
ATOM      3  C   UNL     1      34.657 -15.811 -22.249  0.00  0.00    +0.021 C 
ATOM      4  C   UNL     1      34.318 -16.695 -24.470  0.00  0.00    +0.021 C 
ATOM      5  C   UNL     1      34.213 -14.560 -22.678  0.00  0.00    +0.016 C 
ATOM      6  C   UNL     1      33.874 -15.445 -24.901  0.00  0.00    +0.016 C 
ENDROOT
BRANCH   1   7
ATOM      7  S   UNL     1      35.264 -18.444 -22.607  0.00  0.00    +0.075 S 
ATOM      8  O   UNL     1      34.944 -19.425 -23.636  0.00  0.00    -0.150 OA
ATOM      9  O   UNL     1      36.644 -18.296 -22.162  0.00  0.00    -0.150 OA
BRANCH   7  11
ATOM     10  S   UNL     1      33.184 -20.887 -19.893  0.00  0.00    -0.050 S 
ATOM     11  N   UNL     1      34.242 -18.712 -21.251  0.00  0.00    -0.194 N 
ATOM     12  N   UNL     1      35.691 -20.392 -20.277  0.00  0.00    -0.221 NA
ATOM     13  C   UNL     1      34.481 -19.963 -20.498  0.00  0.00    +0.179 C 
ATOM     14  C   UNL     1      34.327 -21.996 -19.256  0.00  0.00    +0.059 C 
ATOM     15  C   UNL     1      35.603 -21.568 -19.558  0.00  0.00    +0.108 C 
ATOM     16  H   UNL     1      33.541 -18.071 -20.991  0.00  0.00    +0.176 HD
ENDBRANCH   7  11
ENDBRANCH   1   7
BRANCH   2  17
ATOM     17  N   UNL     1      33.375 -13.112 -24.439  0.00  0.00    -0.311 N 
ATOM     18  H   UNL     1      33.337 -12.984 -25.414  0.00  0.00    +0.152 HD
BRANCH  17  25
ATOM     19  O   UNL     1      35.082 -11.041 -25.535  0.00  0.00    -0.270 OA
ATOM     20  N   UNL     1      34.672  -8.989 -24.439  0.00  0.00    -0.280 N 
ATOM     21  C   UNL     1      33.039  -9.640 -22.956  0.00  0.00    +0.019 C 
ATOM     22  C   UNL     1      33.444 -10.794 -23.753  0.00  0.00    +0.069 C 
ATOM     23  C   UNL     1      33.816  -8.571 -23.413  0.00  0.00    +0.051 C 
ATOM     24  C   UNL     1      34.509 -10.351 -24.714  0.00  0.00    +0.251 C 
ATOM     25  C   UNL     1      32.990 -12.047 -23.691  0.00  0.00    +0.066 C 
ATOM     26  C   UNL     1      32.119  -9.460 -21.941  0.00  0.00    +0.001 C 
ATOM     27  C   UNL     1      33.709  -7.300 -22.885  0.00  0.00    +0.015 C 
ATOM     28  C   UNL     1      31.994  -8.179 -21.391  0.00  0.00    +0.000 C 
ATOM     29  C   UNL     1      32.780  -7.110 -21.859  0.00  0.00    +0.001 C 
ATOM     30  H   UNL     1      35.308  -8.400 -24.906  0.00  0.00    +0.155 HD
ENDBRANCH  17  25
ENDBRANCH   2  17
TORSDOF 4
ENDMDL
MODEL 9
REMARK VINA RESULT:     -11.3      3.666     10.032
REMARK  Name = 5288711
REMARK  4 active torsions:
REMARK  status: ('A' for Active; 'I' for Inactive)
REMARK    1  A    between atoms: C_1  and  S_7
REMARK    2  A    between atoms: C_2  and  N_17
REMARK    3  A    between atoms: S_7  and  N_11
REMARK    4  A    between atoms: N_17  and  C_25
REMARK                            x       y       z     vdW  Elec       q    Type
REMARK                         _______ _______ _______ _____ _____    ______ ____
ROOT
ATOM      1  C   UNL     1      34.933 -20.066 -20.689  0.00  0.00    +0.125 C 
ATOM      2  C   UNL     1      34.671 -21.963 -18.652  0.00  0.00    +0.048 C 
ATOM      3  C   UNL     1      33.666 -20.500 -20.298  0.00  0.00    +0.021 C 
ATOM      4  C   UNL     1      36.069 -20.579 -20.062  0.00  0.00    +0.021 C 
ATOM      5  C   UNL     1      33.535 -21.446 -19.281  0.00  0.00    +0.016 C 
ATOM      6  C   UNL     1      35.939 -21.525 -19.046  0.00  0.00    +0.016 C 
ENDROOT
BRANCH   1   7
ATOM      7  S   UNL     1      35.098 -18.882 -21.961  0.00  0.00    +0.075 S 
ATOM      8  O   UNL     1      36.479 -18.417 -21.983  0.00  0.00    -0.150 OA
ATOM      9  O   UNL     1      34.513 -19.448 -23.170  0.00  0.00    -0.150 OA
BRANCH   7  11
ATOM     10  S   UNL     1      34.158 -14.844 -21.273  0.00  0.00    -0.050 S 
ATOM     11  N   UNL     1      34.097 -17.616 -21.369  0.00  0.00    -0.194 N 
ATOM     12  N   UNL     1      34.262 -16.307 -23.402  0.00  0.00    -0.221 NA
ATOM     13  C   UNL     1      34.176 -16.334 -22.101  0.00  0.00    +0.179 C 
ATOM     14  C   UNL     1      34.276 -14.049 -22.788  0.00  0.00    +0.059 C 
ATOM     15  C   UNL     1      34.319 -14.986 -23.800  0.00  0.00    +0.108 C 
ATOM     16  H   UNL     1      33.507 -17.738 -20.591  0.00  0.00    +0.176 HD
ENDBRANCH   7  11
ENDBRANCH   1   7
BRANCH   2  17
ATOM     17  N   UNL     1      34.539 -22.916 -17.628  0.00  0.00    -0.311 N 
ATOM     18  H   UNL     1      33.768 -23.523 -17.707  0.00  0.00    +0.152 HD
BRANCH  17  25
ATOM     19  O   UNL     1      32.542 -23.363 -15.574  0.00  0.00    -0.270 OA
ATOM     20  N   UNL     1      33.593 -23.747 -13.493  0.00  0.00    -0.280 N 
ATOM     21  C   UNL     1      35.800 -23.576 -14.115  0.00  0.00    +0.019 C 
ATOM     22  C   UNL     1      34.959 -23.365 -15.289  0.00  0.00    +0.069 C 
ATOM     23  C   UNL     1      34.920 -23.804 -13.053  0.00  0.00    +0.051 C 
ATOM     24  C   UNL     1      33.523 -23.480 -14.864  0.00  0.00    +0.251 C 
ATOM     25  C   UNL     1      35.332 -23.110 -16.544  0.00  0.00    +0.066 C 
ATOM     26  C   UNL     1      37.167 -23.584 -13.913  0.00  0.00    +0.001 C 
ATOM     27  C   UNL     1      35.360 -24.045 -11.767  0.00  0.00    +0.015 C 
ATOM     28  C   UNL     1      37.635 -23.827 -12.617  0.00  0.00    +0.000 C 
ATOM     29  C   UNL     1      36.740 -24.056 -11.555  0.00  0.00    +0.001 C 
ATOM     30  H   UNL     1      32.809 -23.878 -12.913  0.00  0.00    +0.155 HD
ENDBRANCH  17  25
ENDBRANCH   2  17
TORSDOF 4
ENDMDL
