MODEL 1
REMARK VINA RESULT:     -12.0      0.000      0.000
REMARK  Name = 6102777
REMARK  2 active torsions:
REMARK  status: ('A' for Active; 'I' for Inactive)
REMARK    1  A    between atoms: C_4  and  S_16
REMARK    2  A    between atoms: S_16  and  N_19
REMARK                            x       y       z     vdW  Elec       q    Type
REMARK                         _______ _______ _______ _____ _____    ______ ____
ROOT
ATOM      1  O   UNL     1      36.602 -20.700 -19.146  0.00  0.00    -0.453 OA
ATOM      2  O   UNL     1      32.773 -22.119 -18.883  0.00  0.00    -0.286 OA
ATOM      3  C   UNL     1      34.952 -22.081 -17.991  0.00  0.00    +0.075 A 
ATOM      4  C   UNL     1      35.658 -23.302 -16.033  0.00  0.00    +0.126 C 
ATOM      5  C   UNL     1      36.237 -21.560 -18.140  0.00  0.00    +0.148 A 
ATOM      6  C   UNL     1      34.657 -22.952 -16.940  0.00  0.00    +0.026 C 
ATOM      7  C   UNL     1      34.327 -20.771 -20.031  0.00  0.00    +0.074 A 
ATOM      8  C   UNL     1      33.916 -21.694 -18.961  0.00  0.00    +0.201 A 
ATOM      9  C   UNL     1      35.648 -20.327 -20.062  0.00  0.00    +0.148 A 
ATOM     10  C   UNL     1      36.946 -22.785 -16.179  0.00  0.00    +0.023 C 
ATOM     11  C   UNL     1      37.236 -21.915 -17.231  0.00  0.00    +0.039 C 
ATOM     12  C   UNL     1      33.412 -20.347 -20.998  0.00  0.00    +0.006 C 
ATOM     13  C   UNL     1      36.060 -19.451 -21.068  0.00  0.00    +0.038 C 
ATOM     14  C   UNL     1      33.830 -19.472 -22.001  0.00  0.00    +0.000 C 
ATOM     15  C   UNL     1      35.150 -19.025 -22.037  0.00  0.00    +0.003 C 
ENDROOT
BRANCH   4  16
ATOM     16  S   UNL     1      35.301 -24.391 -14.715  0.00  0.00    +0.081 S 
ATOM     17  O   UNL     1      33.882 -24.274 -14.402  0.00  0.00    -0.149 OA
ATOM     18  O   UNL     1      35.858 -25.696 -15.043  0.00  0.00    -0.149 OA
BRANCH  16  19
ATOM     19  N   UNL     1      36.211 -23.695 -13.450  0.00  0.00    -0.156 N 
ATOM     20  N   UNL     1      36.800 -23.422 -11.133  0.00  0.00    -0.094 NA
ATOM     21  N   UNL     1      35.150 -24.894 -11.625  0.00  0.00    -0.071 NA
ATOM     22  N   UNL     1      36.277 -24.035 -10.061  0.00  0.00    -0.139 N 
ATOM     23  N   UNL     1      35.295 -24.915 -10.306  0.00  0.00    -0.020 NA
ATOM     24  C   UNL     1      36.062 -23.995 -12.075  0.00  0.00    +0.145 C 
ATOM     25  H   UNL     1      36.896 -23.031 -13.697  0.00  0.00    +0.186 HD
ATOM     26  H   UNL     1      36.594 -23.849  -9.148  0.00  0.00    +0.197 HD
ENDBRANCH  16  19
ENDBRANCH   4  16
TORSDOF 2
ENDMDL
MODEL 2
REMARK VINA RESULT:     -11.8      2.720      4.076
REMARK  Name = 6102777
REMARK  2 active torsions:
REMARK  status: ('A' for Active; 'I' for Inactive)
REMARK    1  A    between atoms: C_4  and  S_16
REMARK    2  A    between atoms: S_16  and  N_19
REMARK                            x       y       z     vdW  Elec       q    Type
REMARK                         _______ _______ _______ _____ _____    ______ ____
ROOT
ATOM      1  O   UNL     1      33.781 -23.101 -16.686  0.00  0.00    -0.453 OA
ATOM      2  O   UNL     1      37.714 -21.972 -16.614  0.00  0.00    -0.286 OA
ATOM      3  C   UNL     1      35.915 -23.011 -15.503  0.00  0.00    +0.075 A 
ATOM      4  C   UNL     1      36.037 -23.983 -13.297  0.00  0.00    +0.126 C 
ATOM      5  C   UNL     1      34.570 -23.367 -15.594  0.00  0.00    +0.148 A 
ATOM      6  C   UNL     1      36.654 -23.317 -14.357  0.00  0.00    +0.026 C 
ATOM      7  C   UNL     1      35.678 -22.036 -17.796  0.00  0.00    +0.074 A 
ATOM      8  C   UNL     1      36.539 -22.310 -16.635  0.00  0.00    +0.201 A 
ATOM      9  C   UNL     1      34.346 -22.447 -17.754  0.00  0.00    +0.148 A 
ATOM     10  C   UNL     1      34.691 -24.339 -13.383  0.00  0.00    +0.023 C 
ATOM     11  C   UNL     1      33.958 -24.032 -14.530  0.00  0.00    +0.039 C 
ATOM     12  C   UNL     1      36.181 -21.375 -18.919  0.00  0.00    +0.006 C 
ATOM     13  C   UNL     1      33.510 -22.197 -18.843  0.00  0.00    +0.038 C 
ATOM     14  C   UNL     1      35.341 -21.127 -20.005  0.00  0.00    +0.000 C 
ATOM     15  C   UNL     1      34.009 -21.537 -19.968  0.00  0.00    +0.003 C 
ENDROOT
BRANCH   4  16
ATOM     16  S   UNL     1      36.951 -24.370 -11.860  0.00  0.00    +0.081 S 
ATOM     17  O   UNL     1      36.740 -23.305 -10.887  0.00  0.00    -0.149 OA
ATOM     18  O   UNL     1      36.654 -25.748 -11.492  0.00  0.00    -0.149 OA
BRANCH  16  19
ATOM     19  N   UNL     1      38.552 -24.280 -12.447  0.00  0.00    -0.156 N 
ATOM     20  N   UNL     1      40.391 -25.069 -13.784  0.00  0.00    -0.094 NA
ATOM     21  N   UNL     1      38.458 -26.247 -13.868  0.00  0.00    -0.071 NA
ATOM     22  N   UNL     1      40.436 -26.136 -14.595  0.00  0.00    -0.139 N 
ATOM     23  N   UNL     1      39.313 -26.863 -14.674  0.00  0.00    -0.020 NA
ATOM     24  C   UNL     1      39.138 -25.188 -13.360  0.00  0.00    +0.145 C 
ATOM     25  H   UNL     1      39.112 -23.537 -12.124  0.00  0.00    +0.186 HD
ATOM     26  H   UNL     1      41.246 -26.371 -15.102  0.00  0.00    +0.197 HD
ENDBRANCH  16  19
ENDBRANCH   4  16
TORSDOF 2
ENDMDL
MODEL 3
REMARK VINA RESULT:     -11.4      1.173      2.328
REMARK  Name = 6102777
REMARK  2 active torsions:
REMARK  status: ('A' for Active; 'I' for Inactive)
REMARK    1  A    between atoms: C_4  and  S_16
REMARK    2  A    between atoms: S_16  and  N_19
REMARK                            x       y       z     vdW  Elec       q    Type
REMARK                         _______ _______ _______ _____ _____    ______ ____
ROOT
ATOM      1  O   UNL     1      32.922 -21.335 -19.391  0.00  0.00    -0.453 OA
ATOM      2  O   UNL     1      36.966 -21.443 -18.774  0.00  0.00    -0.286 OA
ATOM      3  C   UNL     1      34.823 -22.140 -18.087  0.00  0.00    +0.075 A 
ATOM      4  C   UNL     1      34.384 -23.580 -16.202  0.00  0.00    +0.126 C 
ATOM      5  C   UNL     1      33.457 -22.059 -18.355  0.00  0.00    +0.148 A 
ATOM      6  C   UNL     1      35.292 -22.899 -17.012  0.00  0.00    +0.026 C 
ATOM      7  C   UNL     1      35.165 -20.642 -20.064  0.00  0.00    +0.074 A 
ATOM      8  C   UNL     1      35.758 -21.412 -18.959  0.00  0.00    +0.201 A 
ATOM      9  C   UNL     1      33.779 -20.648 -20.216  0.00  0.00    +0.148 A 
ATOM     10  C   UNL     1      33.016 -23.502 -16.464  0.00  0.00    +0.023 C 
ATOM     11  C   UNL     1      32.552 -22.742 -17.539  0.00  0.00    +0.039 C 
ATOM     12  C   UNL     1      35.973 -19.919 -20.944  0.00  0.00    +0.006 C 
ATOM     13  C   UNL     1      33.195 -19.925 -21.258  0.00  0.00    +0.038 C 
ATOM     14  C   UNL     1      35.384 -19.198 -21.983  0.00  0.00    +0.000 C 
ATOM     15  C   UNL     1      33.998 -19.201 -22.140  0.00  0.00    +0.003 C 
ENDROOT
BRANCH   4  16
ATOM     16  S   UNL     1      34.959 -24.532 -14.855  0.00  0.00    +0.081 S 
ATOM     17  O   UNL     1      33.878 -24.643 -13.884  0.00  0.00    -0.149 OA
ATOM     18  O   UNL     1      35.575 -25.740 -15.385  0.00  0.00    -0.149 OA
BRANCH  16  19
ATOM     19  N   UNL     1      36.176 -23.515 -14.222  0.00  0.00    -0.156 N 
ATOM     20  N   UNL     1      37.864 -22.943 -12.605  0.00  0.00    -0.094 NA
ATOM     21  N   UNL     1      36.740 -24.887 -12.300  0.00  0.00    -0.071 NA
ATOM     22  N   UNL     1      38.245 -23.631 -11.519  0.00  0.00    -0.139 N 
ATOM     23  N   UNL     1      37.606 -24.788 -11.299  0.00  0.00    -0.020 NA
ATOM     24  C   UNL     1      36.927 -23.772 -13.051  0.00  0.00    +0.145 C 
ATOM     25  H   UNL     1      36.371 -22.682 -14.712  0.00  0.00    +0.186 HD
ATOM     26  H   UNL     1      38.954 -23.304 -10.918  0.00  0.00    +0.197 HD
ENDBRANCH  16  19
ENDBRANCH   4  16
TORSDOF 2
ENDMDL
MODEL 4
REMARK VINA RESULT:     -11.4      1.826      2.264
REMARK  Name = 6102777
REMARK  2 active torsions:
REMARK  status: ('A' for Active; 'I' for Inactive)
REMARK    1  A    between atoms: C_4  and  S_16
REMARK    2  A    between atoms: S_16  and  N_19
REMARK                            x       y       z     vdW  Elec       q    Type
REMARK                         _______ _______ _______ _____ _____    ______ ____
ROOT
ATOM      1  O   UNL     1      36.448 -20.744 -19.081  0.00  0.00    -0.453 OA
ATOM      2  O   UNL     1      32.725 -22.393 -18.671  0.00  0.00    -0.286 OA
ATOM      3  C   UNL     1      34.944 -22.259 -17.894  0.00  0.00    +0.075 A 
ATOM      4  C   UNL     1      35.825 -23.505 -16.024  0.00  0.00    +0.126 C 
ATOM      5  C   UNL     1      36.188 -21.659 -18.091  0.00  0.00    +0.148 A 
ATOM      6  C   UNL     1      34.757 -23.182 -16.862  0.00  0.00    +0.026 C 
ATOM      7  C   UNL     1      34.135 -20.918 -19.846  0.00  0.00    +0.074 A 
ATOM      8  C   UNL     1      33.837 -21.900 -18.793  0.00  0.00    +0.201 A 
ATOM      9  C   UNL     1      35.425 -20.396 -19.930  0.00  0.00    +0.148 A 
ATOM     10  C   UNL     1      37.071 -22.909 -16.218  0.00  0.00    +0.023 C 
ATOM     11  C   UNL     1      37.253 -21.987 -17.249  0.00  0.00    +0.039 C 
ATOM     12  C   UNL     1      33.146 -20.514 -20.747  0.00  0.00    +0.006 C 
ATOM     13  C   UNL     1      35.731 -19.463 -20.922  0.00  0.00    +0.038 C 
ATOM     14  C   UNL     1      33.458 -19.581 -21.737  0.00  0.00    +0.000 C 
ATOM     15  C   UNL     1      34.747 -19.056 -21.825  0.00  0.00    +0.003 C 
ENDROOT
BRANCH   4  16
ATOM     16  S   UNL     1      35.602 -24.658 -14.732  0.00  0.00    +0.081 S 
ATOM     17  O   UNL     1      34.471 -24.221 -13.923  0.00  0.00    -0.149 OA
ATOM     18  O   UNL     1      35.595 -25.994 -15.313  0.00  0.00    -0.149 OA
BRANCH  16  19
ATOM     19  N   UNL     1      37.043 -24.444 -13.840  0.00  0.00    -0.156 N 
ATOM     20  N   UNL     1      39.316 -24.995 -13.277  0.00  0.00    -0.094 NA
ATOM     21  N   UNL     1      38.319 -26.213 -14.906  0.00  0.00    -0.071 NA
ATOM     22  N   UNL     1      40.099 -25.947 -13.806  0.00  0.00    -0.139 N 
ATOM     23  N   UNL     1      39.549 -26.693 -14.773  0.00  0.00    -0.020 NA
ATOM     24  C   UNL     1      38.223 -25.208 -14.000  0.00  0.00    +0.145 C 
ATOM     25  H   UNL     1      37.053 -23.731 -13.160  0.00  0.00    +0.186 HD
ATOM     26  H   UNL     1      41.024 -26.089 -13.500  0.00  0.00    +0.197 HD
ENDBRANCH  16  19
ENDBRANCH   4  16
TORSDOF 2
ENDMDL
MODEL 5
REMARK VINA RESULT:     -11.3      4.226      5.795
REMARK  Name = 6102777
REMARK  2 active torsions:
REMARK  status: ('A' for Active; 'I' for Inactive)
REMARK    1  A    between atoms: C_4  and  S_16
REMARK    2  A    between atoms: S_16  and  N_19
REMARK                            x       y       z     vdW  Elec       q    Type
REMARK                         _______ _______ _______ _____ _____    ______ ____
ROOT
ATOM      1  O   UNL     1      32.543 -22.862 -16.033  0.00  0.00    -0.453 OA
ATOM      2  O   UNL     1      31.424 -25.281 -12.928  0.00  0.00    -0.286 OA
ATOM      3  C   UNL     1      33.158 -24.150 -14.050  0.00  0.00    +0.075 A 
ATOM      4  C   UNL     1      35.477 -24.176 -13.383  0.00  0.00    +0.126 C 
ATOM      5  C   UNL     1      33.469 -23.323 -15.130  0.00  0.00    +0.148 A 
ATOM      6  C   UNL     1      34.157 -24.579 -13.174  0.00  0.00    +0.026 C 
ATOM      7  C   UNL     1      30.781 -24.052 -14.831  0.00  0.00    +0.074 A 
ATOM      8  C   UNL     1      31.758 -24.558 -13.854  0.00  0.00    +0.201 A 
ATOM      9  C   UNL     1      31.231 -23.232 -15.865  0.00  0.00    +0.148 A 
ATOM     10  C   UNL     1      35.793 -23.351 -14.462  0.00  0.00    +0.023 C 
ATOM     11  C   UNL     1      34.792 -22.924 -15.335  0.00  0.00    +0.039 C 
ATOM     12  C   UNL     1      29.429 -24.386 -14.726  0.00  0.00    +0.006 C 
ATOM     13  C   UNL     1      30.321 -22.741 -16.804  0.00  0.00    +0.038 C 
ATOM     14  C   UNL     1      28.524 -23.892 -15.667  0.00  0.00    +0.000 C 
ATOM     15  C   UNL     1      28.969 -23.072 -16.703  0.00  0.00    +0.003 C 
ENDROOT
BRANCH   4  16
ATOM     16  S   UNL     1      36.734 -24.707 -12.293  0.00  0.00    +0.081 S 
ATOM     17  O   UNL     1      37.635 -23.586 -12.060  0.00  0.00    -0.149 OA
ATOM     18  O   UNL     1      36.101 -25.367 -11.160  0.00  0.00    -0.149 OA
BRANCH  16  19
ATOM     19  N   UNL     1      37.532 -25.876 -13.248  0.00  0.00    -0.156 N 
ATOM     20  N   UNL     1      39.403 -26.681 -14.530  0.00  0.00    -0.094 NA
ATOM     21  N   UNL     1      39.581 -24.622 -13.601  0.00  0.00    -0.071 NA
ATOM     22  N   UNL     1      40.569 -26.067 -14.779  0.00  0.00    -0.139 N 
ATOM     23  N   UNL     1      40.718 -24.845 -14.249  0.00  0.00    -0.020 NA
ATOM     24  C   UNL     1      38.830 -25.736 -13.794  0.00  0.00    +0.145 C 
ATOM     25  H   UNL     1      37.051 -26.715 -13.434  0.00  0.00    +0.186 HD
ATOM     26  H   UNL     1      41.275 -26.490 -15.321  0.00  0.00    +0.197 HD
ENDBRANCH  16  19
ENDBRANCH   4  16
TORSDOF 2
ENDMDL
MODEL 6
REMARK VINA RESULT:     -11.3      6.499      8.929
REMARK  Name = 6102777
REMARK  2 active torsions:
REMARK  status: ('A' for Active; 'I' for Inactive)
REMARK    1  A    between atoms: C_4  and  S_16
REMARK    2  A    between atoms: S_16  and  N_19
REMARK                            x       y       z     vdW  Elec       q    Type
REMARK                         _______ _______ _______ _____ _____    ______ ____
ROOT
ATOM      1  O   UNL     1      33.433 -13.341 -23.328  0.00  0.00    -0.453 OA
ATOM      2  O   UNL     1      32.348 -14.683 -19.618  0.00  0.00    -0.286 OA
ATOM      3  C   UNL     1      33.464 -15.112 -21.647  0.00  0.00    +0.075 A 
ATOM      4  C   UNL     1      34.624 -17.163 -22.173  0.00  0.00    +0.126 C 
ATOM      5  C   UNL     1      33.799 -14.593 -22.897  0.00  0.00    +0.148 A 
ATOM      6  C   UNL     1      33.874 -16.396 -21.279  0.00  0.00    +0.026 C 
ATOM      7  C   UNL     1      32.292 -12.945 -21.206  0.00  0.00    +0.074 A 
ATOM      8  C   UNL     1      32.673 -14.282 -20.726  0.00  0.00    +0.201 A 
ATOM      9  C   UNL     1      32.695 -12.551 -22.482  0.00  0.00    +0.148 A 
ATOM     10  C   UNL     1      34.960 -16.648 -23.424  0.00  0.00    +0.023 C 
ATOM     11  C   UNL     1      34.549 -15.365 -23.787  0.00  0.00    +0.039 C 
ATOM     12  C   UNL     1      31.541 -12.084 -20.402  0.00  0.00    +0.006 C 
ATOM     13  C   UNL     1      32.344 -11.287 -22.958  0.00  0.00    +0.038 C 
ATOM     14  C   UNL     1      31.193 -10.822 -20.883  0.00  0.00    +0.000 C 
ATOM     15  C   UNL     1      31.594 -10.423 -22.158  0.00  0.00    +0.003 C 
ENDROOT
BRANCH   4  16
ATOM     16  S   UNL     1      35.140 -18.769 -21.723  0.00  0.00    +0.081 S 
ATOM     17  O   UNL     1      35.338 -19.540 -22.944  0.00  0.00    -0.149 OA
ATOM     18  O   UNL     1      36.234 -18.642 -20.769  0.00  0.00    -0.149 OA
BRANCH  16  19
ATOM     19  N   UNL     1      33.755 -19.352 -20.913  0.00  0.00    -0.156 N 
ATOM     20  N   UNL     1      32.592 -20.941 -19.531  0.00  0.00    -0.094 NA
ATOM     21  N   UNL     1      34.777 -21.342 -19.971  0.00  0.00    -0.071 NA
ATOM     22  N   UNL     1      33.067 -22.062 -18.967  0.00  0.00    -0.139 N 
ATOM     23  N   UNL     1      34.357 -22.339 -19.202  0.00  0.00    -0.020 NA
ATOM     24  C   UNL     1      33.699 -20.537 -20.141  0.00  0.00    +0.145 C 
ATOM     25  H   UNL     1      32.929 -18.821 -20.988  0.00  0.00    +0.186 HD
ATOM     26  H   UNL     1      32.500 -22.647 -18.414  0.00  0.00    +0.197 HD
ENDBRANCH  16  19
ENDBRANCH   4  16
TORSDOF 2
ENDMDL
MODEL 7
REMARK VINA RESULT:     -11.3      4.540      5.418
REMARK  Name = 6102777
REMARK  2 active torsions:
REMARK  status: ('A' for Active; 'I' for Inactive)
REMARK    1  A    between atoms: C_4  and  S_16
REMARK    2  A    between atoms: S_16  and  N_19
REMARK                            x       y       z     vdW  Elec       q    Type
REMARK                         _______ _______ _______ _____ _____    ______ ____
ROOT
ATOM      1  O   UNL     1      35.679 -22.740 -16.923  0.00  0.00    -0.453 OA
ATOM      2  O   UNL     1      32.115 -22.017 -18.799  0.00  0.00    -0.286 OA
ATOM      3  C   UNL     1      33.246 -22.950 -16.956  0.00  0.00    +0.075 A 
ATOM      4  C   UNL     1      32.176 -24.088 -15.117  0.00  0.00    +0.126 C 
ATOM      5  C   UNL     1      34.495 -23.163 -16.372  0.00  0.00    +0.148 A 
ATOM      6  C   UNL     1      32.084 -23.410 -16.333  0.00  0.00    +0.026 C 
ATOM      7  C   UNL     1      34.459 -21.787 -18.812  0.00  0.00    +0.074 A 
ATOM      8  C   UNL     1      33.179 -22.232 -18.238  0.00  0.00    +0.201 A 
ATOM      9  C   UNL     1      35.637 -22.068 -18.120  0.00  0.00    +0.148 A 
ATOM     10  C   UNL     1      33.422 -24.304 -14.529  0.00  0.00    +0.023 C 
ATOM     11  C   UNL     1      34.581 -23.843 -15.155  0.00  0.00    +0.039 C 
ATOM     12  C   UNL     1      34.495 -21.097 -20.026  0.00  0.00    +0.006 C 
ATOM     13  C   UNL     1      36.862 -21.655 -18.646  0.00  0.00    +0.038 C 
ATOM     14  C   UNL     1      35.724 -20.688 -20.547  0.00  0.00    +0.000 C 
ATOM     15  C   UNL     1      36.904 -20.966 -19.859  0.00  0.00    +0.003 C 
ENDROOT
BRANCH   4  16
ATOM     16  S   UNL     1      30.729 -24.668 -14.330  0.00  0.00    +0.081 S 
ATOM     17  O   UNL     1      30.229 -25.811 -15.084  0.00  0.00    -0.149 OA
ATOM     18  O   UNL     1      31.015 -24.815 -12.909  0.00  0.00    -0.149 OA
BRANCH  16  19
ATOM     19  N   UNL     1      29.673 -23.346 -14.554  0.00  0.00    -0.156 N 
ATOM     20  N   UNL     1      27.969 -22.144 -15.757  0.00  0.00    -0.094 NA
ATOM     21  N   UNL     1      28.659 -24.122 -16.620  0.00  0.00    -0.071 NA
ATOM     22  N   UNL     1      27.352 -22.489 -16.896  0.00  0.00    -0.139 N 
ATOM     23  N   UNL     1      27.730 -23.652 -17.443  0.00  0.00    -0.020 NA
ATOM     24  C   UNL     1      28.769 -23.196 -15.634  0.00  0.00    +0.145 C 
ATOM     25  H   UNL     1      29.693 -22.630 -13.878  0.00  0.00    +0.186 HD
ATOM     26  H   UNL     1      26.662 -21.919 -17.307  0.00  0.00    +0.197 HD
ENDBRANCH  16  19
ENDBRANCH   4  16
TORSDOF 2
ENDMDL
MODEL 8
REMARK VINA RESULT:     -11.2      2.228      3.262
REMARK  Name = 6102777
REMARK  2 active torsions:
REMARK  status: ('A' for Active; 'I' for Inactive)
REMARK    1  A    between atoms: C_4  and  S_16
REMARK    2  A    between atoms: S_16  and  N_19
REMARK                            x       y       z     vdW  Elec       q    Type
REMARK                         _______ _______ _______ _____ _____    ______ ____
ROOT
ATOM      1  O   UNL     1      32.829 -21.669 -18.938  0.00  0.00    -0.453 OA
ATOM      2  O   UNL     1      36.918 -21.520 -18.886  0.00  0.00    -0.286 OA
ATOM      3  C   UNL     1      34.942 -22.390 -17.946  0.00  0.00    +0.075 A 
ATOM      4  C   UNL     1      34.862 -23.928 -16.089  0.00  0.00    +0.126 C 
ATOM      5  C   UNL     1      33.549 -22.394 -18.020  0.00  0.00    +0.148 A 
ATOM      6  C   UNL     1      35.604 -23.155 -16.983  0.00  0.00    +0.026 C 
ATOM      7  C   UNL     1      34.908 -20.798 -19.878  0.00  0.00    +0.074 A 
ATOM      8  C   UNL     1      35.697 -21.565 -18.902  0.00  0.00    +0.201 A 
ATOM      9  C   UNL     1      33.518 -20.894 -19.839  0.00  0.00    +0.148 A 
ATOM     10  C   UNL     1      33.469 -23.935 -16.158  0.00  0.00    +0.023 C 
ATOM     11  C   UNL     1      32.812 -23.169 -17.122  0.00  0.00    +0.039 C 
ATOM     12  C   UNL     1      35.538 -19.987 -20.825  0.00  0.00    +0.006 C 
ATOM     13  C   UNL     1      32.748 -20.174 -20.755  0.00  0.00    +0.038 C 
ATOM     14  C   UNL     1      34.764 -19.269 -21.738  0.00  0.00    +0.000 C 
ATOM     15  C   UNL     1      33.373 -19.362 -21.704  0.00  0.00    +0.003 C 
ENDROOT
BRANCH   4  16
ATOM     16  S   UNL     1      35.679 -24.888 -14.880  0.00  0.00    +0.081 S 
ATOM     17  O   UNL     1      35.107 -24.564 -13.580  0.00  0.00    -0.149 OA
ATOM     18  O   UNL     1      35.691 -26.273 -15.334  0.00  0.00    -0.149 OA
BRANCH  16  19
ATOM     19  N   UNL     1      37.264 -24.257 -14.967  0.00  0.00    -0.156 N 
ATOM     20  N   UNL     1      39.660 -24.470 -14.917  0.00  0.00    -0.094 NA
ATOM     21  N   UNL     1      38.438 -26.356 -14.632  0.00  0.00    -0.071 NA
ATOM     22  N   UNL     1      40.396 -25.577 -14.740  0.00  0.00    -0.139 N 
ATOM     23  N   UNL     1      39.714 -26.717 -14.566  0.00  0.00    -0.020 NA
ATOM     24  C   UNL     1      38.452 -25.015 -14.840  0.00  0.00    +0.145 C 
ATOM     25  H   UNL     1      37.358 -23.288 -15.117  0.00  0.00    +0.186 HD
ATOM     26  H   UNL     1      41.380 -25.552 -14.738  0.00  0.00    +0.197 HD
ENDBRANCH  16  19
ENDBRANCH   4  16
TORSDOF 2
ENDMDL
MODEL 9
REMARK VINA RESULT:     -11.0      5.802      8.328
REMARK  Name = 6102777
REMARK  2 active torsions:
REMARK  status: ('A' for Active; 'I' for Inactive)
REMARK    1  A    between atoms: C_4  and  S_16
REMARK    2  A    between atoms: S_16  and  N_19
REMARK                            x       y       z     vdW  Elec       q    Type
REMARK                         _______ _______ _______ _____ _____    ______ ____
ROOT
ATOM      1  O   UNL     1      34.139 -13.999 -23.051  0.00  0.00    -0.453 OA
ATOM      2  O   UNL     1      34.048 -17.031 -25.798  0.00  0.00    -0.286 OA
ATOM      3  C   UNL     1      34.403 -16.372 -23.565  0.00  0.00    +0.075 A 
ATOM      4  C   UNL     1      35.004 -17.867 -21.768  0.00  0.00    +0.126 C 
ATOM      5  C   UNL     1      34.416 -15.293 -22.682  0.00  0.00    +0.148 A 
ATOM      6  C   UNL     1      34.696 -17.662 -23.114  0.00  0.00    +0.026 C 
ATOM      7  C   UNL     1      33.779 -14.734 -25.352  0.00  0.00    +0.074 A 
ATOM      8  C   UNL     1      34.074 -16.126 -24.977  0.00  0.00    +0.201 A 
ATOM      9  C   UNL     1      33.829 -13.750 -24.366  0.00  0.00    +0.148 A 
ATOM     10  C   UNL     1      35.019 -16.791 -20.882  0.00  0.00    +0.023 C 
ATOM     11  C   UNL     1      34.726 -15.505 -21.337  0.00  0.00    +0.039 C 
ATOM     12  C   UNL     1      33.456 -14.403 -26.670  0.00  0.00    +0.006 C 
ATOM     13  C   UNL     1      33.553 -12.422 -24.699  0.00  0.00    +0.038 C 
ATOM     14  C   UNL     1      33.182 -13.074 -26.997  0.00  0.00    +0.000 C 
ATOM     15  C   UNL     1      33.230 -12.086 -26.014  0.00  0.00    +0.003 C 
ENDROOT
BRANCH   4  16
ATOM     16  S   UNL     1      35.372 -19.475 -21.194  0.00  0.00    +0.081 S 
ATOM     17  O   UNL     1      35.540 -20.344 -22.352  0.00  0.00    -0.149 OA
ATOM     18  O   UNL     1      36.445 -19.370 -20.214  0.00  0.00    -0.149 OA
BRANCH  16  19
ATOM     19  N   UNL     1      33.921 -19.884 -20.393  0.00  0.00    -0.156 N 
ATOM     20  N   UNL     1      32.549 -21.341 -19.056  0.00  0.00    -0.094 NA
ATOM     21  N   UNL     1      34.655 -22.029 -19.525  0.00  0.00    -0.071 NA
ATOM     22  N   UNL     1      32.863 -22.535 -18.533  0.00  0.00    -0.139 N 
ATOM     23  N   UNL     1      34.100 -22.982 -18.787  0.00  0.00    -0.020 NA
ATOM     24  C   UNL     1      33.701 -21.075 -19.660  0.00  0.00    +0.145 C 
ATOM     25  H   UNL     1      33.177 -19.240 -20.445  0.00  0.00    +0.186 HD
ATOM     26  H   UNL     1      32.221 -23.053 -17.996  0.00  0.00    +0.197 HD
ENDBRANCH  16  19
ENDBRANCH   4  16
TORSDOF 2
ENDMDL
