MODEL 1
REMARK VINA RESULT:      -8.7      0.000      0.000
REMARK  Name = 6918525
REMARK  1 active torsions:
REMARK  status: ('A' for Active; 'I' for Inactive)
REMARK    1  A    between atoms: C_4  and  N_12
REMARK                            x       y       z     vdW  Elec       q    Type
REMARK                         _______ _______ _______ _____ _____    ______ ____
ROOT
ATOM      1  O   UNL     1      34.660 -16.819 -21.017  0.00  0.00    -0.406 OA
ATOM      2  O   UNL     1      34.772 -14.567 -20.507  0.00  0.00    -0.223 OA
ATOM      3  N   UNL     1      34.799 -15.286 -22.723  0.00  0.00    -0.287 N 
ATOM      4  C   UNL     1      34.591 -18.804 -22.479  0.00  0.00    +0.084 C 
ATOM      5  C   UNL     1      34.662 -17.435 -22.259  0.00  0.00    +0.179 A 
ATOM      6  C   UNL     1      34.609 -19.211 -23.829  0.00  0.00    +0.018 C 
ATOM      7  C   UNL     1      34.745 -16.530 -23.296  0.00  0.00    +0.098 A 
ATOM      8  C   UNL     1      34.694 -18.277 -24.881  0.00  0.00    +0.003 C 
ATOM      9  C   UNL     1      34.764 -16.907 -24.620  0.00  0.00    +0.020 C 
ATOM     10  C   UNL     1      34.747 -15.455 -21.350  0.00  0.00    +0.419 A 
ATOM     11  H   UNL     1      34.862 -14.428 -23.202  0.00  0.00    +0.172 HD
ENDROOT
BRANCH   4  12
ATOM     12  N   UNL     1      34.507 -19.731 -21.433  0.00  0.00    -0.309 N 
ATOM     13  N   UNL     1      34.393 -21.426 -19.138  0.00  0.00    +0.388 N 
ATOM     14  C   UNL     1      33.253 -19.873 -20.686  0.00  0.00    +0.068 C 
ATOM     15  C   UNL     1      35.731 -20.037 -20.683  0.00  0.00    +0.068 C 
ATOM     16  C   UNL     1      33.203 -21.226 -19.973  0.00  0.00    -0.056 C 
ATOM     17  C   UNL     1      35.601 -21.385 -19.970  0.00  0.00    -0.056 C 
ATOM     18  C   UNL     1      34.307 -22.698 -18.420  0.00  0.00    -0.101 C 
ATOM     19  H   UNL     1      34.442 -20.675 -18.449  0.00  0.00    -0.080 HD
ENDBRANCH   4  12
TORSDOF 1
ENDMDL
MODEL 2
REMARK VINA RESULT:      -8.4      1.805      3.125
REMARK  Name = 6918525
REMARK  1 active torsions:
REMARK  status: ('A' for Active; 'I' for Inactive)
REMARK    1  A    between atoms: C_4  and  N_12
REMARK                            x       y       z     vdW  Elec       q    Type
REMARK                         _______ _______ _______ _____ _____    ______ ____
ROOT
ATOM      1  O   UNL     1      34.695 -17.608 -23.758  0.00  0.00    -0.406 OA
ATOM      2  O   UNL     1      34.632 -17.164 -26.027  0.00  0.00    -0.223 OA
ATOM      3  N   UNL     1      34.466 -15.436 -24.472  0.00  0.00    -0.287 N 
ATOM      4  C   UNL     1      34.659 -17.076 -21.350  0.00  0.00    +0.084 C 
ATOM      5  C   UNL     1      34.613 -16.724 -22.693  0.00  0.00    +0.179 A 
ATOM      6  C   UNL     1      34.556 -16.011 -20.432  0.00  0.00    +0.018 C 
ATOM      7  C   UNL     1      34.475 -15.416 -23.102  0.00  0.00    +0.098 A 
ATOM      8  C   UNL     1      34.414 -14.676 -20.862  0.00  0.00    +0.003 C 
ATOM      9  C   UNL     1      34.372 -14.362 -22.223  0.00  0.00    +0.020 C 
ATOM     10  C   UNL     1      34.599 -16.755 -24.873  0.00  0.00    +0.419 A 
ATOM     11  H   UNL     1      34.380 -14.654 -25.065  0.00  0.00    +0.172 HD
ENDROOT
BRANCH   4  12
ATOM     12  N   UNL     1      34.799 -18.403 -20.924  0.00  0.00    -0.309 N 
ATOM     13  N   UNL     1      35.048 -21.179 -20.303  0.00  0.00    +0.388 N 
ATOM     14  C   UNL     1      36.106 -19.060 -21.012  0.00  0.00    +0.068 C 
ATOM     15  C   UNL     1      33.633 -19.289 -21.034  0.00  0.00    +0.068 C 
ATOM     16  C   UNL     1      36.168 -20.261 -20.064  0.00  0.00    -0.056 C 
ATOM     17  C   UNL     1      33.775 -20.482 -20.085  0.00  0.00    -0.056 C 
ATOM     18  C   UNL     1      35.148 -22.348 -19.429  0.00  0.00    -0.101 C 
ATOM     19  H   UNL     1      35.086 -21.501 -21.270  0.00  0.00    -0.080 HD
ENDBRANCH   4  12
TORSDOF 1
ENDMDL
MODEL 3
REMARK VINA RESULT:      -8.3      6.363      8.875
REMARK  Name = 6918525
REMARK  1 active torsions:
REMARK  status: ('A' for Active; 'I' for Inactive)
REMARK    1  A    between atoms: C_4  and  N_12
REMARK                            x       y       z     vdW  Elec       q    Type
REMARK                         _______ _______ _______ _____ _____    ______ ____
ROOT
ATOM      1  O   UNL     1      34.411 -23.448 -17.496  0.00  0.00    -0.406 OA
ATOM      2  O   UNL     1      33.592 -22.691 -19.521  0.00  0.00    -0.223 OA
ATOM      3  N   UNL     1      32.229 -22.740 -17.631  0.00  0.00    -0.287 N 
ATOM      4  C   UNL     1      34.332 -24.021 -15.098  0.00  0.00    +0.084 C 
ATOM      5  C   UNL     1      33.762 -23.552 -16.275  0.00  0.00    +0.179 A 
ATOM      6  C   UNL     1      33.486 -24.041 -13.971  0.00  0.00    +0.018 C 
ATOM      7  C   UNL     1      32.451 -23.131 -16.336  0.00  0.00    +0.098 A 
ATOM      8  C   UNL     1      32.146 -23.608 -14.046  0.00  0.00    +0.003 C 
ATOM      9  C   UNL     1      31.609 -23.142 -15.248  0.00  0.00    +0.020 C 
ATOM     10  C   UNL     1      33.407 -22.929 -18.334  0.00  0.00    +0.419 A 
ATOM     11  H   UNL     1      31.385 -22.389 -17.995  0.00  0.00    +0.172 HD
ENDROOT
BRANCH   4  12
ATOM     12  N   UNL     1      35.662 -24.451 -15.025  0.00  0.00    -0.309 N 
ATOM     13  N   UNL     1      38.361 -25.379 -15.132  0.00  0.00    +0.388 N 
ATOM     14  C   UNL     1      36.746 -23.522 -15.358  0.00  0.00    +0.068 C 
ATOM     15  C   UNL     1      35.943 -25.871 -15.276  0.00  0.00    +0.068 C 
ATOM     16  C   UNL     1      38.066 -23.995 -14.745  0.00  0.00    -0.056 C 
ATOM     17  C   UNL     1      37.289 -26.267 -14.665  0.00  0.00    -0.056 C 
ATOM     18  C   UNL     1      39.651 -25.801 -14.585  0.00  0.00    -0.101 C 
ATOM     19  H   UNL     1      38.415 -25.434 -16.149  0.00  0.00    -0.080 HD
ENDBRANCH   4  12
TORSDOF 1
ENDMDL
MODEL 4
REMARK VINA RESULT:      -8.0      8.414     10.814
REMARK  Name = 6918525
REMARK  1 active torsions:
REMARK  status: ('A' for Active; 'I' for Inactive)
REMARK    1  A    between atoms: C_4  and  N_12
REMARK                            x       y       z     vdW  Elec       q    Type
REMARK                         _______ _______ _______ _____ _____    ______ ____
ROOT
ATOM      1  O   UNL     1      35.628 -26.053 -15.480  0.00  0.00    -0.406 OA
ATOM      2  O   UNL     1      36.935 -27.676 -16.482  0.00  0.00    -0.223 OA
ATOM      3  N   UNL     1      37.555 -26.745 -14.437  0.00  0.00    -0.287 N 
ATOM      4  C   UNL     1      34.987 -24.420 -13.747  0.00  0.00    +0.084 C 
ATOM      5  C   UNL     1      35.827 -25.388 -14.280  0.00  0.00    +0.179 A 
ATOM      6  C   UNL     1      35.386 -23.874 -12.510  0.00  0.00    +0.018 C 
ATOM      7  C   UNL     1      36.979 -25.790 -13.639  0.00  0.00    +0.098 A 
ATOM      8  C   UNL     1      36.567 -24.292 -11.864  0.00  0.00    +0.003 C 
ATOM      9  C   UNL     1      37.387 -25.270 -12.432  0.00  0.00    +0.020 C 
ATOM     10  C   UNL     1      36.743 -26.907 -15.548  0.00  0.00    +0.419 A 
ATOM     11  H   UNL     1      38.393 -27.228 -14.254  0.00  0.00    +0.172 HD
ENDROOT
BRANCH   4  12
ATOM     12  N   UNL     1      33.814 -24.004 -14.389  0.00  0.00    -0.309 N 
ATOM     13  N   UNL     1      31.444 -22.933 -15.568  0.00  0.00    +0.388 N 
ATOM     14  C   UNL     1      33.902 -23.192 -15.607  0.00  0.00    +0.068 C 
ATOM     15  C   UNL     1      32.616 -23.791 -13.568  0.00  0.00    +0.068 C 
ATOM     16  C   UNL     1      32.599 -23.279 -16.405  0.00  0.00    -0.056 C 
ATOM     17  C   UNL     1      31.354 -23.859 -14.432  0.00  0.00    -0.056 C 
ATOM     18  C   UNL     1      30.212 -22.967 -16.355  0.00  0.00    -0.101 C 
ATOM     19  H   UNL     1      31.567 -21.985 -15.211  0.00  0.00    -0.080 HD
ENDBRANCH   4  12
TORSDOF 1
ENDMDL
MODEL 5
REMARK VINA RESULT:      -8.0      4.645      7.124
REMARK  Name = 6918525
REMARK  1 active torsions:
REMARK  status: ('A' for Active; 'I' for Inactive)
REMARK    1  A    between atoms: C_4  and  N_12
REMARK                            x       y       z     vdW  Elec       q    Type
REMARK                         _______ _______ _______ _____ _____    ______ ____
ROOT
ATOM      1  O   UNL     1      31.875 -12.159 -22.452  0.00  0.00    -0.406 OA
ATOM      2  O   UNL     1      30.274 -11.382 -20.976  0.00  0.00    -0.223 OA
ATOM      3  N   UNL     1      31.700  -9.899 -22.070  0.00  0.00    -0.287 N 
ATOM      4  C   UNL     1      33.737 -11.989 -24.060  0.00  0.00    +0.084 C 
ATOM      5  C   UNL     1      32.804 -11.441 -23.190  0.00  0.00    +0.179 A 
ATOM      6  C   UNL     1      34.587 -11.070 -24.708  0.00  0.00    +0.018 C 
ATOM      7  C   UNL     1      32.714 -10.083 -22.974  0.00  0.00    +0.098 A 
ATOM      8  C   UNL     1      34.486  -9.682 -24.479  0.00  0.00    +0.003 C 
ATOM      9  C   UNL     1      33.533  -9.168 -23.596  0.00  0.00    +0.020 C 
ATOM     10  C   UNL     1      31.191 -11.148 -21.753  0.00  0.00    +0.419 A 
ATOM     11  H   UNL     1      31.390  -9.036 -21.712  0.00  0.00    +0.172 HD
ENDROOT
BRANCH   4  12
ATOM     12  N   UNL     1      33.837 -13.367 -24.286  0.00  0.00    -0.309 N 
ATOM     13  N   UNL     1      33.846 -16.208 -24.577  0.00  0.00    +0.388 N 
ATOM     14  C   UNL     1      32.965 -14.007 -25.275  0.00  0.00    +0.068 C 
ATOM     15  C   UNL     1      34.264 -14.220 -23.169  0.00  0.00    +0.068 C 
ATOM     16  C   UNL     1      33.556 -15.344 -25.727  0.00  0.00    -0.056 C 
ATOM     17  C   UNL     1      34.813 -15.551 -23.690  0.00  0.00    -0.056 C 
ATOM     18  C   UNL     1      34.359 -17.503 -25.025  0.00  0.00    -0.101 C 
ATOM     19  H   UNL     1      32.983 -16.370 -24.060  0.00  0.00    -0.080 HD
ENDBRANCH   4  12
TORSDOF 1
ENDMDL
MODEL 6
REMARK VINA RESULT:      -8.0      3.464      7.048
REMARK  Name = 6918525
REMARK  1 active torsions:
REMARK  status: ('A' for Active; 'I' for Inactive)
REMARK    1  A    between atoms: C_4  and  N_12
REMARK                            x       y       z     vdW  Elec       q    Type
REMARK                         _______ _______ _______ _____ _____    ______ ____
ROOT
ATOM      1  O   UNL     1      34.389 -15.040 -21.795  0.00  0.00    -0.406 OA
ATOM      2  O   UNL     1      35.217 -16.468 -20.177  0.00  0.00    -0.223 OA
ATOM      3  N   UNL     1      34.940 -17.194 -22.374  0.00  0.00    -0.287 N 
ATOM      4  C   UNL     1      33.654 -14.363 -24.050  0.00  0.00    +0.084 C 
ATOM      5  C   UNL     1      34.157 -15.284 -23.140  0.00  0.00    +0.179 A 
ATOM      6  C   UNL     1      33.496 -14.828 -25.371  0.00  0.00    +0.018 C 
ATOM      7  C   UNL     1      34.481 -16.572 -23.506  0.00  0.00    +0.098 A 
ATOM      8  C   UNL     1      33.831 -16.149 -25.734  0.00  0.00    +0.003 C 
ATOM      9  C   UNL     1      34.335 -17.046 -24.790  0.00  0.00    +0.020 C 
ATOM     10  C   UNL     1      34.887 -16.274 -21.340  0.00  0.00    +0.419 A 
ATOM     11  H   UNL     1      35.251 -18.126 -22.308  0.00  0.00    +0.172 HD
ENDROOT
BRANCH   4  12
ATOM     12  N   UNL     1      33.320 -13.052 -23.688  0.00  0.00    -0.309 N 
ATOM     13  N   UNL     1      32.490 -10.370 -23.162  0.00  0.00    +0.388 N 
ATOM     14  C   UNL     1      32.097 -12.799 -22.919  0.00  0.00    +0.068 C 
ATOM     15  C   UNL     1      33.753 -11.961 -24.570  0.00  0.00    +0.068 C 
ATOM     16  C   UNL     1      32.179 -11.444 -22.212  0.00  0.00    -0.056 C 
ATOM     17  C   UNL     1      33.781 -10.634 -23.809  0.00  0.00    -0.056 C 
ATOM     18  C   UNL     1      32.512  -9.075 -22.483  0.00  0.00    -0.101 C 
ATOM     19  H   UNL     1      31.764 -10.342 -23.878  0.00  0.00    -0.080 HD
ENDBRANCH   4  12
TORSDOF 1
ENDMDL
MODEL 7
REMARK VINA RESULT:      -7.9      2.561      3.793
REMARK  Name = 6918525
REMARK  1 active torsions:
REMARK  status: ('A' for Active; 'I' for Inactive)
REMARK    1  A    between atoms: C_4  and  N_12
REMARK                            x       y       z     vdW  Elec       q    Type
REMARK                         _______ _______ _______ _____ _____    ______ ____
ROOT
ATOM      1  O   UNL     1      33.838 -16.084 -24.218  0.00  0.00    -0.406 OA
ATOM      2  O   UNL     1      33.774 -15.487 -26.451  0.00  0.00    -0.223 OA
ATOM      3  N   UNL     1      32.980 -14.036 -24.809  0.00  0.00    -0.287 N 
ATOM      4  C   UNL     1      33.492 -15.801 -21.793  0.00  0.00    +0.084 C 
ATOM      5  C   UNL     1      33.418 -15.366 -23.109  0.00  0.00    +0.179 A 
ATOM      6  C   UNL     1      33.005 -14.904 -20.820  0.00  0.00    +0.018 C 
ATOM      7  C   UNL     1      32.900 -14.133 -23.444  0.00  0.00    +0.098 A 
ATOM      8  C   UNL     1      32.477 -13.645 -21.175  0.00  0.00    +0.003 C 
ATOM      9  C   UNL     1      32.420 -13.243 -22.511  0.00  0.00    +0.020 C 
ATOM     10  C   UNL     1      33.545 -15.209 -25.280  0.00  0.00    +0.419 A 
ATOM     11  H   UNL     1      32.689 -13.270 -25.355  0.00  0.00    +0.172 HD
ENDROOT
BRANCH   4  12
ATOM     12  N   UNL     1      34.016 -17.051 -21.442  0.00  0.00    -0.309 N 
ATOM     13  N   UNL     1      35.105 -19.511 -20.483  0.00  0.00    +0.388 N 
ATOM     14  C   UNL     1      33.130 -18.083 -20.894  0.00  0.00    +0.068 C 
ATOM     15  C   UNL     1      35.414 -17.113 -20.997  0.00  0.00    +0.068 C 
ATOM     16  C   UNL     1      33.755 -19.470 -21.057  0.00  0.00    -0.056 C 
ATOM     17  C   UNL     1      35.966 -18.532 -21.158  0.00  0.00    -0.056 C 
ATOM     18  C   UNL     1      35.670 -20.855 -20.597  0.00  0.00    -0.101 C 
ATOM     19  H   UNL     1      35.049 -19.273 -19.493  0.00  0.00    -0.080 HD
ENDBRANCH   4  12
TORSDOF 1
ENDMDL
MODEL 8
REMARK VINA RESULT:      -7.9      8.148     10.459
REMARK  Name = 6918525
REMARK  1 active torsions:
REMARK  status: ('A' for Active; 'I' for Inactive)
REMARK    1  A    between atoms: C_4  and  N_12
REMARK                            x       y       z     vdW  Elec       q    Type
REMARK                         _______ _______ _______ _____ _____    ______ ____
ROOT
ATOM      1  O   UNL     1      36.085 -23.346 -12.642  0.00  0.00    -0.406 OA
ATOM      2  O   UNL     1      37.159 -22.372 -10.841  0.00  0.00    -0.223 OA
ATOM      3  N   UNL     1      38.081 -24.222 -11.917  0.00  0.00    -0.287 N 
ATOM      4  C   UNL     1      35.762 -24.962 -14.477  0.00  0.00    +0.084 C 
ATOM      5  C   UNL     1      36.471 -24.438 -13.404  0.00  0.00    +0.179 A 
ATOM      6  C   UNL     1      36.343 -26.080 -15.109  0.00  0.00    +0.018 C 
ATOM      7  C   UNL     1      37.668 -24.977 -12.983  0.00  0.00    +0.098 A 
ATOM      8  C   UNL     1      37.567 -26.624 -14.670  0.00  0.00    +0.003 C 
ATOM      9  C   UNL     1      38.252 -26.068 -13.586  0.00  0.00    +0.020 C 
ATOM     10  C   UNL     1      37.131 -23.237 -11.708  0.00  0.00    +0.419 A 
ATOM     11  H   UNL     1      38.906 -24.355 -11.395  0.00  0.00    +0.172 HD
ENDROOT
BRANCH   4  12
ATOM     12  N   UNL     1      34.546 -24.422 -14.911  0.00  0.00    -0.309 N 
ATOM     13  N   UNL     1      32.103 -23.127 -15.628  0.00  0.00    +0.388 N 
ATOM     14  C   UNL     1      34.540 -23.391 -15.954  0.00  0.00    +0.068 C 
ATOM     15  C   UNL     1      33.436 -24.362 -13.952  0.00  0.00    +0.068 C 
ATOM     16  C   UNL     1      33.166 -23.313 -16.623  0.00  0.00    -0.056 C 
ATOM     17  C   UNL     1      32.097 -24.253 -14.687  0.00  0.00    -0.056 C 
ATOM     18  C   UNL     1      30.802 -22.999 -16.283  0.00  0.00    -0.101 C 
ATOM     19  H   UNL     1      32.284 -22.266 -15.109  0.00  0.00    -0.080 HD
ENDBRANCH   4  12
TORSDOF 1
ENDMDL
MODEL 9
REMARK VINA RESULT:      -7.9      1.534      2.198
REMARK  Name = 6918525
REMARK  1 active torsions:
REMARK  status: ('A' for Active; 'I' for Inactive)
REMARK    1  A    between atoms: C_4  and  N_12
REMARK                            x       y       z     vdW  Elec       q    Type
REMARK                         _______ _______ _______ _____ _____    ______ ____
ROOT
ATOM      1  O   UNL     1      33.719 -15.895 -21.191  0.00  0.00    -0.406 OA
ATOM      2  O   UNL     1      32.677 -14.013 -20.343  0.00  0.00    -0.223 OA
ATOM      3  N   UNL     1      33.018 -14.251 -22.636  0.00  0.00    -0.287 N 
ATOM      4  C   UNL     1      34.640 -17.374 -22.936  0.00  0.00    +0.084 C 
ATOM      5  C   UNL     1      34.007 -16.214 -22.509  0.00  0.00    +0.179 A 
ATOM      6  C   UNL     1      34.834 -17.493 -24.327  0.00  0.00    +0.018 C 
ATOM      7  C   UNL     1      33.594 -15.239 -23.391  0.00  0.00    +0.098 A 
ATOM      8  C   UNL     1      34.408 -16.488 -25.220  0.00  0.00    +0.003 C 
ATOM      9  C   UNL     1      33.774 -15.335 -24.753  0.00  0.00    +0.020 C 
ATOM     10  C   UNL     1      33.090 -14.642 -21.310  0.00  0.00    +0.419 A 
ATOM     11  H   UNL     1      32.624 -13.415 -22.976  0.00  0.00    +0.172 HD
ENDROOT
BRANCH   4  12
ATOM     12  N   UNL     1      35.064 -18.371 -22.048  0.00  0.00    -0.309 N 
ATOM     13  N   UNL     1      35.930 -20.566 -20.439  0.00  0.00    +0.388 N 
ATOM     14  C   UNL     1      36.494 -18.663 -21.913  0.00  0.00    +0.068 C 
ATOM     15  C   UNL     1      34.158 -19.498 -21.792  0.00  0.00    +0.068 C 
ATOM     16  C   UNL     1      36.774 -19.375 -20.587  0.00  0.00    -0.056 C 
ATOM     17  C   UNL     1      34.513 -20.182 -20.470  0.00  0.00    -0.056 C 
ATOM     18  C   UNL     1      36.245 -21.267 -19.195  0.00  0.00    -0.101 C 
ATOM     19  H   UNL     1      36.115 -21.200 -21.217  0.00  0.00    -0.080 HD
ENDBRANCH   4  12
TORSDOF 1
ENDMDL
