MODEL 1
REMARK VINA RESULT:      -7.5      0.000      0.000
REMARK  Name = 11820
REMARK  0 active torsions:
REMARK  status: ('A' for Active; 'I' for Inactive)
REMARK                            x       y       z     vdW  Elec       q    Type
REMARK                         _______ _______ _______ _____ _____    ______ ____
ROOT
ATOM      1  O   UNL     1      33.485 -15.386 -26.703  0.00  0.00    -0.270 OA
ATOM      2  N   UNL     1      33.652 -14.896 -24.426  0.00  0.00    -0.253 N 
ATOM      3  C   UNL     1      34.046 -15.336 -23.120  0.00  0.00    +0.054 C 
ATOM      4  C   UNL     1      34.600 -16.618 -22.971  0.00  0.00    +0.014 C 
ATOM      5  C   UNL     1      34.764 -17.475 -24.139  0.00  0.00    +0.006 C 
ATOM      6  C   UNL     1      33.898 -14.531 -21.979  0.00  0.00    +0.015 C 
ATOM      7  C   UNL     1      33.802 -15.705 -25.557  0.00  0.00    +0.253 C 
ATOM      8  C   UNL     1      34.996 -17.076 -21.707  0.00  0.00    +0.001 C 
ATOM      9  C   UNL     1      34.392 -17.053 -25.348  0.00  0.00    +0.058 C 
ATOM     10  C   UNL     1      33.076 -13.563 -24.580  0.00  0.00    +0.120 C 
ATOM     11  C   UNL     1      34.295 -14.994 -20.723  0.00  0.00    +0.001 C 
ATOM     12  C   UNL     1      34.843 -16.265 -20.586  0.00  0.00    +0.000 C 
ENDROOT
TORSDOF 0
ENDMDL
MODEL 2
REMARK VINA RESULT:      -7.4      0.746      2.438
REMARK  Name = 11820
REMARK  0 active torsions:
REMARK  status: ('A' for Active; 'I' for Inactive)
REMARK                            x       y       z     vdW  Elec       q    Type
REMARK                         _______ _______ _______ _____ _____    ______ ____
ROOT
ATOM      1  O   UNL     1      33.371 -15.416 -26.697  0.00  0.00    -0.270 OA
ATOM      2  N   UNL     1      34.099 -16.233 -24.634  0.00  0.00    -0.253 N 
ATOM      3  C   UNL     1      34.244 -16.006 -23.227  0.00  0.00    +0.054 C 
ATOM      4  C   UNL     1      33.798 -14.790 -22.683  0.00  0.00    +0.014 C 
ATOM      5  C   UNL     1      33.198 -13.786 -23.553  0.00  0.00    +0.006 C 
ATOM      6  C   UNL     1      34.820 -16.955 -22.367  0.00  0.00    +0.015 C 
ATOM      7  C   UNL     1      33.525 -15.280 -25.483  0.00  0.00    +0.253 C 
ATOM      8  C   UNL     1      33.926 -14.538 -21.310  0.00  0.00    +0.001 C 
ATOM      9  C   UNL     1      33.069 -14.011 -24.861  0.00  0.00    +0.058 C 
ATOM     10  C   UNL     1      34.563 -17.497 -25.199  0.00  0.00    +0.120 C 
ATOM     11  C   UNL     1      34.944 -16.698 -21.000  0.00  0.00    +0.001 C 
ATOM     12  C   UNL     1      34.498 -15.491 -20.472  0.00  0.00    +0.000 C 
ENDROOT
TORSDOF 0
ENDMDL
MODEL 3
REMARK VINA RESULT:      -7.4      1.313      1.921
REMARK  Name = 11820
REMARK  0 active torsions:
REMARK  status: ('A' for Active; 'I' for Inactive)
REMARK                            x       y       z     vdW  Elec       q    Type
REMARK                         _______ _______ _______ _____ _____    ______ ____
ROOT
ATOM      1  O   UNL     1      34.728 -16.822 -25.890  0.00  0.00    -0.270 OA
ATOM      2  N   UNL     1      33.632 -15.295 -24.504  0.00  0.00    -0.253 N 
ATOM      3  C   UNL     1      33.344 -14.867 -23.167  0.00  0.00    +0.054 C 
ATOM      4  C   UNL     1      33.891 -15.581 -22.089  0.00  0.00    +0.014 C 
ATOM      5  C   UNL     1      34.738 -16.740 -22.345  0.00  0.00    +0.006 C 
ATOM      6  C   UNL     1      32.530 -13.755 -22.892  0.00  0.00    +0.015 C 
ATOM      7  C   UNL     1      34.443 -16.405 -24.767  0.00  0.00    +0.253 C 
ATOM      8  C   UNL     1      33.628 -15.186 -20.770  0.00  0.00    +0.001 C 
ATOM      9  C   UNL     1      34.997 -17.128 -23.594  0.00  0.00    +0.058 C 
ATOM     10  C   UNL     1      33.063 -14.552 -25.624  0.00  0.00    +0.120 C 
ATOM     11  C   UNL     1      32.272 -13.367 -21.576  0.00  0.00    +0.001 C 
ATOM     12  C   UNL     1      32.820 -14.081 -20.516  0.00  0.00    +0.000 C 
ENDROOT
TORSDOF 0
ENDMDL
MODEL 4
REMARK VINA RESULT:      -7.4      5.556      7.167
REMARK  Name = 11820
REMARK  0 active torsions:
REMARK  status: ('A' for Active; 'I' for Inactive)
REMARK                            x       y       z     vdW  Elec       q    Type
REMARK                         _______ _______ _______ _____ _____    ______ ____
ROOT
ATOM      1  O   UNL     1      34.358 -22.924 -17.888  0.00  0.00    -0.270 OA
ATOM      2  N   UNL     1      35.531 -21.360 -19.164  0.00  0.00    -0.253 N 
ATOM      3  C   UNL     1      35.481 -20.333 -20.163  0.00  0.00    +0.054 C 
ATOM      4  C   UNL     1      34.243 -19.997 -20.733  0.00  0.00    +0.014 C 
ATOM      5  C   UNL     1      33.036 -20.691 -20.304  0.00  0.00    +0.006 C 
ATOM      6  C   UNL     1      36.629 -19.649 -20.595  0.00  0.00    +0.015 C 
ATOM      7  C   UNL     1      34.382 -22.036 -18.740  0.00  0.00    +0.253 C 
ATOM      8  C   UNL     1      34.162 -18.996 -21.712  0.00  0.00    +0.001 C 
ATOM      9  C   UNL     1      33.097 -21.645 -19.374  0.00  0.00    +0.058 C 
ATOM     10  C   UNL     1      36.818 -21.709 -18.570  0.00  0.00    +0.120 C 
ATOM     11  C   UNL     1      36.542 -18.654 -21.571  0.00  0.00    +0.001 C 
ATOM     12  C   UNL     1      35.310 -18.327 -22.129  0.00  0.00    +0.000 C 
ENDROOT
TORSDOF 0
ENDMDL
MODEL 5
REMARK VINA RESULT:      -7.4      2.395      3.860
REMARK  Name = 11820
REMARK  0 active torsions:
REMARK  status: ('A' for Active; 'I' for Inactive)
REMARK                            x       y       z     vdW  Elec       q    Type
REMARK                         _______ _______ _______ _____ _____    ______ ____
ROOT
ATOM      1  O   UNL     1      35.804 -18.159 -20.596  0.00  0.00    -0.270 OA
ATOM      2  N   UNL     1      34.772 -16.460 -21.821  0.00  0.00    -0.253 N 
ATOM      3  C   UNL     1      34.311 -15.999 -23.097  0.00  0.00    +0.054 C 
ATOM      4  C   UNL     1      34.483 -16.822 -24.222  0.00  0.00    +0.014 C 
ATOM      5  C   UNL     1      35.123 -18.123 -24.075  0.00  0.00    +0.006 C 
ATOM      6  C   UNL     1      33.692 -14.750 -23.266  0.00  0.00    +0.015 C 
ATOM      7  C   UNL     1      35.388 -17.706 -21.662  0.00  0.00    +0.253 C 
ATOM      8  C   UNL     1      34.041 -16.399 -25.483  0.00  0.00    +0.001 C 
ATOM      9  C   UNL     1      35.548 -18.539 -22.882  0.00  0.00    +0.058 C 
ATOM     10  C   UNL     1      34.593 -15.604 -20.651  0.00  0.00    +0.120 C 
ATOM     11  C   UNL     1      33.255 -14.334 -24.526  0.00  0.00    +0.001 C 
ATOM     12  C   UNL     1      33.429 -15.158 -25.633  0.00  0.00    +0.000 C 
ENDROOT
TORSDOF 0
ENDMDL
MODEL 6
REMARK VINA RESULT:      -7.3      1.963      2.919
REMARK  Name = 11820
REMARK  0 active torsions:
REMARK  status: ('A' for Active; 'I' for Inactive)
REMARK                            x       y       z     vdW  Elec       q    Type
REMARK                         _______ _______ _______ _____ _____    ______ ____
ROOT
ATOM      1  O   UNL     1      34.942 -19.801 -24.585  0.00  0.00    -0.270 OA
ATOM      2  N   UNL     1      34.700 -17.560 -23.977  0.00  0.00    -0.253 N 
ATOM      3  C   UNL     1      34.612 -16.597 -22.920  0.00  0.00    +0.054 C 
ATOM      4  C   UNL     1      34.688 -17.037 -21.589  0.00  0.00    +0.014 C 
ATOM      5  C   UNL     1      34.854 -18.457 -21.305  0.00  0.00    +0.006 C 
ATOM      6  C   UNL     1      34.451 -15.223 -23.165  0.00  0.00    +0.015 C 
ATOM      7  C   UNL     1      34.859 -18.926 -23.723  0.00  0.00    +0.253 C 
ATOM      8  C   UNL     1      34.606 -16.120 -20.532  0.00  0.00    +0.001 C 
ATOM      9  C   UNL     1      34.933 -19.343 -22.299  0.00  0.00    +0.058 C 
ATOM     10  C   UNL     1      34.621 -17.101 -25.361  0.00  0.00    +0.120 C 
ATOM     11  C   UNL     1      34.370 -14.314 -22.108  0.00  0.00    +0.001 C 
ATOM     12  C   UNL     1      34.447 -14.761 -20.793  0.00  0.00    +0.000 C 
ENDROOT
TORSDOF 0
ENDMDL
MODEL 7
REMARK VINA RESULT:      -7.3      2.246      4.414
REMARK  Name = 11820
REMARK  0 active torsions:
REMARK  status: ('A' for Active; 'I' for Inactive)
REMARK                            x       y       z     vdW  Elec       q    Type
REMARK                         _______ _______ _______ _____ _____    ______ ____
ROOT
ATOM      1  O   UNL     1      35.494 -17.626 -20.641  0.00  0.00    -0.270 OA
ATOM      2  N   UNL     1      34.840 -17.093 -22.819  0.00  0.00    -0.253 N 
ATOM      3  C   UNL     1      34.233 -16.139 -23.699  0.00  0.00    +0.054 C 
ATOM      4  C   UNL     1      33.768 -14.924 -23.172  0.00  0.00    +0.014 C 
ATOM      5  C   UNL     1      33.908 -14.653 -21.746  0.00  0.00    +0.006 C 
ATOM      6  C   UNL     1      34.085 -16.375 -25.076  0.00  0.00    +0.015 C 
ATOM      7  C   UNL     1      34.983 -16.849 -21.448  0.00  0.00    +0.253 C 
ATOM      8  C   UNL     1      33.171 -13.970 -24.008  0.00  0.00    +0.001 C 
ATOM      9  C   UNL     1      34.474 -15.550 -20.938  0.00  0.00    +0.058 C 
ATOM     10  C   UNL     1      35.324 -18.356 -23.368  0.00  0.00    +0.120 C 
ATOM     11  C   UNL     1      33.489 -15.421 -25.903  0.00  0.00    +0.001 C 
ATOM     12  C   UNL     1      33.032 -14.220 -25.371  0.00  0.00    +0.000 C 
ENDROOT
TORSDOF 0
ENDMDL
MODEL 8
REMARK VINA RESULT:      -7.2      1.479      3.141
REMARK  Name = 11820
REMARK  0 active torsions:
REMARK  status: ('A' for Active; 'I' for Inactive)
REMARK                            x       y       z     vdW  Elec       q    Type
REMARK                         _______ _______ _______ _____ _____    ______ ____
ROOT
ATOM      1  O   UNL     1      33.427 -13.018 -24.053  0.00  0.00    -0.270 OA
ATOM      2  N   UNL     1      33.767 -15.244 -24.670  0.00  0.00    -0.253 N 
ATOM      3  C   UNL     1      34.211 -16.551 -24.284  0.00  0.00    +0.054 C 
ATOM      4  C   UNL     1      34.686 -16.752 -22.978  0.00  0.00    +0.014 C 
ATOM      5  C   UNL     1      34.721 -15.636 -22.041  0.00  0.00    +0.006 C 
ATOM      6  C   UNL     1      34.189 -17.644 -25.166  0.00  0.00    +0.015 C 
ATOM      7  C   UNL     1      33.794 -14.162 -23.783  0.00  0.00    +0.253 C 
ATOM      8  C   UNL     1      35.126 -18.019 -22.570  0.00  0.00    +0.001 C 
ATOM      9  C   UNL     1      34.306 -14.424 -22.414  0.00  0.00    +0.058 C 
ATOM     10  C   UNL     1      33.273 -15.036 -26.028  0.00  0.00    +0.120 C 
ATOM     11  C   UNL     1      34.628 -18.903 -24.754  0.00  0.00    +0.001 C 
ATOM     12  C   UNL     1      35.096 -19.092 -23.458  0.00  0.00    +0.000 C 
ENDROOT
TORSDOF 0
ENDMDL
MODEL 9
REMARK VINA RESULT:      -7.2      2.155      3.276
REMARK  Name = 11820
REMARK  0 active torsions:
REMARK  status: ('A' for Active; 'I' for Inactive)
REMARK                            x       y       z     vdW  Elec       q    Type
REMARK                         _______ _______ _______ _____ _____    ______ ____
ROOT
ATOM      1  O   UNL     1      34.926 -19.949 -24.603  0.00  0.00    -0.270 OA
ATOM      2  N   UNL     1      34.823 -18.470 -22.800  0.00  0.00    -0.253 N 
ATOM      3  C   UNL     1      34.671 -17.116 -22.353  0.00  0.00    +0.054 C 
ATOM      4  C   UNL     1      34.498 -16.100 -23.307  0.00  0.00    +0.014 C 
ATOM      5  C   UNL     1      34.474 -16.434 -24.725  0.00  0.00    +0.006 C 
ATOM      6  C   UNL     1      34.691 -16.766 -20.994  0.00  0.00    +0.015 C 
ATOM      7  C   UNL     1      34.803 -18.808 -24.157  0.00  0.00    +0.253 C 
ATOM      8  C   UNL     1      34.346 -14.767 -22.902  0.00  0.00    +0.001 C 
ATOM      9  C   UNL     1      34.617 -17.698 -25.126  0.00  0.00    +0.058 C 
ATOM     10  C   UNL     1      35.003 -19.526 -21.808  0.00  0.00    +0.120 C 
ATOM     11  C   UNL     1      34.539 -15.436 -20.597  0.00  0.00    +0.001 C 
ATOM     12  C   UNL     1      34.366 -14.437 -21.549  0.00  0.00    +0.000 C 
ENDROOT
TORSDOF 0
ENDMDL
