MODEL 1
REMARK VINA RESULT:      -8.2      0.000      0.000
REMARK  Name = 5288615
REMARK  7 active torsions:
REMARK  status: ('A' for Active; 'I' for Inactive)
REMARK    1  A    between atoms: S_1  and  N_5
REMARK    2  A    between atoms: S_1  and  C_18
REMARK    3  A    between atoms: C_7  and  C_14
REMARK    4  A    between atoms: N_13  and  O_16
REMARK    5  A    between atoms: C_23  and  O_24
REMARK    6  A    between atoms: O_24  and  C_25
REMARK    7  A    between atoms: C_25  and  C_26
REMARK                            x       y       z     vdW  Elec       q    Type
REMARK                         _______ _______ _______ _____ _____    ______ ____
ROOT
ATOM      1  S   UNL     1      35.485 -18.883 -22.266  0.00  0.00    +0.064 S 
ATOM      2  O   UNL     1      36.861 -18.440 -22.211  0.00  0.00    -0.153 OA
ATOM      3  O   UNL     1      34.938 -19.476 -23.466  0.00  0.00    -0.153 OA
ENDROOT
BRANCH   1   5
ATOM      4  S   UNL     1      32.394 -15.271 -21.194  0.00  0.00    -0.139 S 
ATOM      5  N   UNL     1      34.464 -17.598 -21.768  0.00  0.00    -0.146 NA
ATOM      6  C   UNL     1      34.216 -15.111 -21.423  0.00  0.00    +0.063 C 
ATOM      7  C   UNL     1      34.793 -16.242 -22.307  0.00  0.00    +0.166 C 
ATOM      8  C   UNL     1      33.010 -17.920 -21.692  0.00  0.00    +0.108 C 
ATOM      9  C   UNL     1      32.304 -17.013 -20.698  0.00  0.00    +0.077 C 
ATOM     10  C   UNL     1      34.892 -15.117 -20.038  0.00  0.00    +0.013 C 
ATOM     11  C   UNL     1      34.467 -13.733 -22.063  0.00  0.00    +0.013 C 
BRANCH   7  14
ATOM     12  O   UNL     1      33.363 -15.596 -24.103  0.00  0.00    -0.271 OA
ATOM     13  N   UNL     1      35.244 -16.855 -24.578  0.00  0.00    -0.196 N 
ATOM     14  C   UNL     1      34.378 -16.192 -23.748  0.00  0.00    +0.261 C 
ATOM     15  H   UNL     1      36.044 -17.317 -24.239  0.00  0.00    +0.182 HD
BRANCH  13  16
ATOM     16  O   UNL     1      34.916 -16.834 -25.941  0.00  0.00    -0.295 OA
ATOM     17  H   UNL     1      35.727 -16.899 -26.469  0.00  0.00    +0.241 HD
ENDBRANCH  13  16
ENDBRANCH   7  14
ENDBRANCH   1   5
BRANCH   1  18
ATOM     18  C   UNL     1      35.226 -20.012 -20.934  0.00  0.00    +0.122 C 
ATOM     19  C   UNL     1      33.937 -20.416 -20.627  0.00  0.00    +0.023 C 
ATOM     20  C   UNL     1      36.317 -20.476 -20.216  0.00  0.00    +0.023 C 
ATOM     21  C   UNL     1      33.732 -21.307 -19.574  0.00  0.00    +0.038 C 
ATOM     22  C   UNL     1      36.112 -21.368 -19.163  0.00  0.00    +0.038 C 
ATOM     23  C   UNL     1      34.819 -21.783 -18.842  0.00  0.00    +0.140 C 
BRANCH  23  24
ATOM     24  O   UNL     1      34.620 -22.655 -17.815  0.00  0.00    -0.461 OA
BRANCH  24  25
ATOM     25  C   UNL     1      33.457 -23.478 -17.879  0.00  0.00    +0.281 C 
BRANCH  25  26
ATOM     26  C   UNL     1      32.649 -23.285 -16.675  0.00  0.00    -0.044 C 
ATOM     27  C   UNL     1      31.986 -23.128 -15.686  0.00  0.00    -0.086 C 
ATOM     28  C   UNL     1      31.179 -22.937 -14.483  0.00  0.00    +0.090 C 
ENDBRANCH  25  26
ENDBRANCH  24  25
ENDBRANCH  23  24
ENDBRANCH   1  18
TORSDOF 7
ENDMDL
MODEL 2
REMARK VINA RESULT:      -7.6      1.652      2.071
REMARK  Name = 5288615
REMARK  7 active torsions:
REMARK  status: ('A' for Active; 'I' for Inactive)
REMARK    1  A    between atoms: S_1  and  N_5
REMARK    2  A    between atoms: S_1  and  C_18
REMARK    3  A    between atoms: C_7  and  C_14
REMARK    4  A    between atoms: N_13  and  O_16
REMARK    5  A    between atoms: C_23  and  O_24
REMARK    6  A    between atoms: O_24  and  C_25
REMARK    7  A    between atoms: C_25  and  C_26
REMARK                            x       y       z     vdW  Elec       q    Type
REMARK                         _______ _______ _______ _____ _____    ______ ____
ROOT
ATOM      1  S   UNL     1      35.528 -18.888 -22.358  0.00  0.00    +0.064 S 
ATOM      2  O   UNL     1      36.873 -18.363 -22.440  0.00  0.00    -0.153 OA
ATOM      3  O   UNL     1      34.918 -19.561 -23.483  0.00  0.00    -0.153 OA
ENDROOT
BRANCH   1   5
ATOM      4  S   UNL     1      32.353 -15.386 -21.173  0.00  0.00    -0.139 S 
ATOM      5  N   UNL     1      34.476 -17.646 -21.819  0.00  0.00    -0.146 NA
ATOM      6  C   UNL     1      34.174 -15.182 -21.368  0.00  0.00    +0.063 C 
ATOM      7  C   UNL     1      34.785 -16.261 -22.293  0.00  0.00    +0.166 C 
ATOM      8  C   UNL     1      33.027 -17.998 -21.778  0.00  0.00    +0.108 C 
ATOM      9  C   UNL     1      32.290 -17.150 -20.755  0.00  0.00    +0.077 C 
ATOM     10  C   UNL     1      34.831 -15.237 -19.974  0.00  0.00    +0.013 C 
ATOM     11  C   UNL     1      34.407 -13.772 -21.943  0.00  0.00    +0.013 C 
BRANCH   7  14
ATOM     12  O   UNL     1      33.374 -15.554 -24.079  0.00  0.00    -0.271 OA
ATOM     13  N   UNL     1      35.272 -16.776 -24.580  0.00  0.00    -0.196 N 
ATOM     14  C   UNL     1      34.389 -16.155 -23.736  0.00  0.00    +0.261 C 
ATOM     15  H   UNL     1      36.071 -17.245 -24.249  0.00  0.00    +0.182 HD
BRANCH  13  16
ATOM     16  O   UNL     1      34.962 -16.702 -25.945  0.00  0.00    -0.295 OA
ATOM     17  H   UNL     1      34.045 -16.984 -26.084  0.00  0.00    +0.241 HD
ENDBRANCH  13  16
ENDBRANCH   7  14
ENDBRANCH   1   5
BRANCH   1  18
ATOM     18  C   UNL     1      35.455 -19.975 -20.968  0.00  0.00    +0.122 C 
ATOM     19  C   UNL     1      36.609 -20.229 -20.245  0.00  0.00    +0.023 C 
ATOM     20  C   UNL     1      34.246 -20.556 -20.624  0.00  0.00    +0.023 C 
ATOM     21  C   UNL     1      36.552 -21.088 -19.147  0.00  0.00    +0.038 C 
ATOM     22  C   UNL     1      34.189 -21.415 -19.526  0.00  0.00    +0.038 C 
ATOM     23  C   UNL     1      35.342 -21.681 -18.788  0.00  0.00    +0.140 C 
BRANCH  23  24
ATOM     24  O   UNL     1      35.286 -22.517 -17.715  0.00  0.00    -0.461 OA
BRANCH  24  25
ATOM     25  C   UNL     1      36.158 -22.233 -16.624  0.00  0.00    +0.281 C 
BRANCH  25  26
ATOM     26  C   UNL     1      36.379 -23.448 -15.839  0.00  0.00    -0.044 C 
ATOM     27  C   UNL     1      36.560 -24.444 -15.193  0.00  0.00    -0.086 C 
ATOM     28  C   UNL     1      36.781 -25.656 -14.407  0.00  0.00    +0.090 C 
ENDBRANCH  25  26
ENDBRANCH  24  25
ENDBRANCH  23  24
ENDBRANCH   1  18
TORSDOF 7
ENDMDL
MODEL 3
REMARK VINA RESULT:      -7.2      5.604      8.570
REMARK  Name = 5288615
REMARK  7 active torsions:
REMARK  status: ('A' for Active; 'I' for Inactive)
REMARK    1  A    between atoms: S_1  and  N_5
REMARK    2  A    between atoms: S_1  and  C_18
REMARK    3  A    between atoms: C_7  and  C_14
REMARK    4  A    between atoms: N_13  and  O_16
REMARK    5  A    between atoms: C_23  and  O_24
REMARK    6  A    between atoms: O_24  and  C_25
REMARK    7  A    between atoms: C_25  and  C_26
REMARK                            x       y       z     vdW  Elec       q    Type
REMARK                         _______ _______ _______ _____ _____    ______ ____
ROOT
ATOM      1  S   UNL     1      31.452 -10.961 -20.979  0.00  0.00    +0.064 S 
ATOM      2  O   UNL     1      30.011 -11.078 -21.045  0.00  0.00    -0.153 OA
ATOM      3  O   UNL     1      32.114 -10.565 -19.757  0.00  0.00    -0.153 OA
ENDROOT
BRANCH   1   5
ATOM      4  S   UNL     1      33.292  -8.000 -24.384  0.00  0.00    -0.139 S 
ATOM      5  N   UNL     1      31.986  -9.945 -22.254  0.00  0.00    -0.146 NA
ATOM      6  C   UNL     1      31.732  -7.733 -23.440  0.00  0.00    +0.063 C 
ATOM      7  C   UNL     1      31.737  -8.480 -22.086  0.00  0.00    +0.166 C 
ATOM      8  C   UNL     1      33.303 -10.304 -22.856  0.00  0.00    +0.108 C 
ATOM      9  C   UNL     1      33.397  -9.808 -24.289  0.00  0.00    +0.077 C 
ATOM     10  C   UNL     1      30.544  -8.201 -24.305  0.00  0.00    +0.013 C 
ATOM     11  C   UNL     1      31.590  -6.214 -23.228  0.00  0.00    +0.013 C 
BRANCH   7  14
ATOM     12  O   UNL     1      33.911  -7.886 -21.311  0.00  0.00    -0.271 OA
ATOM     13  N   UNL     1      32.103  -7.547 -19.911  0.00  0.00    -0.196 N 
ATOM     14  C   UNL     1      32.708  -7.948 -21.073  0.00  0.00    +0.261 C 
ATOM     15  H   UNL     1      31.131  -7.619 -19.774  0.00  0.00    +0.182 HD
BRANCH  13  16
ATOM     16  O   UNL     1      32.958  -7.027 -18.929  0.00  0.00    -0.295 OA
ATOM     17  H   UNL     1      33.066  -6.074 -19.066  0.00  0.00    +0.241 HD
ENDBRANCH  13  16
ENDBRANCH   7  14
ENDBRANCH   1   5
BRANCH   1  18
ATOM     18  C   UNL     1      32.145 -12.498 -21.502  0.00  0.00    +0.122 C 
ATOM     19  C   UNL     1      32.653 -13.370 -20.553  0.00  0.00    +0.023 C 
ATOM     20  C   UNL     1      32.169 -12.807 -22.852  0.00  0.00    +0.023 C 
ATOM     21  C   UNL     1      33.201 -14.585 -20.965  0.00  0.00    +0.038 C 
ATOM     22  C   UNL     1      32.717 -14.022 -23.265  0.00  0.00    +0.038 C 
ATOM     23  C   UNL     1      33.233 -14.911 -22.321  0.00  0.00    +0.140 C 
BRANCH  23  24
ATOM     24  O   UNL     1      33.767 -16.097 -22.724  0.00  0.00    -0.461 OA
BRANCH  24  25
ATOM     25  C   UNL     1      34.745 -16.690 -21.874  0.00  0.00    +0.281 C 
BRANCH  25  26
ATOM     26  C   UNL     1      34.260 -17.983 -21.390  0.00  0.00    -0.044 C 
ATOM     27  C   UNL     1      33.860 -19.043 -20.992  0.00  0.00    -0.086 C 
ATOM     28  C   UNL     1      33.374 -20.333 -20.507  0.00  0.00    +0.090 C 
ENDBRANCH  25  26
ENDBRANCH  24  25
ENDBRANCH  23  24
ENDBRANCH   1  18
TORSDOF 7
ENDMDL
MODEL 4
REMARK VINA RESULT:      -6.8      4.382      9.885
REMARK  Name = 5288615
REMARK  7 active torsions:
REMARK  status: ('A' for Active; 'I' for Inactive)
REMARK    1  A    between atoms: S_1  and  N_5
REMARK    2  A    between atoms: S_1  and  C_18
REMARK    3  A    between atoms: C_7  and  C_14
REMARK    4  A    between atoms: N_13  and  O_16
REMARK    5  A    between atoms: C_23  and  O_24
REMARK    6  A    between atoms: O_24  and  C_25
REMARK    7  A    between atoms: C_25  and  C_26
REMARK                            x       y       z     vdW  Elec       q    Type
REMARK                         _______ _______ _______ _____ _____    ______ ____
ROOT
ATOM      1  S   UNL     1      33.060 -13.395 -23.868  0.00  0.00    +0.064 S 
ATOM      2  O   UNL     1      31.853 -13.952 -24.437  0.00  0.00    -0.153 OA
ATOM      3  O   UNL     1      34.209 -13.099 -24.694  0.00  0.00    -0.153 OA
ENDROOT
BRANCH   1   5
ATOM      4  S   UNL     1      34.830 -16.222 -20.314  0.00  0.00    -0.139 S 
ATOM      5  N   UNL     1      33.561 -14.375 -22.553  0.00  0.00    -0.146 NA
ATOM      6  C   UNL     1      33.408 -16.623 -21.416  0.00  0.00    +0.063 C 
ATOM      7  C   UNL     1      33.476 -15.855 -22.757  0.00  0.00    +0.166 C 
ATOM      8  C   UNL     1      34.767 -13.901 -21.815  0.00  0.00    +0.108 C 
ATOM      9  C   UNL     1      34.765 -14.411 -20.384  0.00  0.00    +0.077 C 
ATOM     10  C   UNL     1      32.098 -16.289 -20.675  0.00  0.00    +0.013 C 
ATOM     11  C   UNL     1      33.440 -18.144 -21.654  0.00  0.00    +0.013 C 
BRANCH   7  14
ATOM     12  O   UNL     1      35.729 -16.464 -23.242  0.00  0.00    -0.271 OA
ATOM     13  N   UNL     1      34.195 -16.415 -24.972  0.00  0.00    -0.196 N 
ATOM     14  C   UNL     1      34.593 -16.272 -23.668  0.00  0.00    +0.261 C 
ATOM     15  H   UNL     1      33.269 -16.248 -25.258  0.00  0.00    +0.182 HD
BRANCH  13  16
ATOM     16  O   UNL     1      35.193 -16.816 -25.871  0.00  0.00    -0.295 OA
ATOM     17  H   UNL     1      35.387 -16.088 -26.482  0.00  0.00    +0.241 HD
ENDBRANCH  13  16
ENDBRANCH   7  14
ENDBRANCH   1   5
BRANCH   1  18
ATOM     18  C   UNL     1      32.620 -11.922 -23.000  0.00  0.00    +0.122 C 
ATOM     19  C   UNL     1      33.078 -10.699 -23.464  0.00  0.00    +0.023 C 
ATOM     20  C   UNL     1      31.825 -12.012 -21.869  0.00  0.00    +0.023 C 
ATOM     21  C   UNL     1      32.730  -9.535 -22.778  0.00  0.00    +0.038 C 
ATOM     22  C   UNL     1      31.477 -10.848 -21.184  0.00  0.00    +0.038 C 
ATOM     23  C   UNL     1      31.930  -9.609 -21.638  0.00  0.00    +0.140 C 
BRANCH  23  24
ATOM     24  O   UNL     1      31.590  -8.473 -20.970  0.00  0.00    -0.461 OA
BRANCH  24  25
ATOM     25  C   UNL     1      32.559  -7.428 -20.930  0.00  0.00    +0.281 C 
BRANCH  25  26
ATOM     26  C   UNL     1      32.089  -6.289 -21.718  0.00  0.00    -0.044 C 
ATOM     27  C   UNL     1      31.703  -5.355 -22.367  0.00  0.00    -0.086 C 
ATOM     28  C   UNL     1      31.234  -4.218 -23.156  0.00  0.00    +0.090 C 
ENDBRANCH  25  26
ENDBRANCH  24  25
ENDBRANCH  23  24
ENDBRANCH   1  18
TORSDOF 7
ENDMDL
MODEL 5
REMARK VINA RESULT:      -6.6      6.206      9.731
REMARK  Name = 5288615
REMARK  7 active torsions:
REMARK  status: ('A' for Active; 'I' for Inactive)
REMARK    1  A    between atoms: S_1  and  N_5
REMARK    2  A    between atoms: S_1  and  C_18
REMARK    3  A    between atoms: C_7  and  C_14
REMARK    4  A    between atoms: N_13  and  O_16
REMARK    5  A    between atoms: C_23  and  O_24
REMARK    6  A    between atoms: O_24  and  C_25
REMARK    7  A    between atoms: C_25  and  C_26
REMARK                            x       y       z     vdW  Elec       q    Type
REMARK                         _______ _______ _______ _____ _____    ______ ____
ROOT
ATOM      1  S   UNL     1      31.527 -10.405 -21.816  0.00  0.00    +0.064 S 
ATOM      2  O   UNL     1      30.134 -10.558 -22.175  0.00  0.00    -0.153 OA
ATOM      3  O   UNL     1      31.931 -10.260 -20.436  0.00  0.00    -0.153 OA
ENDROOT
BRANCH   1   5
ATOM      4  S   UNL     1      33.633  -6.640 -24.084  0.00  0.00    -0.139 S 
ATOM      5  N   UNL     1      32.200  -9.118 -22.729  0.00  0.00    -0.146 NA
ATOM      6  C   UNL     1      31.827  -6.860 -23.789  0.00  0.00    +0.063 C 
ATOM      7  C   UNL     1      31.542  -7.783 -22.581  0.00  0.00    +0.166 C 
ATOM      8  C   UNL     1      33.689  -9.091 -22.806  0.00  0.00    +0.108 C 
ATOM      9  C   UNL     1      34.155  -8.377 -24.063  0.00  0.00    +0.077 C 
ATOM     10  C   UNL     1      31.183  -7.436 -25.066  0.00  0.00    +0.013 C 
ATOM     11  C   UNL     1      31.237  -5.456 -23.556  0.00  0.00    +0.013 C 
BRANCH   7  14
ATOM     12  O   UNL     1      31.217  -6.381 -20.682  0.00  0.00    -0.271 OA
ATOM     13  N   UNL     1      33.094  -7.729 -20.758  0.00  0.00    -0.196 N 
ATOM     14  C   UNL     1      31.922  -7.214 -21.246  0.00  0.00    +0.261 C 
ATOM     15  H   UNL     1      33.620  -8.397 -21.255  0.00  0.00    +0.182 HD
BRANCH  13  16
ATOM     16  O   UNL     1      33.497  -7.244 -19.506  0.00  0.00    -0.295 OA
ATOM     17  H   UNL     1      32.763  -7.325 -18.877  0.00  0.00    +0.241 HD
ENDBRANCH  13  16
ENDBRANCH   7  14
ENDBRANCH   1   5
BRANCH   1  18
ATOM     18  C   UNL     1      32.417 -11.766 -22.504  0.00  0.00    +0.122 C 
ATOM     19  C   UNL     1      33.076 -11.604 -23.712  0.00  0.00    +0.023 C 
ATOM     20  C   UNL     1      32.440 -12.973 -21.826  0.00  0.00    +0.023 C 
ATOM     21  C   UNL     1      33.779 -12.679 -24.256  0.00  0.00    +0.038 C 
ATOM     22  C   UNL     1      33.143 -14.049 -22.370  0.00  0.00    +0.038 C 
ATOM     23  C   UNL     1      33.812 -13.902 -23.585  0.00  0.00    +0.140 C 
BRANCH  23  24
ATOM     24  O   UNL     1      34.499 -14.951 -24.115  0.00  0.00    -0.461 OA
BRANCH  24  25
ATOM     25  C   UNL     1      33.845 -15.708 -25.130  0.00  0.00    +0.281 C 
BRANCH  25  26
ATOM     26  C   UNL     1      34.192 -17.123 -24.992  0.00  0.00    -0.044 C 
ATOM     27  C   UNL     1      34.477 -18.284 -24.881  0.00  0.00    -0.086 C 
ATOM     28  C   UNL     1      34.825 -19.697 -24.744  0.00  0.00    +0.090 C 
ENDBRANCH  25  26
ENDBRANCH  24  25
ENDBRANCH  23  24
ENDBRANCH   1  18
TORSDOF 7
ENDMDL
MODEL 6
REMARK VINA RESULT:      -6.4      4.352     10.118
REMARK  Name = 5288615
REMARK  7 active torsions:
REMARK  status: ('A' for Active; 'I' for Inactive)
REMARK    1  A    between atoms: S_1  and  N_5
REMARK    2  A    between atoms: S_1  and  C_18
REMARK    3  A    between atoms: C_7  and  C_14
REMARK    4  A    between atoms: N_13  and  O_16
REMARK    5  A    between atoms: C_23  and  O_24
REMARK    6  A    between atoms: O_24  and  C_25
REMARK    7  A    between atoms: C_25  and  C_26
REMARK                            x       y       z     vdW  Elec       q    Type
REMARK                         _______ _______ _______ _____ _____    ______ ____
ROOT
ATOM      1  S   UNL     1      32.936 -13.463 -24.071  0.00  0.00    +0.064 S 
ATOM      2  O   UNL     1      31.600 -13.909 -24.403  0.00  0.00    -0.153 OA
ATOM      3  O   UNL     1      33.991 -13.462 -25.060  0.00  0.00    -0.153 OA
ENDROOT
BRANCH   1   5
ATOM      4  S   UNL     1      34.819 -15.931 -20.314  0.00  0.00    -0.139 S 
ATOM      5  N   UNL     1      33.478 -14.313 -22.683  0.00  0.00    -0.146 NA
ATOM      6  C   UNL     1      33.377 -16.447 -21.340  0.00  0.00    +0.063 C 
ATOM      7  C   UNL     1      33.406 -15.806 -22.748  0.00  0.00    +0.166 C 
ATOM      8  C   UNL     1      34.694 -13.760 -22.022  0.00  0.00    +0.108 C 
ATOM      9  C   UNL     1      34.730 -14.135 -20.550  0.00  0.00    +0.077 C 
ATOM     10  C   UNL     1      32.080 -16.059 -20.602  0.00  0.00    +0.013 C 
ATOM     11  C   UNL     1      33.422 -17.983 -21.437  0.00  0.00    +0.013 C 
BRANCH   7  14
ATOM     12  O   UNL     1      35.663 -16.395 -23.239  0.00  0.00    -0.271 OA
ATOM     13  N   UNL     1      34.072 -16.610 -24.903  0.00  0.00    -0.196 N 
ATOM     14  C   UNL     1      34.507 -16.294 -23.642  0.00  0.00    +0.261 C 
ATOM     15  H   UNL     1      33.131 -16.510 -25.173  0.00  0.00    +0.182 HD
BRANCH  13  16
ATOM     16  O   UNL     1      35.054 -17.085 -25.784  0.00  0.00    -0.295 OA
ATOM     17  H   UNL     1      35.716 -17.591 -25.288  0.00  0.00    +0.241 HD
ENDBRANCH  13  16
ENDBRANCH   7  14
ENDBRANCH   1   5
BRANCH   1  18
ATOM     18  C   UNL     1      32.813 -11.834 -23.403  0.00  0.00    +0.122 C 
ATOM     19  C   UNL     1      33.612 -10.827 -23.921  0.00  0.00    +0.023 C 
ATOM     20  C   UNL     1      31.921 -11.589 -22.372  0.00  0.00    +0.023 C 
ATOM     21  C   UNL     1      33.515  -9.539 -23.394  0.00  0.00    +0.038 C 
ATOM     22  C   UNL     1      31.825 -10.301 -21.845  0.00  0.00    +0.038 C 
ATOM     23  C   UNL     1      32.622  -9.276 -22.355  0.00  0.00    +0.140 C 
BRANCH  23  24
ATOM     24  O   UNL     1      32.526  -8.019 -21.841  0.00  0.00    -0.461 OA
BRANCH  24  25
ATOM     25  C   UNL     1      31.461  -7.201 -22.320  0.00  0.00    +0.281 C 
BRANCH  25  26
ATOM     26  C   UNL     1      31.902  -6.457 -23.500  0.00  0.00    -0.044 C 
ATOM     27  C   UNL     1      32.262  -5.847 -24.469  0.00  0.00    -0.086 C 
ATOM     28  C   UNL     1      32.702  -5.105 -25.649  0.00  0.00    +0.090 C 
ENDBRANCH  25  26
ENDBRANCH  24  25
ENDBRANCH  23  24
ENDBRANCH   1  18
TORSDOF 7
ENDMDL
MODEL 7
REMARK VINA RESULT:      -6.2      5.624      8.660
REMARK  Name = 5288615
REMARK  7 active torsions:
REMARK  status: ('A' for Active; 'I' for Inactive)
REMARK    1  A    between atoms: S_1  and  N_5
REMARK    2  A    between atoms: S_1  and  C_18
REMARK    3  A    between atoms: C_7  and  C_14
REMARK    4  A    between atoms: N_13  and  O_16
REMARK    5  A    between atoms: C_23  and  O_24
REMARK    6  A    between atoms: O_24  and  C_25
REMARK    7  A    between atoms: C_25  and  C_26
REMARK                            x       y       z     vdW  Elec       q    Type
REMARK                         _______ _______ _______ _____ _____    ______ ____
ROOT
ATOM      1  S   UNL     1      33.792 -10.546 -24.309  0.00  0.00    +0.064 S 
ATOM      2  O   UNL     1      35.180 -10.275 -24.001  0.00  0.00    -0.153 OA
ATOM      3  O   UNL     1      33.340 -10.668 -25.676  0.00  0.00    -0.153 OA
ENDROOT
BRANCH   1   5
ATOM      4  S   UNL     1      31.096  -7.026 -22.287  0.00  0.00    -0.139 S 
ATOM      5  N   UNL     1      32.808  -9.399 -23.499  0.00  0.00    -0.146 NA
ATOM      6  C   UNL     1      32.560  -7.846 -21.526  0.00  0.00    +0.063 C 
ATOM      7  C   UNL     1      33.512  -8.443 -22.590  0.00  0.00    +0.166 C 
ATOM      8  C   UNL     1      31.700  -8.813 -24.308  0.00  0.00    +0.108 C 
ATOM      9  C   UNL     1      30.565  -8.344 -23.415  0.00  0.00    +0.077 C 
ATOM     10  C   UNL     1      32.068  -8.951 -20.570  0.00  0.00    +0.013 C 
ATOM     11  C   UNL     1      33.282  -6.780 -20.681  0.00  0.00    +0.013 C 
BRANCH   7  14
ATOM     12  O   UNL     1      35.430  -7.210 -23.284  0.00  0.00    -0.271 OA
ATOM     13  N   UNL     1      33.417  -6.826 -24.354  0.00  0.00    -0.196 N 
ATOM     14  C   UNL     1      34.231  -7.431 -23.433  0.00  0.00    +0.261 C 
ATOM     15  H   UNL     1      32.460  -7.042 -24.429  0.00  0.00    +0.182 HD
BRANCH  13  16
ATOM     16  O   UNL     1      34.035  -5.877 -25.181  0.00  0.00    -0.295 OA
ATOM     17  H   UNL     1      33.662  -5.001 -25.001  0.00  0.00    +0.241 HD
ENDBRANCH  13  16
ENDBRANCH   7  14
ENDBRANCH   1   5
BRANCH   1  18
ATOM     18  C   UNL     1      33.324 -12.014 -23.446  0.00  0.00    +0.122 C 
ATOM     19  C   UNL     1      33.919 -13.219 -23.785  0.00  0.00    +0.023 C 
ATOM     20  C   UNL     1      32.369 -11.937 -22.446  0.00  0.00    +0.023 C 
ATOM     21  C   UNL     1      33.548 -14.379 -23.105  0.00  0.00    +0.038 C 
ATOM     22  C   UNL     1      31.999 -13.098 -21.765  0.00  0.00    +0.038 C 
ATOM     23  C   UNL     1      32.589 -14.318 -22.095  0.00  0.00    +0.140 C 
BRANCH  23  24
ATOM     24  O   UNL     1      32.228 -15.450 -21.429  0.00  0.00    -0.461 OA
BRANCH  24  25
ATOM     25  C   UNL     1      33.185 -16.007 -20.531  0.00  0.00    +0.281 C 
BRANCH  25  26
ATOM     26  C   UNL     1      33.831 -17.163 -21.153  0.00  0.00    -0.044 C 
ATOM     27  C   UNL     1      34.362 -18.111 -21.665  0.00  0.00    -0.086 C 
ATOM     28  C   UNL     1      35.008 -19.264 -22.288  0.00  0.00    +0.090 C 
ENDBRANCH  25  26
ENDBRANCH  24  25
ENDBRANCH  23  24
ENDBRANCH   1  18
TORSDOF 7
ENDMDL
MODEL 8
REMARK VINA RESULT:      -5.9      4.316      9.995
REMARK  Name = 5288615
REMARK  7 active torsions:
REMARK  status: ('A' for Active; 'I' for Inactive)
REMARK    1  A    between atoms: S_1  and  N_5
REMARK    2  A    between atoms: S_1  and  C_18
REMARK    3  A    between atoms: C_7  and  C_14
REMARK    4  A    between atoms: N_13  and  O_16
REMARK    5  A    between atoms: C_23  and  O_24
REMARK    6  A    between atoms: O_24  and  C_25
REMARK    7  A    between atoms: C_25  and  C_26
REMARK                            x       y       z     vdW  Elec       q    Type
REMARK                         _______ _______ _______ _____ _____    ______ ____
ROOT
ATOM      1  S   UNL     1      32.898 -13.588 -24.309  0.00  0.00    +0.064 S 
ATOM      2  O   UNL     1      31.461 -13.738 -24.386  0.00  0.00    -0.153 OA
ATOM      3  O   UNL     1      33.750 -13.983 -25.408  0.00  0.00    -0.153 OA
ENDROOT
BRANCH   1   5
ATOM      4  S   UNL     1      34.839 -15.780 -20.413  0.00  0.00    -0.139 S 
ATOM      5  N   UNL     1      33.460 -14.338 -22.873  0.00  0.00    -0.146 NA
ATOM      6  C   UNL     1      33.400 -16.382 -21.395  0.00  0.00    +0.063 C 
ATOM      7  C   UNL     1      33.412 -15.833 -22.841  0.00  0.00    +0.166 C 
ATOM      8  C   UNL     1      34.671 -13.725 -22.256  0.00  0.00    +0.108 C 
ATOM      9  C   UNL     1      34.721 -14.004 -20.763  0.00  0.00    +0.077 C 
ATOM     10  C   UNL     1      32.102 -15.968 -20.676  0.00  0.00    +0.013 C 
ATOM     11  C   UNL     1      33.470 -17.921 -21.393  0.00  0.00    +0.013 C 
BRANCH   7  14
ATOM     12  O   UNL     1      35.679 -16.395 -23.316  0.00  0.00    -0.271 OA
ATOM     13  N   UNL     1      34.075 -16.791 -24.934  0.00  0.00    -0.196 N 
ATOM     14  C   UNL     1      34.516 -16.361 -23.710  0.00  0.00    +0.261 C 
ATOM     15  H   UNL     1      33.128 -16.740 -25.197  0.00  0.00    +0.182 HD
BRANCH  13  16
ATOM     16  O   UNL     1      35.060 -17.307 -25.788  0.00  0.00    -0.295 OA
ATOM     17  H   UNL     1      34.639 -17.833 -26.485  0.00  0.00    +0.241 HD
ENDBRANCH  13  16
ENDBRANCH   7  14
ENDBRANCH   1   5
BRANCH   1  18
ATOM     18  C   UNL     1      33.246 -11.900 -23.929  0.00  0.00    +0.122 C 
ATOM     19  C   UNL     1      34.270 -11.251 -24.601  0.00  0.00    +0.023 C 
ATOM     20  C   UNL     1      32.491 -11.251 -22.966  0.00  0.00    +0.023 C 
ATOM     21  C   UNL     1      34.546  -9.917 -24.300  0.00  0.00    +0.038 C 
ATOM     22  C   UNL     1      32.767  -9.917 -22.665  0.00  0.00    +0.038 C 
ATOM     23  C   UNL     1      33.795  -9.250 -23.332  0.00  0.00    +0.140 C 
BRANCH  23  24
ATOM     24  O   UNL     1      34.063  -7.948 -23.040  0.00  0.00    -0.461 OA
BRANCH  24  25
ATOM     25  C   UNL     1      33.446  -6.958 -23.860  0.00  0.00    +0.281 C 
BRANCH  25  26
ATOM     26  C   UNL     1      32.350  -6.323 -23.128  0.00  0.00    -0.044 C 
ATOM     27  C   UNL     1      31.452  -5.799 -22.528  0.00  0.00    -0.086 C 
ATOM     28  C   UNL     1      30.357  -5.163 -21.797  0.00  0.00    +0.090 C 
ENDBRANCH  25  26
ENDBRANCH  24  25
ENDBRANCH  23  24
ENDBRANCH   1  18
TORSDOF 7
ENDMDL
MODEL 9
REMARK VINA RESULT:      -5.8      3.421      8.768
REMARK  Name = 5288615
REMARK  7 active torsions:
REMARK  status: ('A' for Active; 'I' for Inactive)
REMARK    1  A    between atoms: S_1  and  N_5
REMARK    2  A    between atoms: S_1  and  C_18
REMARK    3  A    between atoms: C_7  and  C_14
REMARK    4  A    between atoms: N_13  and  O_16
REMARK    5  A    between atoms: C_23  and  O_24
REMARK    6  A    between atoms: O_24  and  C_25
REMARK    7  A    between atoms: C_25  and  C_26
REMARK                            x       y       z     vdW  Elec       q    Type
REMARK                         _______ _______ _______ _____ _____    ______ ____
ROOT
ATOM      1  S   UNL     1      33.645 -16.074 -20.887  0.00  0.00    +0.064 S 
ATOM      2  O   UNL     1      34.569 -15.653 -19.857  0.00  0.00    -0.153 OA
ATOM      3  O   UNL     1      32.300 -16.493 -20.560  0.00  0.00    -0.153 OA
ENDROOT
BRANCH   1   5
ATOM      4  S   UNL     1      35.405 -19.712 -23.612  0.00  0.00    -0.139 S 
ATOM      5  N   UNL     1      34.388 -17.292 -21.838  0.00  0.00    -0.146 NA
ATOM      6  C   UNL     1      35.887 -19.322 -21.876  0.00  0.00    +0.063 C 
ATOM      7  C   UNL     1      34.778 -18.548 -21.124  0.00  0.00    +0.166 C 
ATOM      8  C   UNL     1      33.818 -17.485 -23.202  0.00  0.00    +0.108 C 
ATOM      9  C   UNL     1      34.854 -18.069 -24.148  0.00  0.00    +0.077 C 
ATOM     10  C   UNL     1      37.192 -18.502 -21.896  0.00  0.00    +0.013 C 
ATOM     11  C   UNL     1      36.184 -20.664 -21.181  0.00  0.00    +0.013 C 
BRANCH   7  14
ATOM     12  O   UNL     1      32.554 -19.273 -21.579  0.00  0.00    -0.271 OA
ATOM     13  N   UNL     1      33.637 -20.114 -19.718  0.00  0.00    -0.196 N 
ATOM     14  C   UNL     1      33.535 -19.338 -20.842  0.00  0.00    +0.261 C 
ATOM     15  H   UNL     1      34.449 -20.128 -19.163  0.00  0.00    +0.182 HD
BRANCH  13  16
ATOM     16  O   UNL     1      32.509 -20.887 -19.408  0.00  0.00    -0.295 OA
ATOM     17  H   UNL     1      32.511 -21.692 -19.948  0.00  0.00    +0.241 HD
ENDBRANCH  13  16
ENDBRANCH   7  14
ENDBRANCH   1   5
BRANCH   1  18
ATOM     18  C   UNL     1      33.536 -14.778 -22.081  0.00  0.00    +0.122 C 
ATOM     19  C   UNL     1      32.556 -13.809 -21.942  0.00  0.00    +0.023 C 
ATOM     20  C   UNL     1      34.432 -14.751 -23.137  0.00  0.00    +0.023 C 
ATOM     21  C   UNL     1      32.469 -12.785 -22.886  0.00  0.00    +0.038 C 
ATOM     22  C   UNL     1      34.346 -13.727 -24.080  0.00  0.00    +0.038 C 
ATOM     23  C   UNL     1      33.364 -12.744 -23.954  0.00  0.00    +0.140 C 
BRANCH  23  24
ATOM     24  O   UNL     1      33.281 -11.744 -24.874  0.00  0.00    -0.461 OA
BRANCH  24  25
ATOM     25  C   UNL     1      34.500 -11.109 -25.255  0.00  0.00    +0.281 C 
BRANCH  25  26
ATOM     26  C   UNL     1      34.622  -9.823 -24.570  0.00  0.00    -0.044 C 
ATOM     27  C   UNL     1      34.721  -8.767 -24.006  0.00  0.00    -0.086 C 
ATOM     28  C   UNL     1      34.842  -7.482 -23.321  0.00  0.00    +0.090 C 
ENDBRANCH  25  26
ENDBRANCH  24  25
ENDBRANCH  23  24
ENDBRANCH   1  18
TORSDOF 7
ENDMDL
