MODEL 1
REMARK VINA RESULT:      -8.5      0.000      0.000
REMARK  Name = 5288257
REMARK  4 active torsions:
REMARK  status: ('A' for Active; 'I' for Inactive)
REMARK    1  A    between atoms: N_4  and  C_28
REMARK    2  A    between atoms: C_8  and  C_15
REMARK    3  A    between atoms: C_20  and  C_23
REMARK    4  A    between atoms: C_28  and  C_30
REMARK                            x       y       z     vdW  Elec       q    Type
REMARK                         _______ _______ _______ _____ _____    ______ ____
ROOT
ATOM      1  O   UNL     1      33.207 -23.957 -18.324  0.00  0.00    -0.275 OA
ATOM      2  O   UNL     1      36.352 -21.512 -15.975  0.00  0.00    -0.275 OA
ATOM      3  N   UNL     1      33.666 -24.553 -14.030  0.00  0.00    +0.393 N 
ATOM      4  N   UNL     1      34.952 -22.668 -17.450  0.00  0.00    -0.226 N 
ATOM      5  C   UNL     1      33.016 -24.631 -15.352  0.00  0.00    -0.048 C 
ATOM      6  C   UNL     1      33.216 -23.267 -16.007  0.00  0.00    +0.065 C 
ATOM      7  C   UNL     1      34.312 -22.564 -15.208  0.00  0.00    +0.069 C 
ATOM      8  C   UNL     1      34.743 -23.545 -14.107  0.00  0.00    -0.025 C 
ATOM      9  C   UNL     1      31.553 -24.981 -15.071  0.00  0.00    -0.022 C 
ATOM     10  C   UNL     1      32.607 -24.189 -13.081  0.00  0.00    -0.077 C 
ATOM     11  C   UNL     1      31.446 -25.039 -13.555  0.00  0.00    -0.025 C 
ATOM     12  C   UNL     1      33.761 -23.361 -17.410  0.00  0.00    +0.230 C 
ATOM     13  C   UNL     1      35.346 -22.161 -16.229  0.00  0.00    +0.230 C 
ATOM     14  H   UNL     1      34.098 -25.426 -13.729  0.00  0.00    -0.079 HD
ENDROOT
BRANCH   8  15
ATOM     15  C   UNL     1      36.115 -24.190 -14.248  0.00  0.00    -0.041 C 
ATOM     16  C   UNL     1      37.213 -23.653 -13.572  0.00  0.00    -0.006 C 
ATOM     17  C   UNL     1      36.279 -25.319 -15.052  0.00  0.00    -0.006 C 
ATOM     18  C   UNL     1      38.470 -24.243 -13.702  0.00  0.00    +0.002 C 
ATOM     19  C   UNL     1      37.536 -25.908 -15.181  0.00  0.00    +0.002 C 
ATOM     20  C   UNL     1      38.631 -25.371 -14.506  0.00  0.00    +0.029 C 
BRANCH  20  23
ATOM     21  N   UNL     1      40.571 -26.477 -13.565  0.00  0.00    -0.345 N 
ATOM     22  N   UNL     1      40.527 -26.064 -15.844  0.00  0.00    -0.387 N 
ATOM     23  C   UNL     1      39.934 -25.983 -14.640  0.00  0.00    +0.095 C 
ATOM     24  H   UNL     1      41.457 -26.892 -13.665  0.00  0.00    +0.144 HD
ATOM     25  H   UNL     1      40.149 -26.423 -12.677  0.00  0.00    +0.144 HD
ATOM     26  H   UNL     1      41.415 -26.482 -15.929  0.00  0.00    +0.157 HD
ATOM     27  H   UNL     1      40.074 -25.705 -16.642  0.00  0.00    +0.157 HD
ENDBRANCH  20  23
ENDBRANCH   8  15
BRANCH   4  28
ATOM     28  C   UNL     1      35.747 -22.515 -18.652  0.00  0.00    +0.127 C 
BRANCH  28  30
ATOM     29  F   UNL     1      33.990 -18.211 -21.811  0.00  0.00    -0.204 F 
ATOM     30  C   UNL     1      35.277 -21.366 -19.496  0.00  0.00    -0.002 C 
ATOM     31  C   UNL     1      33.916 -21.169 -19.693  0.00  0.00    -0.000 C 
ATOM     32  C   UNL     1      36.208 -20.511 -20.071  0.00  0.00    -0.000 C 
ATOM     33  C   UNL     1      33.480 -20.100 -20.477  0.00  0.00    +0.029 C 
ATOM     34  C   UNL     1      35.773 -19.443 -20.855  0.00  0.00    +0.029 C 
ATOM     35  C   UNL     1      34.409 -19.238 -21.058  0.00  0.00    +0.140 C 
ENDBRANCH  28  30
ENDBRANCH   4  28
TORSDOF 4
ENDMDL
MODEL 2
REMARK VINA RESULT:      -6.4      8.033     13.138
REMARK  Name = 5288257
REMARK  4 active torsions:
REMARK  status: ('A' for Active; 'I' for Inactive)
REMARK    1  A    between atoms: N_4  and  C_28
REMARK    2  A    between atoms: C_8  and  C_15
REMARK    3  A    between atoms: C_20  and  C_23
REMARK    4  A    between atoms: C_28  and  C_30
REMARK                            x       y       z     vdW  Elec       q    Type
REMARK                         _______ _______ _______ _____ _____    ______ ____
ROOT
ATOM      1  O   UNL     1      34.682 -14.604 -19.991  0.00  0.00    -0.275 OA
ATOM      2  O   UNL     1      32.931 -15.224 -24.226  0.00  0.00    -0.275 OA
ATOM      3  N   UNL     1      31.918 -11.672 -21.656  0.00  0.00    +0.393 N 
ATOM      4  N   UNL     1      34.070 -15.135 -22.185  0.00  0.00    -0.226 N 
ATOM      5  C   UNL     1      32.696 -12.370 -20.614  0.00  0.00    -0.048 C 
ATOM      6  C   UNL     1      32.578 -13.860 -20.919  0.00  0.00    +0.065 C 
ATOM      7  C   UNL     1      32.058 -13.965 -22.353  0.00  0.00    +0.069 C 
ATOM      8  C   UNL     1      31.899 -12.524 -22.863  0.00  0.00    -0.025 C 
ATOM      9  C   UNL     1      32.067 -11.953 -19.283  0.00  0.00    -0.022 C 
ATOM     10  C   UNL     1      30.583 -11.456 -21.085  0.00  0.00    -0.077 C 
ATOM     11  C   UNL     1      30.905 -11.049 -19.663  0.00  0.00    -0.025 C 
ATOM     12  C   UNL     1      33.910 -14.566 -20.939  0.00  0.00    +0.230 C 
ATOM     13  C   UNL     1      33.047 -14.854 -23.066  0.00  0.00    +0.230 C 
ATOM     14  H   UNL     1      32.311 -10.773 -21.933  0.00  0.00    -0.079 HD
ENDROOT
BRANCH   8  15
ATOM     15  C   UNL     1      32.893 -12.044 -23.912  0.00  0.00    -0.041 C 
ATOM     16  C   UNL     1      33.749 -10.979 -23.627  0.00  0.00    -0.006 C 
ATOM     17  C   UNL     1      32.950 -12.667 -25.159  0.00  0.00    -0.006 C 
ATOM     18  C   UNL     1      34.659 -10.537 -24.588  0.00  0.00    +0.002 C 
ATOM     19  C   UNL     1      33.860 -12.225 -26.120  0.00  0.00    +0.002 C 
ATOM     20  C   UNL     1      34.714 -11.161 -25.834  0.00  0.00    +0.029 C 
BRANCH  20  23
ATOM     21  N   UNL     1      36.309  -9.540 -26.670  0.00  0.00    -0.345 N 
ATOM     22  N   UNL     1      35.892 -11.437 -27.932  0.00  0.00    -0.387 N 
ATOM     23  C   UNL     1      35.657 -10.704 -26.830  0.00  0.00    +0.095 C 
ATOM     24  H   UNL     1      36.949  -9.236 -27.352  0.00  0.00    +0.144 HD
ATOM     25  H   UNL     1      36.146  -8.991 -25.868  0.00  0.00    +0.144 HD
ATOM     26  H   UNL     1      36.535 -11.120 -28.607  0.00  0.00    +0.157 HD
ATOM     27  H   UNL     1      35.421 -12.291 -28.065  0.00  0.00    +0.157 HD
ENDBRANCH  20  23
ENDBRANCH   8  15
BRANCH   4  28
ATOM     28  C   UNL     1      35.226 -15.925 -22.559  0.00  0.00    +0.127 C 
BRANCH  28  30
ATOM     29  F   UNL     1      35.034 -21.100 -20.375  0.00  0.00    -0.204 F 
ATOM     30  C   UNL     1      35.176 -17.308 -21.976  0.00  0.00    -0.002 C 
ATOM     31  C   UNL     1      36.338 -18.065 -21.900  0.00  0.00    -0.000 C 
ATOM     32  C   UNL     1      33.967 -17.816 -21.519  0.00  0.00    -0.000 C 
ATOM     33  C   UNL     1      36.291 -19.350 -21.358  0.00  0.00    +0.029 C 
ATOM     34  C   UNL     1      33.919 -19.100 -20.977  0.00  0.00    +0.029 C 
ATOM     35  C   UNL     1      35.081 -19.867 -20.897  0.00  0.00    +0.140 C 
ENDBRANCH  28  30
ENDBRANCH   4  28
TORSDOF 4
ENDMDL
MODEL 3
REMARK VINA RESULT:      -6.0      3.414      6.318
REMARK  Name = 5288257
REMARK  4 active torsions:
REMARK  status: ('A' for Active; 'I' for Inactive)
REMARK    1  A    between atoms: N_4  and  C_28
REMARK    2  A    between atoms: C_8  and  C_15
REMARK    3  A    between atoms: C_20  and  C_23
REMARK    4  A    between atoms: C_28  and  C_30
REMARK                            x       y       z     vdW  Elec       q    Type
REMARK                         _______ _______ _______ _____ _____    ______ ____
ROOT
ATOM      1  O   UNL     1      32.305 -22.477 -12.187  0.00  0.00    -0.275 OA
ATOM      2  O   UNL     1      34.741 -25.274 -14.949  0.00  0.00    -0.275 OA
ATOM      3  N   UNL     1      30.988 -23.182 -16.282  0.00  0.00    +0.393 N 
ATOM      4  N   UNL     1      33.805 -23.835 -13.360  0.00  0.00    -0.226 N 
ATOM      5  C   UNL     1      30.882 -22.755 -14.874  0.00  0.00    -0.048 C 
ATOM      6  C   UNL     1      31.573 -23.836 -14.047  0.00  0.00    +0.065 C 
ATOM      7  C   UNL     1      32.401 -24.663 -15.030  0.00  0.00    +0.069 C 
ATOM      8  C   UNL     1      32.188 -24.034 -16.415  0.00  0.00    -0.025 C 
ATOM      9  C   UNL     1      29.383 -22.620 -14.596  0.00  0.00    -0.022 C 
ATOM     10  C   UNL     1      29.741 -23.896 -16.582  0.00  0.00    -0.077 C 
ATOM     11  C   UNL     1      28.704 -23.033 -15.893  0.00  0.00    -0.025 C 
ATOM     12  C   UNL     1      32.577 -23.278 -13.070  0.00  0.00    +0.230 C 
ATOM     13  C   UNL     1      33.801 -24.657 -14.467  0.00  0.00    +0.230 C 
ATOM     14  H   UNL     1      31.097 -22.411 -16.941  0.00  0.00    -0.079 HD
ENDROOT
BRANCH   8  15
ATOM     15  C   UNL     1      33.358 -23.274 -17.022  0.00  0.00    -0.041 C 
ATOM     16  C   UNL     1      33.259 -22.752 -18.313  0.00  0.00    -0.006 C 
ATOM     17  C   UNL     1      34.534 -23.097 -16.290  0.00  0.00    -0.006 C 
ATOM     18  C   UNL     1      34.332 -22.056 -18.870  0.00  0.00    +0.002 C 
ATOM     19  C   UNL     1      35.607 -22.401 -16.848  0.00  0.00    +0.002 C 
ATOM     20  C   UNL     1      35.505 -21.881 -18.137  0.00  0.00    +0.029 C 
BRANCH  20  23
ATOM     21  N   UNL     1      36.910 -21.288 -20.020  0.00  0.00    -0.345 N 
ATOM     22  N   UNL     1      37.376 -20.354 -17.952  0.00  0.00    -0.387 N 
ATOM     23  C   UNL     1      36.618 -21.160 -18.715  0.00  0.00    +0.095 C 
ATOM     24  H   UNL     1      37.669 -20.794 -20.405  0.00  0.00    +0.144 HD
ATOM     25  H   UNL     1      36.365 -21.876 -20.591  0.00  0.00    +0.144 HD
ATOM     26  H   UNL     1      38.132 -19.866 -18.351  0.00  0.00    +0.157 HD
ATOM     27  H   UNL     1      37.175 -20.251 -16.993  0.00  0.00    +0.157 HD
ENDBRANCH  20  23
ENDBRANCH   8  15
BRANCH   4  28
ATOM     28  C   UNL     1      35.008 -23.553 -12.601  0.00  0.00    +0.127 C 
BRANCH  28  30
ATOM     29  F   UNL     1      39.452 -26.369 -14.579  0.00  0.00    -0.204 F 
ATOM     30  C   UNL     1      36.195 -24.306 -13.129  0.00  0.00    -0.002 C 
ATOM     31  C   UNL     1      36.444 -25.598 -12.682  0.00  0.00    -0.000 C 
ATOM     32  C   UNL     1      37.032 -23.703 -14.059  0.00  0.00    -0.000 C 
ATOM     33  C   UNL     1      37.547 -26.297 -13.172  0.00  0.00    +0.029 C 
ATOM     34  C   UNL     1      38.134 -24.401 -14.550  0.00  0.00    +0.029 C 
ATOM     35  C   UNL     1      38.392 -25.698 -14.106  0.00  0.00    +0.140 C 
ENDBRANCH  28  30
ENDBRANCH   4  28
TORSDOF 4
ENDMDL
MODEL 4
REMARK VINA RESULT:      -5.7      3.308      6.591
REMARK  Name = 5288257
REMARK  4 active torsions:
REMARK  status: ('A' for Active; 'I' for Inactive)
REMARK    1  A    between atoms: N_4  and  C_28
REMARK    2  A    between atoms: C_8  and  C_15
REMARK    3  A    between atoms: C_20  and  C_23
REMARK    4  A    between atoms: C_28  and  C_30
REMARK                            x       y       z     vdW  Elec       q    Type
REMARK                         _______ _______ _______ _____ _____    ______ ____
ROOT
ATOM      1  O   UNL     1      34.318 -22.909 -12.167  0.00  0.00    -0.275 OA
ATOM      2  O   UNL     1      36.188 -25.080 -15.797  0.00  0.00    -0.275 OA
ATOM      3  N   UNL     1      31.838 -23.947 -15.599  0.00  0.00    +0.393 N 
ATOM      4  N   UNL     1      35.573 -23.886 -13.881  0.00  0.00    -0.226 N 
ATOM      5  C   UNL     1      32.142 -23.542 -14.212  0.00  0.00    -0.048 C 
ATOM      6  C   UNL     1      33.303 -24.421 -13.756  0.00  0.00    +0.065 C 
ATOM      7  C   UNL     1      33.896 -25.039 -15.022  0.00  0.00    +0.069 C 
ATOM      8  C   UNL     1      33.073 -24.492 -16.199  0.00  0.00    -0.025 C 
ATOM      9  C   UNL     1      30.847 -23.762 -13.427  0.00  0.00    -0.022 C 
ATOM     10  C   UNL     1      30.760 -24.938 -15.503  0.00  0.00    -0.077 C 
ATOM     11  C   UNL     1      29.867 -24.337 -14.438  0.00  0.00    -0.025 C 
ATOM     12  C   UNL     1      34.435 -23.633 -13.146  0.00  0.00    +0.230 C 
ATOM     13  C   UNL     1      35.364 -24.697 -14.977  0.00  0.00    +0.230 C 
ATOM     14  H   UNL     1      31.532 -23.178 -16.196  0.00  0.00    -0.079 HD
ENDROOT
BRANCH   8  15
ATOM     15  C   UNL     1      33.753 -23.483 -17.114  0.00  0.00    -0.041 C 
ATOM     16  C   UNL     1      33.156 -23.123 -18.324  0.00  0.00    -0.006 C 
ATOM     17  C   UNL     1      34.974 -22.916 -16.746  0.00  0.00    -0.006 C 
ATOM     18  C   UNL     1      33.779 -22.200 -19.163  0.00  0.00    +0.002 C 
ATOM     19  C   UNL     1      35.597 -21.993 -17.586  0.00  0.00    +0.002 C 
ATOM     20  C   UNL     1      34.999 -21.635 -18.794  0.00  0.00    +0.029 C 
BRANCH  20  23
ATOM     21  N   UNL     1      34.976 -20.128 -20.691  0.00  0.00    -0.345 N 
ATOM     22  N   UNL     1      36.926 -20.325 -19.456  0.00  0.00    -0.387 N 
ATOM     23  C   UNL     1      35.645 -20.677 -19.664  0.00  0.00    +0.095 C 
ATOM     24  H   UNL     1      35.423 -19.478 -21.279  0.00  0.00    +0.144 HD
ATOM     25  H   UNL     1      34.038 -20.378 -20.856  0.00  0.00    +0.144 HD
ATOM     26  H   UNL     1      37.360 -19.673 -20.053  0.00  0.00    +0.157 HD
ATOM     27  H   UNL     1      37.430 -20.720 -18.708  0.00  0.00    +0.157 HD
ENDBRANCH  20  23
ENDBRANCH   8  15
BRANCH   4  28
ATOM     28  C   UNL     1      36.870 -23.321 -13.564  0.00  0.00    +0.127 C 
BRANCH  28  30
ATOM     29  F   UNL     1      41.051 -26.927 -14.614  0.00  0.00    -0.204 F 
ATOM     30  C   UNL     1      37.987 -24.284 -13.846  0.00  0.00    -0.002 C 
ATOM     31  C   UNL     1      38.771 -24.115 -14.980  0.00  0.00    -0.000 C 
ATOM     32  C   UNL     1      38.225 -25.334 -12.968  0.00  0.00    -0.000 C 
ATOM     33  C   UNL     1      39.809 -25.011 -15.241  0.00  0.00    +0.029 C 
ATOM     34  C   UNL     1      39.262 -26.229 -13.228  0.00  0.00    +0.029 C 
ATOM     35  C   UNL     1      40.054 -26.067 -14.364  0.00  0.00    +0.140 C 
ENDBRANCH  28  30
ENDBRANCH   4  28
TORSDOF 4
ENDMDL
