MODEL 1
REMARK VINA RESULT:      -3.7      0.000      0.000
REMARK  Name = 448524
REMARK  5 active torsions:
REMARK  status: ('A' for Active; 'I' for Inactive)
REMARK    1  A    between atoms: C_1  and  C_2
REMARK    2  A    between atoms: C_1  and  C_6
REMARK    3  A    between atoms: C_2  and  C_3
REMARK    4  A    between atoms: C_3  and  O_4
REMARK    5  A    between atoms: C_6  and  N_7
REMARK                            x       y       z     vdW  Elec       q    Type
REMARK                         _______ _______ _______ _____ _____    ______ ____
ROOT
ATOM      1  C   UNL     1      32.898 -20.250 -20.412  0.00  0.00    -0.021 C 
ENDROOT
BRANCH   1   2
ATOM      2  C   UNL     1      33.865 -19.386 -21.217  0.00  0.00    +0.030 C 
BRANCH   2   3
ATOM      3  C   UNL     1      35.312 -19.803 -20.992  0.00  0.00    +0.137 C 
BRANCH   3   4
ATOM      4  O   UNL     1      36.069 -18.657 -20.626  0.00  0.00    -0.382 OA
ATOM      5  H   UNL     1      37.013 -18.879 -20.628  0.00  0.00    +0.210 HD
ENDBRANCH   3   4
ENDBRANCH   2   3
ENDBRANCH   1   2
BRANCH   1   6
ATOM      6  C   UNL     1      33.640 -21.345 -19.660  0.00  0.00    -0.086 C 
BRANCH   6   7
ATOM      7  N   UNL     1      32.694 -22.036 -18.751  0.00  0.00    +0.380 N 
ATOM      8  H   UNL     1      32.512 -22.977 -19.101  0.00  0.00    -0.089 HD
ATOM      9  H   UNL     1      31.818 -21.514 -18.710  0.00  0.00    -0.089 HD
ATOM     10  H   UNL     1      33.100 -22.093 -17.817  0.00  0.00    -0.089 HD
ENDBRANCH   6   7
ENDBRANCH   1   6
TORSDOF 5
ENDMDL
MODEL 2
REMARK VINA RESULT:      -3.7      2.970      3.451
REMARK  Name = 448524
REMARK  5 active torsions:
REMARK  status: ('A' for Active; 'I' for Inactive)
REMARK    1  A    between atoms: C_1  and  C_2
REMARK    2  A    between atoms: C_1  and  C_6
REMARK    3  A    between atoms: C_2  and  C_3
REMARK    4  A    between atoms: C_3  and  O_4
REMARK    5  A    between atoms: C_6  and  N_7
REMARK                            x       y       z     vdW  Elec       q    Type
REMARK                         _______ _______ _______ _____ _____    ______ ____
ROOT
ATOM      1  C   UNL     1      33.793 -19.414 -21.164  0.00  0.00    -0.021 C 
ENDROOT
BRANCH   1   2
ATOM      2  C   UNL     1      32.878 -20.269 -20.292  0.00  0.00    +0.030 C 
BRANCH   2   3
ATOM      3  C   UNL     1      33.642 -21.395 -19.609  0.00  0.00    +0.137 C 
BRANCH   3   4
ATOM      4  O   UNL     1      32.725 -22.193 -18.873  0.00  0.00    -0.382 OA
ATOM      5  H   UNL     1      33.201 -22.921 -18.445  0.00  0.00    +0.210 HD
ENDBRANCH   3   4
ENDBRANCH   2   3
ENDBRANCH   1   2
BRANCH   1   6
ATOM      6  C   UNL     1      35.239 -19.876 -21.056  0.00  0.00    -0.086 C 
BRANCH   6   7
ATOM      7  N   UNL     1      36.088 -18.725 -20.664  0.00  0.00    +0.380 N 
ATOM      8  H   UNL     1      35.825 -18.412 -19.729  0.00  0.00    -0.089 HD
ATOM      9  H   UNL     1      35.954 -17.962 -21.328  0.00  0.00    -0.089 HD
ATOM     10  H   UNL     1      37.067 -19.009 -20.664  0.00  0.00    -0.089 HD
ENDBRANCH   6   7
ENDBRANCH   1   6
TORSDOF 5
ENDMDL
MODEL 3
REMARK VINA RESULT:      -3.7     10.324     10.779
REMARK  Name = 448524
REMARK  5 active torsions:
REMARK  status: ('A' for Active; 'I' for Inactive)
REMARK    1  A    between atoms: C_1  and  C_2
REMARK    2  A    between atoms: C_1  and  C_6
REMARK    3  A    between atoms: C_2  and  C_3
REMARK    4  A    between atoms: C_3  and  O_4
REMARK    5  A    between atoms: C_6  and  N_7
REMARK                            x       y       z     vdW  Elec       q    Type
REMARK                         _______ _______ _______ _____ _____    ______ ____
ROOT
ATOM      1  C   UNL     1      41.270 -14.371 -17.447  0.00  0.00    -0.021 C 
ENDROOT
BRANCH   1   2
ATOM      2  C   UNL     1      41.931 -15.365 -16.496  0.00  0.00    +0.030 C 
BRANCH   2   3
ATOM      3  C   UNL     1      40.949 -15.889 -15.457  0.00  0.00    +0.137 C 
BRANCH   3   4
ATOM      4  O   UNL     1      40.534 -14.810 -14.630  0.00  0.00    -0.382 OA
ATOM      5  H   UNL     1      41.312 -14.397 -14.224  0.00  0.00    +0.210 HD
ENDBRANCH   3   4
ENDBRANCH   2   3
ENDBRANCH   1   2
BRANCH   1   6
ATOM      6  C   UNL     1      42.031 -13.055 -17.479  0.00  0.00    -0.086 C 
BRANCH   6   7
ATOM      7  N   UNL     1      42.268 -12.596 -16.090  0.00  0.00    +0.380 N 
ATOM      8  H   UNL     1      41.432 -12.766 -15.529  0.00  0.00    -0.089 HD
ATOM      9  H   UNL     1      42.477 -11.597 -16.092  0.00  0.00    -0.089 HD
ATOM     10  H   UNL     1      43.055 -13.108 -15.691  0.00  0.00    -0.089 HD
ENDBRANCH   6   7
ENDBRANCH   1   6
TORSDOF 5
ENDMDL
MODEL 4
REMARK VINA RESULT:      -3.6      3.483      3.932
REMARK  Name = 448524
REMARK  5 active torsions:
REMARK  status: ('A' for Active; 'I' for Inactive)
REMARK    1  A    between atoms: C_1  and  C_2
REMARK    2  A    between atoms: C_1  and  C_6
REMARK    3  A    between atoms: C_2  and  C_3
REMARK    4  A    between atoms: C_3  and  O_4
REMARK    5  A    between atoms: C_6  and  N_7
REMARK                            x       y       z     vdW  Elec       q    Type
REMARK                         _______ _______ _______ _____ _____    ______ ____
ROOT
ATOM      1  C   UNL     1      34.558 -19.047 -22.516  0.00  0.00    -0.021 C 
ENDROOT
BRANCH   1   2
ATOM      2  C   UNL     1      35.271 -18.630 -23.799  0.00  0.00    +0.030 C 
BRANCH   2   3
ATOM      3  C   UNL     1      34.855 -17.236 -24.248  0.00  0.00    +0.137 C 
BRANCH   3   4
ATOM      4  O   UNL     1      35.686 -16.279 -23.606  0.00  0.00    -0.382 OA
ATOM      5  H   UNL     1      36.264 -16.727 -22.970  0.00  0.00    +0.210 HD
ENDBRANCH   3   4
ENDBRANCH   2   3
ENDBRANCH   1   2
BRANCH   1   6
ATOM      6  C   UNL     1      35.490 -18.957 -21.318  0.00  0.00    -0.086 C 
BRANCH   6   7
ATOM      7  N   UNL     1      35.401 -17.597 -20.734  0.00  0.00    +0.380 N 
ATOM      8  H   UNL     1      35.160 -16.928 -21.466  0.00  0.00    -0.089 HD
ATOM      9  H   UNL     1      36.301 -17.342 -20.326  0.00  0.00    -0.089 HD
ATOM     10  H   UNL     1      34.682 -17.583 -20.010  0.00  0.00    -0.089 HD
ENDBRANCH   6   7
ENDBRANCH   1   6
TORSDOF 5
ENDMDL
MODEL 5
REMARK VINA RESULT:      -3.6      9.637      9.806
REMARK  Name = 448524
REMARK  5 active torsions:
REMARK  status: ('A' for Active; 'I' for Inactive)
REMARK    1  A    between atoms: C_1  and  C_2
REMARK    2  A    between atoms: C_1  and  C_6
REMARK    3  A    between atoms: C_2  and  C_3
REMARK    4  A    between atoms: C_3  and  O_4
REMARK    5  A    between atoms: C_6  and  N_7
REMARK                            x       y       z     vdW  Elec       q    Type
REMARK                         _______ _______ _______ _____ _____    ______ ____
ROOT
ATOM      1  C   UNL     1      41.635 -15.102 -18.110  0.00  0.00    -0.021 C 
ENDROOT
BRANCH   1   2
ATOM      2  C   UNL     1      41.286 -14.685 -16.684  0.00  0.00    +0.030 C 
BRANCH   2   3
ATOM      3  C   UNL     1      41.339 -15.866 -15.724  0.00  0.00    +0.137 C 
BRANCH   3   4
ATOM      4  O   UNL     1      40.070 -16.009 -15.100  0.00  0.00    -0.382 OA
ATOM      5  H   UNL     1      40.115 -15.664 -14.195  0.00  0.00    +0.210 HD
ENDBRANCH   3   4
ENDBRANCH   2   3
ENDBRANCH   1   2
BRANCH   1   6
ATOM      6  C   UNL     1      42.357 -16.440 -18.127  0.00  0.00    -0.086 C 
BRANCH   6   7
ATOM      7  N   UNL     1      42.985 -16.636 -19.456  0.00  0.00    +0.380 N 
ATOM      8  H   UNL     1      43.937 -16.985 -19.334  0.00  0.00    -0.089 HD
ATOM      9  H   UNL     1      43.012 -15.746 -19.954  0.00  0.00    -0.089 HD
ATOM     10  H   UNL     1      42.442 -17.311 -19.994  0.00  0.00    -0.089 HD
ENDBRANCH   6   7
ENDBRANCH   1   6
TORSDOF 5
ENDMDL
MODEL 6
REMARK VINA RESULT:      -3.6      9.017      9.613
REMARK  Name = 448524
REMARK  5 active torsions:
REMARK  status: ('A' for Active; 'I' for Inactive)
REMARK    1  A    between atoms: C_1  and  C_2
REMARK    2  A    between atoms: C_1  and  C_6
REMARK    3  A    between atoms: C_2  and  C_3
REMARK    4  A    between atoms: C_3  and  O_4
REMARK    5  A    between atoms: C_6  and  N_7
REMARK                            x       y       z     vdW  Elec       q    Type
REMARK                         _______ _______ _______ _____ _____    ______ ____
ROOT
ATOM      1  C   UNL     1      37.796 -25.908 -13.558  0.00  0.00    -0.021 C 
ENDROOT
BRANCH   1   2
ATOM      2  C   UNL     1      39.255 -25.471 -13.463  0.00  0.00    +0.030 C 
BRANCH   2   3
ATOM      3  C   UNL     1      39.981 -25.642 -14.790  0.00  0.00    +0.137 C 
BRANCH   3   4
ATOM      4  O   UNL     1      40.975 -26.647 -14.645  0.00  0.00    -0.382 OA
ATOM      5  H   UNL     1      41.452 -26.512 -13.811  0.00  0.00    +0.210 HD
ENDBRANCH   3   4
ENDBRANCH   2   3
ENDBRANCH   1   2
BRANCH   1   6
ATOM      6  C   UNL     1      37.360 -26.050 -15.009  0.00  0.00    -0.086 C 
BRANCH   6   7
ATOM      7  N   UNL     1      36.174 -26.936 -15.076  0.00  0.00    +0.380 N 
ATOM      8  H   UNL     1      36.414 -27.854 -14.702  0.00  0.00    -0.089 HD
ATOM      9  H   UNL     1      35.876 -27.032 -16.047  0.00  0.00    -0.089 HD
ATOM     10  H   UNL     1      35.416 -26.532 -14.525  0.00  0.00    -0.089 HD
ENDBRANCH   6   7
ENDBRANCH   1   6
TORSDOF 5
ENDMDL
MODEL 7
REMARK VINA RESULT:      -3.6      7.733      8.048
REMARK  Name = 448524
REMARK  5 active torsions:
REMARK  status: ('A' for Active; 'I' for Inactive)
REMARK    1  A    between atoms: C_1  and  C_2
REMARK    2  A    between atoms: C_1  and  C_6
REMARK    3  A    between atoms: C_2  and  C_3
REMARK    4  A    between atoms: C_3  and  O_4
REMARK    5  A    between atoms: C_6  and  N_7
REMARK                            x       y       z     vdW  Elec       q    Type
REMARK                         _______ _______ _______ _____ _____    ______ ____
ROOT
ATOM      1  C   UNL     1      30.029 -23.536 -15.730  0.00  0.00    -0.021 C 
ENDROOT
BRANCH   1   2
ATOM      2  C   UNL     1      28.736 -22.728 -15.748  0.00  0.00    +0.030 C 
BRANCH   2   3
ATOM      3  C   UNL     1      27.989 -22.888 -17.065  0.00  0.00    +0.137 C 
BRANCH   3   4
ATOM      4  O   UNL     1      27.844 -24.273 -17.346  0.00  0.00    -0.382 OA
ATOM      5  H   UNL     1      27.398 -24.709 -16.604  0.00  0.00    +0.210 HD
ENDBRANCH   3   4
ENDBRANCH   2   3
ENDBRANCH   1   2
BRANCH   1   6
ATOM      6  C   UNL     1      30.095 -24.436 -14.505  0.00  0.00    -0.086 C 
BRANCH   6   7
ATOM      7  N   UNL     1      28.940 -25.366 -14.523  0.00  0.00    +0.380 N 
ATOM      8  H   UNL     1      29.078 -26.065 -15.253  0.00  0.00    -0.089 HD
ATOM      9  H   UNL     1      28.085 -24.842 -14.711  0.00  0.00    -0.089 HD
ATOM     10  H   UNL     1      28.864 -25.831 -13.618  0.00  0.00    -0.089 HD
ENDBRANCH   6   7
ENDBRANCH   1   6
TORSDOF 5
ENDMDL
MODEL 8
REMARK VINA RESULT:      -3.6      1.291      1.426
REMARK  Name = 448524
REMARK  5 active torsions:
REMARK  status: ('A' for Active; 'I' for Inactive)
REMARK    1  A    between atoms: C_1  and  C_2
REMARK    2  A    between atoms: C_1  and  C_6
REMARK    3  A    between atoms: C_2  and  C_3
REMARK    4  A    between atoms: C_3  and  O_4
REMARK    5  A    between atoms: C_6  and  N_7
REMARK                            x       y       z     vdW  Elec       q    Type
REMARK                         _______ _______ _______ _____ _____    ______ ____
ROOT
ATOM      1  C   UNL     1      34.366 -20.120 -20.598  0.00  0.00    -0.021 C 
ENDROOT
BRANCH   1   2
ATOM      2  C   UNL     1      34.306 -18.841 -21.428  0.00  0.00    +0.030 C 
BRANCH   2   3
ATOM      3  C   UNL     1      35.570 -18.007 -21.270  0.00  0.00    +0.137 C 
BRANCH   3   4
ATOM      4  O   UNL     1      35.274 -16.869 -20.473  0.00  0.00    -0.382 OA
ATOM      5  H   UNL     1      34.785 -16.221 -21.003  0.00  0.00    +0.210 HD
ENDBRANCH   3   4
ENDBRANCH   2   3
ENDBRANCH   1   2
BRANCH   1   6
ATOM      6  C   UNL     1      32.986 -20.501 -20.082  0.00  0.00    -0.086 C 
BRANCH   6   7
ATOM      7  N   UNL     1      33.004 -21.918 -19.648  0.00  0.00    +0.380 N 
ATOM      8  H   UNL     1      33.274 -21.970 -18.665  0.00  0.00    -0.089 HD
ATOM      9  H   UNL     1      33.677 -22.438 -20.212  0.00  0.00    -0.089 HD
ATOM     10  H   UNL     1      32.076 -22.323 -19.768  0.00  0.00    -0.089 HD
ENDBRANCH   6   7
ENDBRANCH   1   6
TORSDOF 5
ENDMDL
MODEL 9
REMARK VINA RESULT:      -3.6      3.639      4.292
REMARK  Name = 448524
REMARK  5 active torsions:
REMARK  status: ('A' for Active; 'I' for Inactive)
REMARK    1  A    between atoms: C_1  and  C_2
REMARK    2  A    between atoms: C_1  and  C_6
REMARK    3  A    between atoms: C_2  and  C_3
REMARK    4  A    between atoms: C_3  and  O_4
REMARK    5  A    between atoms: C_6  and  N_7
REMARK                            x       y       z     vdW  Elec       q    Type
REMARK                         _______ _______ _______ _____ _____    ______ ____
ROOT
ATOM      1  C   UNL     1      35.033 -19.177 -23.585  0.00  0.00    -0.021 C 
ENDROOT
BRANCH   1   2
ATOM      2  C   UNL     1      34.327 -19.236 -22.234  0.00  0.00    +0.030 C 
BRANCH   2   3
ATOM      3  C   UNL     1      35.312 -19.450 -21.093  0.00  0.00    +0.137 C 
BRANCH   3   4
ATOM      4  O   UNL     1      35.781 -18.186 -20.646  0.00  0.00    -0.382 OA
ATOM      5  H   UNL     1      35.494 -17.497 -21.265  0.00  0.00    +0.210 HD
ENDBRANCH   3   4
ENDBRANCH   2   3
ENDBRANCH   1   2
BRANCH   1   6
ATOM      6  C   UNL     1      34.857 -17.813 -24.236  0.00  0.00    -0.086 C 
BRANCH   6   7
ATOM      7  N   UNL     1      35.622 -16.804 -23.464  0.00  0.00    +0.380 N 
ATOM      8  H   UNL     1      35.676 -17.093 -22.487  0.00  0.00    -0.089 HD
ATOM      9  H   UNL     1      35.151 -15.901 -23.525  0.00  0.00    -0.089 HD
ATOM     10  H   UNL     1      36.563 -16.724 -23.848  0.00  0.00    -0.089 HD
ENDBRANCH   6   7
ENDBRANCH   1   6
TORSDOF 5
ENDMDL
