MODEL 1
REMARK VINA RESULT:     -10.6      0.000      0.000
REMARK  Name = 5288173
REMARK  6 active torsions:
REMARK  status: ('A' for Active; 'I' for Inactive)
REMARK    1  A    between atoms: C_1  and  C_5
REMARK    2  A    between atoms: C_3  and  C_15
REMARK    3  A    between atoms: C_4  and  C_9
REMARK    4  A    between atoms: C_16  and  C_17
REMARK    5  A    between atoms: C_18  and  C_22
REMARK    6  A    between atoms: N_21  and  C_24
REMARK                            x       y       z     vdW  Elec       q    Type
REMARK                         _______ _______ _______ _____ _____    ______ ____
ROOT
ATOM      1  C   UNL     1      34.348 -20.457 -20.163  0.00  0.00    -0.022 C 
ATOM      2  C   UNL     1      33.108 -21.111 -19.601  0.00  0.00    +0.031 C 
ATOM      3  C   UNL     1      35.554 -20.865 -19.712  0.00  0.00    -0.004 C 
ENDROOT
BRANCH   1   5
ATOM      4  C   UNL     1      34.562 -18.136 -21.079  0.00  0.00    -0.005 C 
ATOM      5  C   UNL     1      34.161 -19.413 -21.173  0.00  0.00    -0.005 C 
BRANCH   4   9
ATOM      6  C   UNL     1      33.665 -15.836 -21.675  0.00  0.00    +0.018 C 
ATOM      7  C   UNL     1      33.206 -14.983 -22.890  0.00  0.00    +0.004 C 
ATOM      8  C   UNL     1      34.263 -14.918 -23.979  0.00  0.00    +0.005 C 
ATOM      9  C   UNL     1      34.339 -17.153 -22.127  0.00  0.00    -0.031 C 
ATOM     10  C   UNL     1      34.569 -16.316 -24.493  0.00  0.00    +0.022 C 
ATOM     11  C   UNL     1      34.720 -17.368 -23.411  0.00  0.00    -0.048 C 
ATOM     12  C   UNL     1      32.394 -16.092 -20.830  0.00  0.00    +0.004 C 
ATOM     13  C   UNL     1      34.661 -15.010 -20.829  0.00  0.00    +0.004 C 
ATOM     14  C   UNL     1      35.333 -18.639 -23.950  0.00  0.00    +0.026 C 
ENDBRANCH   4   9
ENDBRANCH   1   5
BRANCH   3  15
ATOM     15  C   UNL     1      35.847 -21.883 -18.721  0.00  0.00    -0.001 C 
ATOM     16  C   UNL     1      36.157 -21.587 -17.448  0.00  0.00    -0.004 C 
BRANCH  16  17
ATOM     17  C   UNL     1      36.485 -22.578 -16.436  0.00  0.00    -0.017 C 
ATOM     18  C   UNL     1      37.700 -22.787 -15.893  0.00  0.00    +0.053 C 
ATOM     19  C   UNL     1      35.307 -23.418 -16.014  0.00  0.00    +0.031 C 
BRANCH  18  22
ATOM     20  O   UNL     1      37.838 -23.620 -13.656  0.00  0.00    -0.270 OA
ATOM     21  N   UNL     1      38.564 -24.953 -15.415  0.00  0.00    -0.301 N 
ATOM     22  C   UNL     1      38.024 -23.809 -14.853  0.00  0.00    +0.246 C 
ATOM     23  H   UNL     1      38.667 -24.993 -16.393  0.00  0.00    +0.150 HD
BRANCH  21  24
ATOM     24  C   UNL     1      38.984 -26.093 -14.631  0.00  0.00    +0.090 C 
ATOM     25  C   UNL     1      40.473 -26.058 -14.357  0.00  0.00    +0.023 C 
ENDBRANCH  21  24
ENDBRANCH  18  22
ENDBRANCH  16  17
ENDBRANCH   3  15
TORSDOF 6
ENDMDL
MODEL 2
REMARK VINA RESULT:     -10.4      1.400      1.651
REMARK  Name = 5288173
REMARK  6 active torsions:
REMARK  status: ('A' for Active; 'I' for Inactive)
REMARK    1  A    between atoms: C_1  and  C_5
REMARK    2  A    between atoms: C_3  and  C_15
REMARK    3  A    between atoms: C_4  and  C_9
REMARK    4  A    between atoms: C_16  and  C_17
REMARK    5  A    between atoms: C_18  and  C_22
REMARK    6  A    between atoms: N_21  and  C_24
REMARK                            x       y       z     vdW  Elec       q    Type
REMARK                         _______ _______ _______ _____ _____    ______ ____
ROOT
ATOM      1  C   UNL     1      34.297 -20.364 -20.221  0.00  0.00    -0.022 C 
ATOM      2  C   UNL     1      33.063 -21.061 -19.698  0.00  0.00    +0.031 C 
ATOM      3  C   UNL     1      35.506 -20.779 -19.783  0.00  0.00    -0.004 C 
ENDROOT
BRANCH   1   5
ATOM      4  C   UNL     1      34.539 -18.014 -21.051  0.00  0.00    -0.005 C 
ATOM      5  C   UNL     1      34.102 -19.277 -21.181  0.00  0.00    -0.005 C 
BRANCH   4   9
ATOM      6  C   UNL     1      33.609 -15.701 -21.536  0.00  0.00    +0.018 C 
ATOM      7  C   UNL     1      33.142 -14.796 -22.710  0.00  0.00    +0.004 C 
ATOM      8  C   UNL     1      34.202 -14.662 -23.789  0.00  0.00    +0.005 C 
ATOM      9  C   UNL     1      34.305 -16.984 -22.049  0.00  0.00    -0.031 C 
ATOM     10  C   UNL     1      34.531 -16.027 -24.370  0.00  0.00    +0.022 C 
ATOM     11  C   UNL     1      34.695 -17.129 -23.341  0.00  0.00    -0.048 C 
ATOM     12  C   UNL     1      32.339 -16.018 -20.711  0.00  0.00    +0.004 C 
ATOM     13  C   UNL     1      34.588 -14.903 -20.645  0.00  0.00    +0.004 C 
ATOM     14  C   UNL     1      35.329 -18.363 -23.939  0.00  0.00    +0.026 C 
ENDBRANCH   4   9
ENDBRANCH   1   5
BRANCH   3  15
ATOM     15  C   UNL     1      35.807 -21.839 -18.841  0.00  0.00    -0.001 C 
ATOM     16  C   UNL     1      36.125 -21.599 -17.558  0.00  0.00    -0.004 C 
BRANCH  16  17
ATOM     17  C   UNL     1      36.462 -22.634 -16.593  0.00  0.00    -0.017 C 
ATOM     18  C   UNL     1      35.607 -23.522 -16.050  0.00  0.00    +0.053 C 
ATOM     19  C   UNL     1      37.918 -22.642 -16.204  0.00  0.00    +0.031 C 
BRANCH  18  22
ATOM     20  O   UNL     1      36.260 -25.725 -15.385  0.00  0.00    -0.270 OA
ATOM     21  N   UNL     1      35.900 -24.105 -13.760  0.00  0.00    -0.301 N 
ATOM     22  C   UNL     1      35.965 -24.580 -15.058  0.00  0.00    +0.246 C 
ATOM     23  H   UNL     1      35.650 -23.163 -13.616  0.00  0.00    +0.150 HD
BRANCH  21  24
ATOM     24  C   UNL     1      36.181 -24.927 -12.604  0.00  0.00    +0.090 C 
ATOM     25  C   UNL     1      37.657 -24.914 -12.261  0.00  0.00    +0.023 C 
ENDBRANCH  21  24
ENDBRANCH  18  22
ENDBRANCH  16  17
ENDBRANCH   3  15
TORSDOF 6
ENDMDL
MODEL 3
REMARK VINA RESULT:      -9.9      6.266      9.766
REMARK  Name = 5288173
REMARK  6 active torsions:
REMARK  status: ('A' for Active; 'I' for Inactive)
REMARK    1  A    between atoms: C_1  and  C_5
REMARK    2  A    between atoms: C_3  and  C_15
REMARK    3  A    between atoms: C_4  and  C_9
REMARK    4  A    between atoms: C_16  and  C_17
REMARK    5  A    between atoms: C_18  and  C_22
REMARK    6  A    between atoms: N_21  and  C_24
REMARK                            x       y       z     vdW  Elec       q    Type
REMARK                         _______ _______ _______ _____ _____    ______ ____
ROOT
ATOM      1  C   UNL     1      32.816 -11.448 -23.185  0.00  0.00    -0.022 C 
ATOM      2  C   UNL     1      33.815 -11.564 -24.312  0.00  0.00    +0.031 C 
ATOM      3  C   UNL     1      32.464 -12.569 -22.517  0.00  0.00    -0.004 C 
ENDROOT
BRANCH   1   5
ATOM      4  C   UNL     1      33.007  -8.988 -22.759  0.00  0.00    -0.005 C 
ATOM      5  C   UNL     1      32.290 -10.116 -22.884  0.00  0.00    -0.005 C 
BRANCH   4   9
ATOM      6  C   UNL     1      32.187  -6.764 -23.671  0.00  0.00    +0.018 C 
ATOM      7  C   UNL     1      31.830  -5.320 -23.224  0.00  0.00    +0.004 C 
ATOM      8  C   UNL     1      30.810  -5.302 -22.099  0.00  0.00    +0.005 C 
ATOM      9  C   UNL     1      32.412  -7.696 -22.458  0.00  0.00    -0.031 C 
ATOM     10  C   UNL     1      31.359  -6.033 -20.884  0.00  0.00    +0.022 C 
ATOM     11  C   UNL     1      32.056  -7.343 -21.197  0.00  0.00    -0.048 C 
ATOM     12  C   UNL     1      33.455  -6.637 -24.551  0.00  0.00    +0.004 C 
ATOM     13  C   UNL     1      31.037  -7.318 -24.543  0.00  0.00    +0.004 C 
ATOM     14  C   UNL     1      32.287  -8.164 -19.950  0.00  0.00    +0.026 C 
ENDBRANCH   4   9
ENDBRANCH   1   5
BRANCH   3  15
ATOM     15  C   UNL     1      32.924 -13.927 -22.734  0.00  0.00    -0.001 C 
ATOM     16  C   UNL     1      33.847 -14.513 -21.953  0.00  0.00    -0.004 C 
BRANCH  16  17
ATOM     17  C   UNL     1      34.353 -15.861 -22.157  0.00  0.00    -0.017 C 
ATOM     18  C   UNL     1      34.288 -16.876 -21.274  0.00  0.00    +0.053 C 
ATOM     19  C   UNL     1      35.007 -16.060 -23.500  0.00  0.00    +0.031 C 
BRANCH  18  22
ATOM     20  O   UNL     1      34.318 -19.033 -22.307  0.00  0.00    -0.270 OA
ATOM     21  N   UNL     1      35.887 -18.532 -20.669  0.00  0.00    -0.301 N 
ATOM     22  C   UNL     1      34.812 -18.257 -21.496  0.00  0.00    +0.246 C 
ATOM     23  H   UNL     1      36.200 -17.830 -20.053  0.00  0.00    +0.150 HD
BRANCH  21  24
ATOM     24  C   UNL     1      36.573 -19.805 -20.665  0.00  0.00    +0.090 C 
ATOM     25  C   UNL     1      35.796 -20.851 -19.891  0.00  0.00    +0.023 C 
ENDBRANCH  21  24
ENDBRANCH  18  22
ENDBRANCH  16  17
ENDBRANCH   3  15
TORSDOF 6
ENDMDL
MODEL 4
REMARK VINA RESULT:      -9.6      0.547      2.085
REMARK  Name = 5288173
REMARK  6 active torsions:
REMARK  status: ('A' for Active; 'I' for Inactive)
REMARK    1  A    between atoms: C_1  and  C_5
REMARK    2  A    between atoms: C_3  and  C_15
REMARK    3  A    between atoms: C_4  and  C_9
REMARK    4  A    between atoms: C_16  and  C_17
REMARK    5  A    between atoms: C_18  and  C_22
REMARK    6  A    between atoms: N_21  and  C_24
REMARK                            x       y       z     vdW  Elec       q    Type
REMARK                         _______ _______ _______ _____ _____    ______ ____
ROOT
ATOM      1  C   UNL     1      34.316 -20.457 -20.185  0.00  0.00    -0.022 C 
ATOM      2  C   UNL     1      33.033 -21.030 -19.628  0.00  0.00    +0.031 C 
ATOM      3  C   UNL     1      35.490 -20.905 -19.691  0.00  0.00    -0.004 C 
ENDROOT
BRANCH   1   5
ATOM      4  C   UNL     1      34.469 -18.136 -21.112  0.00  0.00    -0.005 C 
ATOM      5  C   UNL     1      34.201 -19.446 -21.236  0.00  0.00    -0.005 C 
BRANCH   4   9
ATOM      6  C   UNL     1      35.025 -17.586 -23.527  0.00  0.00    +0.018 C 
ATOM      7  C   UNL     1      35.074 -16.397 -24.527  0.00  0.00    +0.004 C 
ATOM      8  C   UNL     1      33.753 -15.653 -24.600  0.00  0.00    +0.005 C 
ATOM      9  C   UNL     1      34.330 -17.188 -22.204  0.00  0.00    -0.031 C 
ATOM     10  C   UNL     1      33.397 -15.086 -23.235  0.00  0.00    +0.022 C 
ATOM     11  C   UNL     1      33.617 -16.040 -22.078  0.00  0.00    -0.048 C 
ATOM     12  C   UNL     1      36.496 -18.017 -23.306  0.00  0.00    +0.004 C 
ATOM     13  C   UNL     1      34.261 -18.760 -24.180  0.00  0.00    +0.004 C 
ATOM     14  C   UNL     1      32.954 -15.547 -20.813  0.00  0.00    +0.026 C 
ENDBRANCH   4   9
ENDBRANCH   1   5
BRANCH   3  15
ATOM     15  C   UNL     1      35.712 -21.898 -18.657  0.00  0.00    -0.001 C 
ATOM     16  C   UNL     1      36.282 -21.601 -17.478  0.00  0.00    -0.004 C 
BRANCH  16  17
ATOM     17  C   UNL     1      36.547 -22.574 -16.430  0.00  0.00    -0.017 C 
ATOM     18  C   UNL     1      37.748 -22.846 -15.884  0.00  0.00    +0.053 C 
ATOM     19  C   UNL     1      35.317 -23.314 -15.974  0.00  0.00    +0.031 C 
BRANCH  18  22
ATOM     20  O   UNL     1      37.713 -23.654 -13.633  0.00  0.00    -0.270 OA
ATOM     21  N   UNL     1      38.623 -24.983 -15.306  0.00  0.00    -0.301 N 
ATOM     22  C   UNL     1      38.007 -23.849 -14.808  0.00  0.00    +0.246 C 
ATOM     23  H   UNL     1      38.812 -25.030 -16.272  0.00  0.00    +0.150 HD
BRANCH  21  24
ATOM     24  C   UNL     1      39.003 -26.104 -14.476  0.00  0.00    +0.090 C 
ATOM     25  C   UNL     1      40.504 -26.164 -14.279  0.00  0.00    +0.023 C 
ENDBRANCH  21  24
ENDBRANCH  18  22
ENDBRANCH  16  17
ENDBRANCH   3  15
TORSDOF 6
ENDMDL
MODEL 5
REMARK VINA RESULT:      -9.5      8.379     13.853
REMARK  Name = 5288173
REMARK  6 active torsions:
REMARK  status: ('A' for Active; 'I' for Inactive)
REMARK    1  A    between atoms: C_1  and  C_5
REMARK    2  A    between atoms: C_3  and  C_15
REMARK    3  A    between atoms: C_4  and  C_9
REMARK    4  A    between atoms: C_16  and  C_17
REMARK    5  A    between atoms: C_18  and  C_22
REMARK    6  A    between atoms: N_21  and  C_24
REMARK                            x       y       z     vdW  Elec       q    Type
REMARK                         _______ _______ _______ _____ _____    ______ ____
ROOT
ATOM      1  C   UNL     1      33.635 -12.089 -23.986  0.00  0.00    -0.022 C 
ATOM      2  C   UNL     1      33.743 -11.753 -25.455  0.00  0.00    +0.031 C 
ATOM      3  C   UNL     1      33.087 -11.178 -23.154  0.00  0.00    -0.004 C 
ENDROOT
BRANCH   1   5
ATOM      4  C   UNL     1      33.401 -14.504 -23.366  0.00  0.00    -0.005 C 
ATOM      5  C   UNL     1      34.134 -13.396 -23.556  0.00  0.00    -0.005 C 
BRANCH   4   9
ATOM      6  C   UNL     1      33.976 -16.016 -21.409  0.00  0.00    +0.018 C 
ATOM      7  C   UNL     1      34.854 -17.241 -21.031  0.00  0.00    +0.004 C 
ATOM      8  C   UNL     1      34.616 -18.425 -21.952  0.00  0.00    +0.005 C 
ATOM      9  C   UNL     1      33.969 -15.771 -22.936  0.00  0.00    -0.031 C 
ATOM     10  C   UNL     1      34.954 -18.047 -23.385  0.00  0.00    +0.022 C 
ATOM     11  C   UNL     1      34.438 -16.689 -23.819  0.00  0.00    -0.048 C 
ATOM     12  C   UNL     1      34.562 -14.815 -20.629  0.00  0.00    +0.004 C 
ATOM     13  C   UNL     1      32.531 -16.263 -20.918  0.00  0.00    +0.004 C 
ATOM     14  C   UNL     1      34.520 -16.512 -25.317  0.00  0.00    +0.026 C 
ENDBRANCH   4   9
ENDBRANCH   1   5
BRANCH   3  15
ATOM     15  C   UNL     1      32.565  -9.863 -23.476  0.00  0.00    -0.001 C 
ATOM     16  C   UNL     1      32.042  -9.044 -22.549  0.00  0.00    -0.004 C 
BRANCH  16  17
ATOM     17  C   UNL     1      31.483  -7.734 -22.838  0.00  0.00    -0.017 C 
ATOM     18  C   UNL     1      31.546  -6.650 -22.041  0.00  0.00    +0.053 C 
ATOM     19  C   UNL     1      30.774  -7.664 -24.166  0.00  0.00    +0.031 C 
BRANCH  18  22
ATOM     20  O   UNL     1      29.898  -4.923 -21.889  0.00  0.00    -0.270 OA
ATOM     21  N   UNL     1      31.774  -4.593 -23.219  0.00  0.00    -0.301 N 
ATOM     22  C   UNL     1      30.967  -5.308 -22.351  0.00  0.00    +0.246 C 
ATOM     23  H   UNL     1      32.614  -5.004 -23.527  0.00  0.00    +0.150 HD
BRANCH  21  24
ATOM     24  C   UNL     1      31.440  -3.270 -23.697  0.00  0.00    +0.090 C 
ATOM     25  C   UNL     1      31.030  -3.296 -25.156  0.00  0.00    +0.023 C 
ENDBRANCH  21  24
ENDBRANCH  18  22
ENDBRANCH  16  17
ENDBRANCH   3  15
TORSDOF 6
ENDMDL
MODEL 6
REMARK VINA RESULT:      -9.5      4.770     10.338
REMARK  Name = 5288173
REMARK  6 active torsions:
REMARK  status: ('A' for Active; 'I' for Inactive)
REMARK    1  A    between atoms: C_1  and  C_5
REMARK    2  A    between atoms: C_3  and  C_15
REMARK    3  A    between atoms: C_4  and  C_9
REMARK    4  A    between atoms: C_16  and  C_17
REMARK    5  A    between atoms: C_18  and  C_22
REMARK    6  A    between atoms: N_21  and  C_24
REMARK                            x       y       z     vdW  Elec       q    Type
REMARK                         _______ _______ _______ _____ _____    ______ ____
ROOT
ATOM      1  C   UNL     1      33.513 -22.101 -19.028  0.00  0.00    -0.022 C 
ATOM      2  C   UNL     1      34.688 -22.604 -19.833  0.00  0.00    +0.031 C 
ATOM      3  C   UNL     1      32.851 -21.009 -19.466  0.00  0.00    -0.004 C 
ENDROOT
BRANCH   1   5
ATOM      4  C   UNL     1      32.171 -22.540 -16.960  0.00  0.00    -0.005 C 
ATOM      5  C   UNL     1      33.164 -22.838 -17.812  0.00  0.00    -0.005 C 
BRANCH   4   9
ATOM      6  C   UNL     1      30.393 -23.662 -15.536  0.00  0.00    +0.018 C 
ATOM      7  C   UNL     1      30.152 -24.233 -14.111  0.00  0.00    +0.004 C 
ATOM      8  C   UNL     1      31.199 -25.262 -13.720  0.00  0.00    +0.005 C 
ATOM      9  C   UNL     1      31.883 -23.321 -15.768  0.00  0.00    -0.031 C 
ATOM     10  C   UNL     1      32.581 -24.630 -13.730  0.00  0.00    +0.022 C 
ATOM     11  C   UNL     1      32.862 -23.744 -14.929  0.00  0.00    -0.048 C 
ATOM     12  C   UNL     1      29.484 -22.414 -15.654  0.00  0.00    +0.004 C 
ATOM     13  C   UNL     1      29.932 -24.706 -16.579  0.00  0.00    +0.004 C 
ATOM     14  C   UNL     1      34.332 -23.414 -15.048  0.00  0.00    +0.026 C 
ENDBRANCH   4   9
ENDBRANCH   1   5
BRANCH   3  15
ATOM     15  C   UNL     1      33.114 -20.211 -20.649  0.00  0.00    -0.001 C 
ATOM     16  C   UNL     1      34.066 -19.264 -20.687  0.00  0.00    -0.004 C 
BRANCH  16  17
ATOM     17  C   UNL     1      34.338 -18.425 -21.843  0.00  0.00    -0.017 C 
ATOM     18  C   UNL     1      34.350 -17.078 -21.863  0.00  0.00    +0.053 C 
ATOM     19  C   UNL     1      34.610 -19.208 -23.102  0.00  0.00    +0.031 C 
BRANCH  18  22
ATOM     20  O   UNL     1      35.728 -16.192 -23.605  0.00  0.00    -0.270 OA
ATOM     21  N   UNL     1      33.518 -15.496 -23.436  0.00  0.00    -0.301 N 
ATOM     22  C   UNL     1      34.631 -16.228 -23.058  0.00  0.00    +0.246 C 
ATOM     23  H   UNL     1      32.687 -15.605 -22.920  0.00  0.00    +0.150 HD
BRANCH  21  24
ATOM     24  C   UNL     1      33.520 -14.577 -24.552  0.00  0.00    +0.090 C 
ATOM     25  C   UNL     1      33.634 -13.140 -24.086  0.00  0.00    +0.023 C 
ENDBRANCH  21  24
ENDBRANCH  18  22
ENDBRANCH  16  17
ENDBRANCH   3  15
TORSDOF 6
ENDMDL
MODEL 7
REMARK VINA RESULT:      -9.5      4.898      7.965
REMARK  Name = 5288173
REMARK  6 active torsions:
REMARK  status: ('A' for Active; 'I' for Inactive)
REMARK    1  A    between atoms: C_1  and  C_5
REMARK    2  A    between atoms: C_3  and  C_15
REMARK    3  A    between atoms: C_4  and  C_9
REMARK    4  A    between atoms: C_16  and  C_17
REMARK    5  A    between atoms: C_18  and  C_22
REMARK    6  A    between atoms: N_21  and  C_24
REMARK                            x       y       z     vdW  Elec       q    Type
REMARK                         _______ _______ _______ _____ _____    ______ ____
ROOT
ATOM      1  C   UNL     1      33.585 -13.370 -23.904  0.00  0.00    -0.022 C 
ATOM      2  C   UNL     1      33.073 -14.226 -25.039  0.00  0.00    +0.031 C 
ATOM      3  C   UNL     1      33.940 -13.975 -22.750  0.00  0.00    -0.004 C 
ENDROOT
BRANCH   1   5
ATOM      4  C   UNL     1      33.337 -10.965 -23.255  0.00  0.00    -0.005 C 
ATOM      5  C   UNL     1      33.665 -11.927 -24.131  0.00  0.00    -0.005 C 
BRANCH   4   9
ATOM      6  C   UNL     1      32.397  -8.638 -22.864  0.00  0.00    +0.018 C 
ATOM      7  C   UNL     1      32.402  -7.204 -23.463  0.00  0.00    +0.004 C 
ATOM      8  C   UNL     1      33.809  -6.668 -23.658  0.00  0.00    +0.005 C 
ATOM      9  C   UNL     1      33.442  -9.546 -23.553  0.00  0.00    -0.031 C 
ATOM     10  C   UNL     1      34.581  -7.563 -24.614  0.00  0.00    +0.022 C 
ATOM     11  C   UNL     1      34.411  -9.049 -24.364  0.00  0.00    -0.048 C 
ATOM     12  C   UNL     1      30.955  -9.170 -23.044  0.00  0.00    +0.004 C 
ATOM     13  C   UNL     1      32.704  -8.552 -21.352  0.00  0.00    +0.004 C 
ATOM     14  C   UNL     1      35.435  -9.864 -25.118  0.00  0.00    +0.026 C 
ENDBRANCH   4   9
ENDBRANCH   1   5
BRANCH   3  15
ATOM     15  C   UNL     1      33.900 -15.388 -22.424  0.00  0.00    -0.001 C 
ATOM     16  C   UNL     1      34.957 -16.200 -22.590  0.00  0.00    -0.004 C 
BRANCH  16  17
ATOM     17  C   UNL     1      34.945 -17.626 -22.303  0.00  0.00    -0.017 C 
ATOM     18  C   UNL     1      34.681 -18.194 -21.111  0.00  0.00    +0.053 C 
ATOM     19  C   UNL     1      35.282 -18.481 -23.497  0.00  0.00    +0.031 C 
BRANCH  18  22
ATOM     20  O   UNL     1      33.694 -20.371 -21.036  0.00  0.00    -0.270 OA
ATOM     21  N   UNL     1      35.879 -20.085 -20.300  0.00  0.00    -0.301 N 
ATOM     22  C   UNL     1      34.672 -19.660 -20.829  0.00  0.00    +0.246 C 
ATOM     23  H   UNL     1      36.597 -19.422 -20.176  0.00  0.00    +0.150 HD
BRANCH  21  24
ATOM     24  C   UNL     1      36.134 -21.456 -19.919  0.00  0.00    +0.090 C 
ATOM     25  C   UNL     1      36.392 -21.578 -18.431  0.00  0.00    +0.023 C 
ENDBRANCH  21  24
ENDBRANCH  18  22
ENDBRANCH  16  17
ENDBRANCH   3  15
TORSDOF 6
ENDMDL
MODEL 8
REMARK VINA RESULT:      -9.4      6.756     10.498
REMARK  Name = 5288173
REMARK  6 active torsions:
REMARK  status: ('A' for Active; 'I' for Inactive)
REMARK    1  A    between atoms: C_1  and  C_5
REMARK    2  A    between atoms: C_3  and  C_15
REMARK    3  A    between atoms: C_4  and  C_9
REMARK    4  A    between atoms: C_16  and  C_17
REMARK    5  A    between atoms: C_18  and  C_22
REMARK    6  A    between atoms: N_21  and  C_24
REMARK                            x       y       z     vdW  Elec       q    Type
REMARK                         _______ _______ _______ _____ _____    ______ ____
ROOT
ATOM      1  C   UNL     1      32.413 -10.906 -22.782  0.00  0.00    -0.022 C 
ATOM      2  C   UNL     1      33.500 -11.227 -23.782  0.00  0.00    +0.031 C 
ATOM      3  C   UNL     1      31.894 -11.914 -22.049  0.00  0.00    -0.004 C 
ENDROOT
BRANCH   1   5
ATOM      4  C   UNL     1      32.789  -8.432 -22.716  0.00  0.00    -0.005 C 
ATOM      5  C   UNL     1      31.990  -9.509 -22.671  0.00  0.00    -0.005 C 
BRANCH   4   9
ATOM      6  C   UNL     1      32.150  -6.292 -23.926  0.00  0.00    +0.018 C 
ATOM      7  C   UNL     1      31.904  -4.778 -23.679  0.00  0.00    +0.004 C 
ATOM      8  C   UNL     1      30.882  -4.533 -22.583  0.00  0.00    +0.005 C 
ATOM      9  C   UNL     1      32.295  -7.070 -22.597  0.00  0.00    -0.031 C 
ATOM     10  C   UNL     1      31.367  -5.136 -21.274  0.00  0.00    +0.022 C 
ATOM     11  C   UNL     1      31.961  -6.525 -21.400  0.00  0.00    -0.048 C 
ATOM     12  C   UNL     1      33.428  -6.380 -24.795  0.00  0.00    +0.004 C 
ATOM     13  C   UNL     1      30.965  -6.868 -24.735  0.00  0.00    +0.004 C 
ATOM     14  C   UNL     1      32.121  -7.189 -20.052  0.00  0.00    +0.026 C 
ENDBRANCH   4   9
ENDBRANCH   1   5
BRANCH   3  15
ATOM     15  C   UNL     1      32.239 -13.323 -22.082  0.00  0.00    -0.001 C 
ATOM     16  C   UNL     1      33.000 -13.904 -21.139  0.00  0.00    -0.004 C 
BRANCH  16  17
ATOM     17  C   UNL     1      33.391 -15.304 -21.154  0.00  0.00    -0.017 C 
ATOM     18  C   UNL     1      34.594 -15.789 -21.519  0.00  0.00    +0.053 C 
ATOM     19  C   UNL     1      32.292 -16.240 -20.721  0.00  0.00    +0.031 C 
BRANCH  18  22
ATOM     20  O   UNL     1      35.484 -17.792 -20.561  0.00  0.00    -0.270 OA
ATOM     21  N   UNL     1      34.725 -17.819 -22.756  0.00  0.00    -0.301 N 
ATOM     22  C   UNL     1      34.984 -17.231 -21.530  0.00  0.00    +0.246 C 
ATOM     23  H   UNL     1      34.319 -17.269 -23.465  0.00  0.00    +0.150 HD
BRANCH  21  24
ATOM     24  C   UNL     1      35.024 -19.203 -23.046  0.00  0.00    +0.090 C 
ATOM     25  C   UNL     1      34.759 -19.534 -24.501  0.00  0.00    +0.023 C 
ENDBRANCH  21  24
ENDBRANCH  18  22
ENDBRANCH  16  17
ENDBRANCH   3  15
TORSDOF 6
ENDMDL
MODEL 9
REMARK VINA RESULT:      -9.3      3.917     10.750
REMARK  Name = 5288173
REMARK  6 active torsions:
REMARK  status: ('A' for Active; 'I' for Inactive)
REMARK    1  A    between atoms: C_1  and  C_5
REMARK    2  A    between atoms: C_3  and  C_15
REMARK    3  A    between atoms: C_4  and  C_9
REMARK    4  A    between atoms: C_16  and  C_17
REMARK    5  A    between atoms: C_18  and  C_22
REMARK    6  A    between atoms: N_21  and  C_24
REMARK                            x       y       z     vdW  Elec       q    Type
REMARK                         _______ _______ _______ _____ _____    ______ ____
ROOT
ATOM      1  C   UNL     1      34.756 -22.693 -17.362  0.00  0.00    -0.022 C 
ATOM      2  C   UNL     1      33.307 -23.033 -17.624  0.00  0.00    +0.031 C 
ATOM      3  C   UNL     1      35.431 -21.986 -18.295  0.00  0.00    -0.004 C 
ENDROOT
BRANCH   1   5
ATOM      4  C   UNL     1      35.116 -24.337 -15.509  0.00  0.00    -0.005 C 
ATOM      5  C   UNL     1      35.339 -23.154 -16.102  0.00  0.00    -0.005 C 
BRANCH   4   9
ATOM      6  C   UNL     1      37.066 -25.501 -14.372  0.00  0.00    +0.018 C 
ATOM      7  C   UNL     1      37.491 -26.123 -13.013  0.00  0.00    +0.004 C 
ATOM      8  C   UNL     1      37.323 -25.150 -11.859  0.00  0.00    +0.005 C 
ATOM      9  C   UNL     1      35.733 -24.726 -14.251  0.00  0.00    -0.031 C 
ATOM     10  C   UNL     1      35.865 -24.736 -11.735  0.00  0.00    +0.022 C 
ATOM     11  C   UNL     1      35.187 -24.408 -13.051  0.00  0.00    -0.048 C 
ATOM     12  C   UNL     1      36.965 -26.683 -15.367  0.00  0.00    +0.004 C 
ATOM     13  C   UNL     1      38.179 -24.544 -14.857  0.00  0.00    +0.004 C 
ATOM     14  C   UNL     1      33.867 -23.703 -12.839  0.00  0.00    +0.026 C 
ENDBRANCH   4   9
ENDBRANCH   1   5
BRANCH   3  15
ATOM     15  C   UNL     1      34.949 -21.485 -19.568  0.00  0.00    -0.001 C 
ATOM     16  C   UNL     1      35.343 -20.305 -20.077  0.00  0.00    -0.004 C 
BRANCH  16  17
ATOM     17  C   UNL     1      34.860 -19.757 -21.334  0.00  0.00    -0.017 C 
ATOM     18  C   UNL     1      35.622 -19.327 -22.358  0.00  0.00    +0.053 C 
ATOM     19  C   UNL     1      33.357 -19.684 -21.419  0.00  0.00    +0.031 C 
BRANCH  18  22
ATOM     20  O   UNL     1      34.736 -19.471 -24.575  0.00  0.00    -0.270 OA
ATOM     21  N   UNL     1      35.145 -17.382 -23.645  0.00  0.00    -0.301 N 
ATOM     22  C   UNL     1      35.113 -18.765 -23.645  0.00  0.00    +0.246 C 
ATOM     23  H   UNL     1      35.469 -16.919 -22.839  0.00  0.00    +0.150 HD
BRANCH  21  24
ATOM     24  C   UNL     1      34.725 -16.583 -24.775  0.00  0.00    +0.090 C 
ATOM     25  C   UNL     1      33.895 -15.394 -24.334  0.00  0.00    +0.023 C 
ENDBRANCH  21  24
ENDBRANCH  18  22
ENDBRANCH  16  17
ENDBRANCH   3  15
TORSDOF 6
ENDMDL
