MODEL 1
REMARK VINA RESULT:      -8.7      0.000      0.000
REMARK  Name = 30768
REMARK  2 active torsions:
REMARK  status: ('A' for Active; 'I' for Inactive)
REMARK    1  A    between atoms: N_4  and  C_21
REMARK    2  A    between atoms: C_5  and  C_15
REMARK                            x       y       z     vdW  Elec       q    Type
REMARK                         _______ _______ _______ _____ _____    ______ ____
ROOT
ATOM      1 CL   UNL     1      28.833 -22.617 -16.733  0.00  0.00    -0.083 Cl
ATOM      2  O   UNL     1      35.264 -23.145 -17.227  0.00  0.00    -0.443 OA
ATOM      3  N   UNL     1      34.470 -23.173 -15.012  0.00  0.00    -0.359 NA
ATOM      4  N   UNL     1      36.758 -23.322 -15.552  0.00  0.00    -0.278 N 
ATOM      5  C   UNL     1      33.939 -23.162 -17.841  0.00  0.00    +0.165 C 
ATOM      6  C   UNL     1      32.826 -23.019 -16.816  0.00  0.00    +0.116 C 
ATOM      7  C   UNL     1      33.841 -24.564 -18.477  0.00  0.00    +0.049 C 
ATOM      8  C   UNL     1      33.151 -23.034 -15.455  0.00  0.00    +0.121 C 
ATOM      9  C   UNL     1      31.481 -22.893 -17.202  0.00  0.00    -0.004 C 
ATOM     10  C   UNL     1      35.435 -23.214 -15.879  0.00  0.00    +0.340 C 
ATOM     11  C   UNL     1      32.132 -22.913 -14.501  0.00  0.00    +0.029 C 
ATOM     12  C   UNL     1      30.474 -22.772 -16.244  0.00  0.00    +0.054 C 
ATOM     13  C   UNL     1      30.801 -22.781 -14.893  0.00  0.00    +0.013 C 
ATOM     14  H   UNL     1      37.425 -23.331 -16.276  0.00  0.00    +0.152 HD
ENDROOT
BRANCH   5  15
ATOM     15  C   UNL     1      33.948 -22.002 -18.839  0.00  0.00    +0.014 C 
ATOM     16  C   UNL     1      35.156 -21.546 -19.359  0.00  0.00    -0.001 C 
ATOM     17  C   UNL     1      32.748 -21.410 -19.222  0.00  0.00    -0.001 C 
ATOM     18  C   UNL     1      35.164 -20.489 -20.269  0.00  0.00    -0.000 C 
ATOM     19  C   UNL     1      32.756 -20.353 -20.133  0.00  0.00    -0.000 C 
ATOM     20  C   UNL     1      33.964 -19.893 -20.656  0.00  0.00    -0.000 C 
ENDBRANCH   5  15
BRANCH   4  21
ATOM     21  C   UNL     1      37.207 -23.422 -14.196  0.00  0.00    +0.092 C 
ATOM     22  C   UNL     1      37.987 -24.700 -13.964  0.00  0.00    +0.023 C 
ENDBRANCH   4  21
TORSDOF 2
ENDMDL
MODEL 2
REMARK VINA RESULT:      -8.3      2.145      5.328
REMARK  Name = 30768
REMARK  2 active torsions:
REMARK  status: ('A' for Active; 'I' for Inactive)
REMARK    1  A    between atoms: N_4  and  C_21
REMARK    2  A    between atoms: C_5  and  C_15
REMARK                            x       y       z     vdW  Elec       q    Type
REMARK                         _______ _______ _______ _____ _____    ______ ____
ROOT
ATOM      1 CL   UNL     1      31.433 -24.926 -13.376  0.00  0.00    -0.083 Cl
ATOM      2  O   UNL     1      36.463 -22.745 -16.814  0.00  0.00    -0.443 OA
ATOM      3  N   UNL     1      34.386 -22.484 -17.890  0.00  0.00    -0.359 NA
ATOM      4  N   UNL     1      36.423 -21.820 -18.866  0.00  0.00    -0.278 N 
ATOM      5  C   UNL     1      35.900 -23.222 -15.555  0.00  0.00    +0.165 C 
ATOM      6  C   UNL     1      34.400 -23.456 -15.645  0.00  0.00    +0.116 C 
ATOM      7  C   UNL     1      36.156 -22.064 -14.569  0.00  0.00    +0.049 C 
ATOM      8  C   UNL     1      33.723 -23.072 -16.807  0.00  0.00    +0.121 C 
ATOM      9  C   UNL     1      33.679 -24.027 -14.583  0.00  0.00    -0.004 C 
ATOM     10  C   UNL     1      35.677 -22.356 -17.855  0.00  0.00    +0.340 C 
ATOM     11  C   UNL     1      32.339 -23.273 -16.898  0.00  0.00    +0.029 C 
ATOM     12  C   UNL     1      32.301 -24.223 -14.684  0.00  0.00    +0.054 C 
ATOM     13  C   UNL     1      31.632 -23.847 -15.843  0.00  0.00    +0.013 C 
ATOM     14  H   UNL     1      37.401 -21.774 -18.760  0.00  0.00    +0.152 HD
ENDROOT
BRANCH   5  15
ATOM     15  C   UNL     1      36.660 -24.513 -15.243  0.00  0.00    +0.014 C 
ATOM     16  C   UNL     1      37.970 -24.449 -14.775  0.00  0.00    -0.001 C 
ATOM     17  C   UNL     1      36.037 -25.744 -15.428  0.00  0.00    -0.001 C 
ATOM     18  C   UNL     1      38.662 -25.626 -14.491  0.00  0.00    -0.000 C 
ATOM     19  C   UNL     1      36.731 -26.922 -15.142  0.00  0.00    -0.000 C 
ATOM     20  C   UNL     1      38.043 -26.861 -14.674  0.00  0.00    -0.000 C 
ENDBRANCH   5  15
BRANCH   4  21
ATOM     21  C   UNL     1      35.835 -21.323 -20.074  0.00  0.00    +0.092 C 
ATOM     22  C   UNL     1      36.359 -19.943 -20.418  0.00  0.00    +0.023 C 
ENDBRANCH   4  21
TORSDOF 2
ENDMDL
MODEL 3
REMARK VINA RESULT:      -8.2      8.840     11.496
REMARK  Name = 30768
REMARK  2 active torsions:
REMARK  status: ('A' for Active; 'I' for Inactive)
REMARK    1  A    between atoms: N_4  and  C_21
REMARK    2  A    between atoms: C_5  and  C_15
REMARK                            x       y       z     vdW  Elec       q    Type
REMARK                         _______ _______ _______ _____ _____    ______ ____
ROOT
ATOM      1 CL   UNL     1      30.565 -10.803 -20.662  0.00  0.00    -0.083 Cl
ATOM      2  O   UNL     1      34.291 -14.446 -24.501  0.00  0.00    -0.443 OA
ATOM      3  N   UNL     1      34.069 -15.281 -22.312  0.00  0.00    -0.359 NA
ATOM      4  N   UNL     1      35.371 -16.346 -23.961  0.00  0.00    -0.278 N 
ATOM      5  C   UNL     1      33.327 -13.363 -24.326  0.00  0.00    +0.165 C 
ATOM      6  C   UNL     1      32.855 -13.237 -22.887  0.00  0.00    +0.116 C 
ATOM      7  C   UNL     1      32.128 -13.786 -25.199  0.00  0.00    +0.049 C 
ATOM      8  C   UNL     1      33.250 -14.205 -21.957  0.00  0.00    +0.121 C 
ATOM      9  C   UNL     1      32.017 -12.187 -22.475  0.00  0.00    -0.004 C 
ATOM     10  C   UNL     1      34.543 -15.352 -23.518  0.00  0.00    +0.340 C 
ATOM     11  C   UNL     1      32.813 -14.106 -20.629  0.00  0.00    +0.029 C 
ATOM     12  C   UNL     1      31.589 -12.097 -21.151  0.00  0.00    +0.054 C 
ATOM     13  C   UNL     1      31.989 -13.056 -20.227  0.00  0.00    +0.013 C 
ATOM     14  H   UNL     1      35.695 -16.313 -24.890  0.00  0.00    +0.152 HD
ENDROOT
BRANCH   5  15
ATOM     15  C   UNL     1      34.055 -12.102 -24.800  0.00  0.00    +0.014 C 
ATOM     16  C   UNL     1      34.230 -11.035 -23.924  0.00  0.00    -0.001 C 
ATOM     17  C   UNL     1      34.538 -12.032 -26.103  0.00  0.00    -0.001 C 
ATOM     18  C   UNL     1      34.894  -9.887 -24.356  0.00  0.00    -0.000 C 
ATOM     19  C   UNL     1      35.202 -10.883 -26.535  0.00  0.00    -0.000 C 
ATOM     20  C   UNL     1      35.380  -9.811 -25.660  0.00  0.00    -0.000 C 
ENDBRANCH   5  15
BRANCH   4  21
ATOM     21  C   UNL     1      35.783 -17.432 -23.123  0.00  0.00    +0.092 C 
ATOM     22  C   UNL     1      35.153 -18.739 -23.561  0.00  0.00    +0.023 C 
ENDBRANCH   4  21
TORSDOF 2
ENDMDL
MODEL 4
REMARK VINA RESULT:      -7.8      2.801      5.778
REMARK  Name = 30768
REMARK  2 active torsions:
REMARK  status: ('A' for Active; 'I' for Inactive)
REMARK    1  A    between atoms: N_4  and  C_21
REMARK    2  A    between atoms: C_5  and  C_15
REMARK                            x       y       z     vdW  Elec       q    Type
REMARK                         _______ _______ _______ _____ _____    ______ ____
ROOT
ATOM      1 CL   UNL     1      37.378 -24.135 -14.163  0.00  0.00    -0.083 Cl
ATOM      2  O   UNL     1      33.101 -22.364 -18.685  0.00  0.00    -0.443 OA
ATOM      3  N   UNL     1      35.187 -21.291 -18.870  0.00  0.00    -0.359 NA
ATOM      4  N   UNL     1      33.394 -20.864 -20.338  0.00  0.00    -0.278 N 
ATOM      5  C   UNL     1      33.512 -23.265 -17.612  0.00  0.00    +0.165 C 
ATOM      6  C   UNL     1      34.904 -22.946 -17.092  0.00  0.00    +0.116 C 
ATOM      7  C   UNL     1      33.548 -24.653 -18.284  0.00  0.00    +0.049 C 
ATOM      8  C   UNL     1      35.668 -21.976 -17.750  0.00  0.00    +0.121 C 
ATOM      9  C   UNL     1      35.446 -23.614 -15.981  0.00  0.00    -0.004 C 
ATOM     10  C   UNL     1      33.970 -21.498 -19.272  0.00  0.00    +0.340 C 
ATOM     11  C   UNL     1      36.956 -21.680 -17.286  0.00  0.00    +0.029 C 
ATOM     12  C   UNL     1      36.730 -23.310 -15.526  0.00  0.00    +0.054 C 
ATOM     13  C   UNL     1      37.484 -22.341 -16.178  0.00  0.00    +0.013 C 
ATOM     14  H   UNL     1      32.459 -21.073 -20.564  0.00  0.00    +0.152 HD
ENDROOT
BRANCH   5  15
ATOM     15  C   UNL     1      32.446 -23.103 -16.526  0.00  0.00    +0.014 C 
ATOM     16  C   UNL     1      31.122 -22.865 -16.886  0.00  0.00    -0.001 C 
ATOM     17  C   UNL     1      32.805 -23.196 -15.185  0.00  0.00    -0.001 C 
ATOM     18  C   UNL     1      30.151 -22.717 -15.896  0.00  0.00    -0.000 C 
ATOM     19  C   UNL     1      31.833 -23.050 -14.194  0.00  0.00    -0.000 C 
ATOM     20  C   UNL     1      30.506 -22.811 -14.551  0.00  0.00    -0.000 C 
ENDBRANCH   5  15
BRANCH   4  21
ATOM     21  C   UNL     1      34.102 -19.908 -21.136  0.00  0.00    +0.092 C 
ATOM     22  C   UNL     1      33.460 -18.538 -21.057  0.00  0.00    +0.023 C 
ENDBRANCH   4  21
TORSDOF 2
ENDMDL
MODEL 5
REMARK VINA RESULT:      -7.7     12.995     15.856
REMARK  Name = 30768
REMARK  2 active torsions:
REMARK  status: ('A' for Active; 'I' for Inactive)
REMARK    1  A    between atoms: N_4  and  C_21
REMARK    2  A    between atoms: C_5  and  C_15
REMARK                            x       y       z     vdW  Elec       q    Type
REMARK                         _______ _______ _______ _____ _____    ______ ____
ROOT
ATOM      1 CL   UNL     1      35.779 -10.605 -27.147  0.00  0.00    -0.083 Cl
ATOM      2  O   UNL     1      32.613  -8.198 -22.041  0.00  0.00    -0.443 OA
ATOM      3  N   UNL     1      32.453 -10.537 -22.250  0.00  0.00    -0.359 NA
ATOM      4  N   UNL     1      31.403  -9.333 -20.519  0.00  0.00    -0.278 N 
ATOM      5  C   UNL     1      33.569  -8.035 -23.133  0.00  0.00    +0.165 C 
ATOM      6  C   UNL     1      33.806  -9.330 -23.892  0.00  0.00    +0.116 C 
ATOM      7  C   UNL     1      34.880  -7.636 -22.426  0.00  0.00    +0.049 C 
ATOM      8  C   UNL     1      33.237 -10.513 -23.408  0.00  0.00    +0.121 C 
ATOM      9  C   UNL     1      34.598  -9.371 -25.052  0.00  0.00    -0.004 C 
ATOM     10  C   UNL     1      32.178  -9.424 -21.642  0.00  0.00    +0.340 C 
ATOM     11  C   UNL     1      33.457 -11.716 -24.093  0.00  0.00    +0.029 C 
ATOM     12  C   UNL     1      34.809 -10.573 -25.727  0.00  0.00    +0.054 C 
ATOM     13  C   UNL     1      34.237 -11.745 -25.247  0.00  0.00    +0.013 C 
ATOM     14  H   UNL     1      31.234  -8.444 -20.132  0.00  0.00    +0.152 HD
ENDROOT
BRANCH   5  15
ATOM     15  C   UNL     1      32.966  -6.951 -24.030  0.00  0.00    +0.014 C 
ATOM     16  C   UNL     1      31.614  -6.638 -23.924  0.00  0.00    -0.001 C 
ATOM     17  C   UNL     1      33.774  -6.283 -24.947  0.00  0.00    -0.001 C 
ATOM     18  C   UNL     1      31.065  -5.650 -24.741  0.00  0.00    -0.000 C 
ATOM     19  C   UNL     1      33.224  -5.294 -25.764  0.00  0.00    -0.000 C 
ATOM     20  C   UNL     1      31.870  -4.978 -25.660  0.00  0.00    -0.000 C 
ENDBRANCH   5  15
BRANCH   4  21
ATOM     21  C   UNL     1      30.828 -10.483 -19.888  0.00  0.00    +0.092 C 
ATOM     22  C   UNL     1      31.576 -10.852 -18.624  0.00  0.00    +0.023 C 
ENDBRANCH   4  21
TORSDOF 2
ENDMDL
MODEL 6
REMARK VINA RESULT:      -7.4     10.186     12.920
REMARK  Name = 30768
REMARK  2 active torsions:
REMARK  status: ('A' for Active; 'I' for Inactive)
REMARK    1  A    between atoms: N_4  and  C_21
REMARK    2  A    between atoms: C_5  and  C_15
REMARK                            x       y       z     vdW  Elec       q    Type
REMARK                         _______ _______ _______ _____ _____    ______ ____
ROOT
ATOM      1 CL   UNL     1      36.079 -10.766 -27.021  0.00  0.00    -0.083 Cl
ATOM      2  O   UNL     1      31.957 -13.088 -22.605  0.00  0.00    -0.443 OA
ATOM      3  N   UNL     1      32.416 -10.792 -22.369  0.00  0.00    -0.359 NA
ATOM      4  N   UNL     1      30.977 -11.964 -20.919  0.00  0.00    -0.278 N 
ATOM      5  C   UNL     1      32.693 -13.242 -23.857  0.00  0.00    +0.165 C 
ATOM      6  C   UNL     1      33.461 -11.984 -24.232  0.00  0.00    +0.116 C 
ATOM      7  C   UNL     1      31.592 -13.475 -24.911  0.00  0.00    +0.049 C 
ATOM      8  C   UNL     1      33.280 -10.826 -23.469  0.00  0.00    +0.121 C 
ATOM      9  C   UNL     1      34.329 -11.954 -25.336  0.00  0.00    -0.004 C 
ATOM     10  C   UNL     1      31.819 -11.881 -21.992  0.00  0.00    +0.340 C 
ATOM     11  C   UNL     1      33.974  -9.658 -23.811  0.00  0.00    +0.029 C 
ATOM     12  C   UNL     1      35.017 -10.786 -25.668  0.00  0.00    +0.054 C 
ATOM     13  C   UNL     1      34.840  -9.639 -24.903  0.00  0.00    +0.013 C 
ATOM     14  H   UNL     1      30.578 -12.836 -20.696  0.00  0.00    +0.152 HD
ENDROOT
BRANCH   5  15
ATOM     15  C   UNL     1      33.626 -14.433 -23.626  0.00  0.00    +0.014 C 
ATOM     16  C   UNL     1      34.209 -14.623 -22.376  0.00  0.00    -0.001 C 
ATOM     17  C   UNL     1      33.886 -15.319 -24.668  0.00  0.00    -0.001 C 
ATOM     18  C   UNL     1      35.059 -15.709 -22.166  0.00  0.00    -0.000 C 
ATOM     19  C   UNL     1      34.736 -16.406 -24.457  0.00  0.00    -0.000 C 
ATOM     20  C   UNL     1      35.322 -16.600 -23.206  0.00  0.00    -0.000 C 
ENDBRANCH   5  15
BRANCH   4  21
ATOM     21  C   UNL     1      30.655 -10.828 -20.107  0.00  0.00    +0.092 C 
ATOM     22  C   UNL     1      31.469 -10.811 -18.830  0.00  0.00    +0.023 C 
ENDBRANCH   4  21
TORSDOF 2
ENDMDL
MODEL 7
REMARK VINA RESULT:      -7.2     14.118     17.204
REMARK  Name = 30768
REMARK  2 active torsions:
REMARK  status: ('A' for Active; 'I' for Inactive)
REMARK    1  A    between atoms: N_4  and  C_21
REMARK    2  A    between atoms: C_5  and  C_15
REMARK                            x       y       z     vdW  Elec       q    Type
REMARK                         _______ _______ _______ _____ _____    ______ ____
ROOT
ATOM      1 CL   UNL     1      35.433 -10.427 -25.212  0.00  0.00    -0.083 Cl
ATOM      2  O   UNL     1      30.923  -6.717 -22.423  0.00  0.00    -0.443 OA
ATOM      3  N   UNL     1      32.543  -5.508 -23.628  0.00  0.00    -0.359 NA
ATOM      4  N   UNL     1      30.772  -4.471 -22.472  0.00  0.00    -0.278 N 
ATOM      5  C   UNL     1      31.405  -8.032 -22.838  0.00  0.00    +0.165 C 
ATOM      6  C   UNL     1      32.704  -7.949 -23.622  0.00  0.00    +0.116 C 
ATOM      7  C   UNL     1      30.299  -8.555 -23.778  0.00  0.00    +0.049 C 
ATOM      8  C   UNL     1      33.203  -6.691 -23.977  0.00  0.00    +0.121 C 
ATOM      9  C   UNL     1      33.402  -9.103 -24.015  0.00  0.00    -0.004 C 
ATOM     10  C   UNL     1      31.477  -5.565 -22.890  0.00  0.00    +0.340 C 
ATOM     11  C   UNL     1      34.395  -6.602 -24.709  0.00  0.00    +0.029 C 
ATOM     12  C   UNL     1      34.589  -9.004 -24.742  0.00  0.00    +0.054 C 
ATOM     13  C   UNL     1      35.085  -7.752 -25.087  0.00  0.00    +0.013 C 
ATOM     14  H   UNL     1      29.982  -4.607 -21.901  0.00  0.00    +0.152 HD
ENDROOT
BRANCH   5  15
ATOM     15  C   UNL     1      31.572  -8.822 -21.538  0.00  0.00    +0.014 C 
ATOM     16  C   UNL     1      31.173 -10.155 -21.483  0.00  0.00    -0.001 C 
ATOM     17  C   UNL     1      32.123  -8.204 -20.419  0.00  0.00    -0.001 C 
ATOM     18  C   UNL     1      31.326 -10.875 -20.298  0.00  0.00    -0.000 C 
ATOM     19  C   UNL     1      32.277  -8.926 -19.234  0.00  0.00    -0.000 C 
ATOM     20  C   UNL     1      31.879 -10.261 -19.175  0.00  0.00    -0.000 C 
ENDBRANCH   5  15
BRANCH   4  21
ATOM     21  C   UNL     1      31.141  -3.136 -22.835  0.00  0.00    +0.092 C 
ATOM     22  C   UNL     1      30.068  -2.140 -22.448  0.00  0.00    +0.023 C 
ENDBRANCH   4  21
TORSDOF 2
ENDMDL
MODEL 8
REMARK VINA RESULT:      -6.8      2.014      2.825
REMARK  Name = 30768
REMARK  2 active torsions:
REMARK  status: ('A' for Active; 'I' for Inactive)
REMARK    1  A    between atoms: N_4  and  C_21
REMARK    2  A    between atoms: C_5  and  C_15
REMARK                            x       y       z     vdW  Elec       q    Type
REMARK                         _______ _______ _______ _____ _____    ______ ____
ROOT
ATOM      1 CL   UNL     1      29.717 -23.599 -16.584  0.00  0.00    -0.083 Cl
ATOM      2  O   UNL     1      35.829 -23.803 -14.466  0.00  0.00    -0.443 OA
ATOM      3  N   UNL     1      34.240 -23.443 -12.767  0.00  0.00    -0.359 NA
ATOM      4  N   UNL     1      36.556 -23.550 -12.351  0.00  0.00    -0.278 N 
ATOM      5  C   UNL     1      34.844 -24.027 -15.521  0.00  0.00    +0.165 C 
ATOM      6  C   UNL     1      33.424 -23.755 -15.052  0.00  0.00    +0.116 C 
ATOM      7  C   UNL     1      34.974 -25.530 -15.840  0.00  0.00    +0.049 C 
ATOM      8  C   UNL     1      33.198 -23.479 -13.699  0.00  0.00    +0.121 C 
ATOM      9  C   UNL     1      32.335 -23.794 -15.939  0.00  0.00    -0.004 C 
ATOM     10  C   UNL     1      35.464 -23.593 -13.172  0.00  0.00    +0.340 C 
ATOM     11  C   UNL     1      31.892 -23.237 -13.253  0.00  0.00    +0.029 C 
ATOM     12  C   UNL     1      31.039 -23.550 -15.485  0.00  0.00    +0.054 C 
ATOM     13  C   UNL     1      30.818 -23.269 -14.141  0.00  0.00    +0.013 C 
ATOM     14  H   UNL     1      37.450 -23.660 -12.746  0.00  0.00    +0.152 HD
ENDROOT
BRANCH   5  15
ATOM     15  C   UNL     1      35.259 -23.089 -16.658  0.00  0.00    +0.014 C 
ATOM     16  C   UNL     1      34.421 -22.922 -17.757  0.00  0.00    -0.001 C 
ATOM     17  C   UNL     1      36.471 -22.409 -16.585  0.00  0.00    -0.001 C 
ATOM     18  C   UNL     1      34.800 -22.067 -18.792  0.00  0.00    -0.000 C 
ATOM     19  C   UNL     1      36.849 -21.553 -17.620  0.00  0.00    -0.000 C 
ATOM     20  C   UNL     1      36.013 -21.383 -18.723  0.00  0.00    -0.000 C 
ENDBRANCH   5  15
BRANCH   4  21
ATOM     21  C   UNL     1      36.445 -23.350 -10.937  0.00  0.00    +0.092 C 
ATOM     22  C   UNL     1      35.754 -24.520 -10.265  0.00  0.00    +0.023 C 
ENDBRANCH   4  21
TORSDOF 2
ENDMDL
MODEL 9
REMARK VINA RESULT:      -6.7      3.311      5.368
REMARK  Name = 30768
REMARK  2 active torsions:
REMARK  status: ('A' for Active; 'I' for Inactive)
REMARK    1  A    between atoms: N_4  and  C_21
REMARK    2  A    between atoms: C_5  and  C_15
REMARK                            x       y       z     vdW  Elec       q    Type
REMARK                         _______ _______ _______ _____ _____    ______ ____
ROOT
ATOM      1 CL   UNL     1      40.125 -25.403 -15.460  0.00  0.00    -0.083 Cl
ATOM      2  O   UNL     1      34.088 -23.074 -15.340  0.00  0.00    -0.443 OA
ATOM      3  N   UNL     1      34.303 -25.220 -14.399  0.00  0.00    -0.359 NA
ATOM      4  N   UNL     1      32.244 -24.086 -14.538  0.00  0.00    -0.278 N 
ATOM      5  C   UNL     1      35.521 -22.873 -15.538  0.00  0.00    +0.165 C 
ATOM      6  C   UNL     1      36.327 -24.124 -15.227  0.00  0.00    +0.116 C 
ATOM      7  C   UNL     1      35.892 -21.785 -14.510  0.00  0.00    +0.049 C 
ATOM      8  C   UNL     1      35.675 -25.230 -14.672  0.00  0.00    +0.121 C 
ATOM      9  C   UNL     1      37.711 -24.187 -15.464  0.00  0.00    -0.004 C 
ATOM     10  C   UNL     1      33.592 -24.188 -14.736  0.00  0.00    +0.340 C 
ATOM     11  C   UNL     1      36.409 -26.385 -14.371  0.00  0.00    +0.029 C 
ATOM     12  C   UNL     1      38.432 -25.342 -15.162  0.00  0.00    +0.054 C 
ATOM     13  C   UNL     1      37.780 -26.442 -14.617  0.00  0.00    +0.013 C 
ATOM     14  H   UNL     1      31.782 -23.270 -14.839  0.00  0.00    +0.152 HD
ENDROOT
BRANCH   5  15
ATOM     15  C   UNL     1      35.665 -22.452 -17.003  0.00  0.00    +0.014 C 
ATOM     16  C   UNL     1      34.640 -22.724 -17.904  0.00  0.00    -0.001 C 
ATOM     17  C   UNL     1      36.819 -21.799 -17.424  0.00  0.00    -0.001 C 
ATOM     18  C   UNL     1      34.771 -22.339 -19.238  0.00  0.00    -0.000 C 
ATOM     19  C   UNL     1      36.950 -21.414 -18.759  0.00  0.00    -0.000 C 
ATOM     20  C   UNL     1      35.925 -21.684 -19.665  0.00  0.00    -0.000 C 
ENDBRANCH   5  15
BRANCH   4  21
ATOM     21  C   UNL     1      31.480 -25.121 -13.910  0.00  0.00    +0.092 C 
ATOM     22  C   UNL     1      30.225 -25.440 -14.698  0.00  0.00    +0.023 C 
ENDBRANCH   4  21
TORSDOF 2
ENDMDL
