MODEL 1
REMARK VINA RESULT:     -10.8      0.000      0.000
REMARK  Name = 449015
REMARK  8 active torsions:
REMARK  status: ('A' for Active; 'I' for Inactive)
REMARK    1  A    between atoms: C_1  and  N_2
REMARK    2  A    between atoms: C_1  and  C_12
REMARK    3  A    between atoms: C_1  and  C_16
REMARK    4  A    between atoms: C_6  and  C_9
REMARK    5  A    between atoms: C_12  and  O_14
REMARK    6  A    between atoms: C_16  and  C_17
REMARK    7  A    between atoms: C_17  and  O_18
REMARK    8  A    between atoms: O_18  and  C_19
REMARK                            x       y       z     vdW  Elec       q    Type
REMARK                         _______ _______ _______ _____ _____    ______ ____
ROOT
ATOM      1  C   UNL     1      35.624 -24.374 -15.427  0.00  0.00    +0.090 C 
ENDROOT
BRANCH   1   2
ATOM      2  N   UNL     1      36.851 -25.130 -15.133  0.00  0.00    -0.246 NA
ATOM      3  N   UNL     1      38.177 -26.850 -14.814  0.00  0.00    -0.251 NA
ATOM      4  C   UNL     1      38.054 -24.586 -14.848  0.00  0.00    +0.125 C 
ATOM      5  C   UNL     1      36.950 -26.476 -15.107  0.00  0.00    +0.201 C 
ATOM      6  C   UNL     1      38.870 -25.676 -14.651  0.00  0.00    +0.124 C 
BRANCH   6   9
ATOM      7  O   UNL     1      40.873 -24.565 -14.106  0.00  0.00    -0.269 OA
ATOM      8  N   UNL     1      40.959 -26.854 -14.223  0.00  0.00    -0.324 N 
ATOM      9  C   UNL     1      40.261 -25.640 -14.323  0.00  0.00    +0.257 C 
ATOM     10  H   UNL     1      41.917 -26.854 -13.998  0.00  0.00    +0.145 HD
ATOM     11  H   UNL     1      40.489 -27.705 -14.377  0.00  0.00    +0.145 HD
ENDBRANCH   6   9
ENDBRANCH   1   2
BRANCH   1  12
ATOM     12  C   UNL     1      34.460 -24.777 -14.486  0.00  0.00    +0.125 C 
ATOM     13  C   UNL     1      33.226 -23.891 -14.638  0.00  0.00    +0.033 C 
BRANCH  12  14
ATOM     14  O   UNL     1      34.889 -24.690 -13.126  0.00  0.00    -0.383 OA
ATOM     15  H   UNL     1      34.193 -24.276 -12.593  0.00  0.00    +0.210 HD
ENDBRANCH  12  14
ENDBRANCH   1  12
BRANCH   1  16
ATOM     16  C   UNL     1      35.864 -22.845 -15.419  0.00  0.00    +0.066 C 
BRANCH  16  17
ATOM     17  C   UNL     1      36.269 -22.288 -16.780  0.00  0.00    +0.207 C 
BRANCH  17  18
ATOM     18  O   UNL     1      35.348 -22.755 -17.757  0.00  0.00    -0.475 OA
BRANCH  18  19
ATOM     19  C   UNL     1      34.995 -21.875 -18.745  0.00  0.00    +0.139 C 
ATOM     20  C   UNL     1      35.971 -21.091 -19.351  0.00  0.00    +0.037 C 
ATOM     21  C   UNL     1      35.624 -20.183 -20.364  0.00  0.00    +0.003 C 
ATOM     22  C   UNL     1      34.271 -20.075 -20.764  0.00  0.00    +0.000 C 
ATOM     23  C   UNL     1      33.666 -21.774 -19.132  0.00  0.00    +0.037 C 
ATOM     24  C   UNL     1      33.305 -20.878 -20.137  0.00  0.00    +0.003 C 
ATOM     25  C   UNL     1      36.592 -19.381 -20.992  0.00  0.00    +0.000 C 
ATOM     26  C   UNL     1      33.924 -19.167 -21.778  0.00  0.00    +0.000 C 
ATOM     27  C   UNL     1      36.230 -18.484 -21.998  0.00  0.00    +0.000 C 
ATOM     28  C   UNL     1      34.898 -18.378 -22.391  0.00  0.00    +0.000 C 
ENDBRANCH  18  19
ENDBRANCH  17  18
ENDBRANCH  16  17
ENDBRANCH   1  16
TORSDOF 8
ENDMDL
MODEL 2
REMARK VINA RESULT:     -10.8      1.191      1.474
REMARK  Name = 449015
REMARK  8 active torsions:
REMARK  status: ('A' for Active; 'I' for Inactive)
REMARK    1  A    between atoms: C_1  and  N_2
REMARK    2  A    between atoms: C_1  and  C_12
REMARK    3  A    between atoms: C_1  and  C_16
REMARK    4  A    between atoms: C_6  and  C_9
REMARK    5  A    between atoms: C_12  and  O_14
REMARK    6  A    between atoms: C_16  and  C_17
REMARK    7  A    between atoms: C_17  and  O_18
REMARK    8  A    between atoms: O_18  and  C_19
REMARK                            x       y       z     vdW  Elec       q    Type
REMARK                         _______ _______ _______ _____ _____    ______ ____
ROOT
ATOM      1  C   UNL     1      34.911 -24.269 -15.262  0.00  0.00    +0.090 C 
ENDROOT
BRANCH   1   2
ATOM      2  N   UNL     1      36.381 -24.281 -15.269  0.00  0.00    -0.246 NA
ATOM      3  N   UNL     1      38.440 -23.563 -15.519  0.00  0.00    -0.251 NA
ATOM      4  C   UNL     1      37.154 -25.336 -14.933  0.00  0.00    +0.125 C 
ATOM      5  C   UNL     1      37.168 -23.240 -15.614  0.00  0.00    +0.201 C 
ATOM      6  C   UNL     1      38.438 -24.869 -15.095  0.00  0.00    +0.124 C 
BRANCH   6   9
ATOM      7  O   UNL     1      40.509 -25.776 -15.753  0.00  0.00    -0.269 OA
ATOM      8  N   UNL     1      39.862 -26.143 -13.584  0.00  0.00    -0.324 N 
ATOM      9  C   UNL     1      39.641 -25.607 -14.862  0.00  0.00    +0.257 C 
ATOM     10  H   UNL     1      40.683 -26.654 -13.400  0.00  0.00    +0.145 HD
ATOM     11  H   UNL     1      39.197 -26.006 -12.871  0.00  0.00    +0.145 HD
ENDBRANCH   6   9
ENDBRANCH   1   2
BRANCH   1  12
ATOM     12  C   UNL     1      34.340 -24.423 -13.828  0.00  0.00    +0.125 C 
ATOM     13  C   UNL     1      32.819 -24.308 -13.768  0.00  0.00    +0.033 C 
BRANCH  12  14
ATOM     14  O   UNL     1      34.884 -23.407 -12.984  0.00  0.00    -0.383 OA
ATOM     15  H   UNL     1      34.303 -23.278 -12.218  0.00  0.00    +0.210 HD
ENDBRANCH  12  14
ENDBRANCH   1  12
BRANCH   1  16
ATOM     16  C   UNL     1      34.333 -23.024 -15.977  0.00  0.00    +0.066 C 
BRANCH  16  17
ATOM     17  C   UNL     1      33.488 -23.366 -17.201  0.00  0.00    +0.207 C 
BRANCH  17  18
ATOM     18  O   UNL     1      34.323 -23.345 -18.352  0.00  0.00    -0.475 OA
BRANCH  18  19
ATOM     19  C   UNL     1      34.316 -22.198 -19.100  0.00  0.00    +0.139 C 
ATOM     20  C   UNL     1      35.521 -21.628 -19.499  0.00  0.00    +0.037 C 
ATOM     21  C   UNL     1      35.529 -20.452 -20.266  0.00  0.00    +0.003 C 
ATOM     22  C   UNL     1      34.300 -19.852 -20.628  0.00  0.00    +0.000 C 
ATOM     23  C   UNL     1      33.107 -21.616 -19.452  0.00  0.00    +0.037 C 
ATOM     24  C   UNL     1      33.098 -20.447 -20.213  0.00  0.00    +0.003 C 
ATOM     25  C   UNL     1      36.733 -19.858 -20.682  0.00  0.00    +0.000 C 
ATOM     26  C   UNL     1      34.309 -18.676 -21.396  0.00  0.00    +0.000 C 
ATOM     27  C   UNL     1      36.723 -18.689 -21.444  0.00  0.00    +0.000 C 
ATOM     28  C   UNL     1      35.513 -18.100 -21.801  0.00  0.00    +0.000 C 
ENDBRANCH  18  19
ENDBRANCH  17  18
ENDBRANCH  16  17
ENDBRANCH   1  16
TORSDOF 8
ENDMDL
MODEL 3
REMARK VINA RESULT:     -10.3      2.446      3.065
REMARK  Name = 449015
REMARK  8 active torsions:
REMARK  status: ('A' for Active; 'I' for Inactive)
REMARK    1  A    between atoms: C_1  and  N_2
REMARK    2  A    between atoms: C_1  and  C_12
REMARK    3  A    between atoms: C_1  and  C_16
REMARK    4  A    between atoms: C_6  and  C_9
REMARK    5  A    between atoms: C_12  and  O_14
REMARK    6  A    between atoms: C_16  and  C_17
REMARK    7  A    between atoms: C_17  and  O_18
REMARK    8  A    between atoms: O_18  and  C_19
REMARK                            x       y       z     vdW  Elec       q    Type
REMARK                         _______ _______ _______ _____ _____    ______ ____
ROOT
ATOM      1  C   UNL     1      33.579 -24.131 -14.800  0.00  0.00    +0.090 C 
ENDROOT
BRANCH   1   2
ATOM      2  N   UNL     1      34.867 -23.741 -14.206  0.00  0.00    -0.246 NA
ATOM      3  N   UNL     1      36.900 -22.926 -14.063  0.00  0.00    -0.251 NA
ATOM      4  C   UNL     1      35.216 -23.918 -12.914  0.00  0.00    +0.125 C 
ATOM      5  C   UNL     1      35.884 -23.149 -14.868  0.00  0.00    +0.201 C 
ATOM      6  C   UNL     1      36.489 -23.404 -12.843  0.00  0.00    +0.124 C 
BRANCH   6   9
ATOM      7  O   UNL     1      38.548 -23.125 -11.735  0.00  0.00    -0.269 OA
ATOM      8  N   UNL     1      36.713 -23.530 -10.420  0.00  0.00    -0.324 N 
ATOM      9  C   UNL     1      37.314 -23.348 -11.676  0.00  0.00    +0.257 C 
ATOM     10  H   UNL     1      37.261 -23.496  -9.603  0.00  0.00    +0.145 HD
ATOM     11  H   UNL     1      35.744 -23.691 -10.358  0.00  0.00    +0.145 HD
ENDBRANCH   6   9
ENDBRANCH   1   2
BRANCH   1  12
ATOM     12  C   UNL     1      32.484 -24.333 -13.721  0.00  0.00    +0.125 C 
ATOM     13  C   UNL     1      31.242 -25.048 -14.247  0.00  0.00    +0.033 C 
BRANCH  12  14
ATOM     14  O   UNL     1      32.069 -23.063 -13.214  0.00  0.00    -0.383 OA
ATOM     15  H   UNL     1      32.803 -22.651 -12.733  0.00  0.00    +0.210 HD
ENDBRANCH  12  14
ENDBRANCH   1  12
BRANCH   1  16
ATOM     16  C   UNL     1      33.121 -23.146 -15.902  0.00  0.00    +0.066 C 
BRANCH  16  17
ATOM     17  C   UNL     1      33.322 -23.683 -17.317  0.00  0.00    +0.207 C 
BRANCH  17  18
ATOM     18  O   UNL     1      32.792 -22.742 -18.242  0.00  0.00    -0.475 OA
BRANCH  18  19
ATOM     19  C   UNL     1      33.694 -21.954 -18.906  0.00  0.00    +0.139 C 
ATOM     20  C   UNL     1      33.239 -20.957 -19.762  0.00  0.00    +0.037 C 
ATOM     21  C   UNL     1      34.151 -20.141 -20.450  0.00  0.00    +0.003 C 
ATOM     22  C   UNL     1      35.539 -20.345 -20.265  0.00  0.00    +0.000 C 
ATOM     23  C   UNL     1      35.054 -22.160 -18.719  0.00  0.00    +0.037 C 
ATOM     24  C   UNL     1      35.973 -21.359 -19.395  0.00  0.00    +0.003 C 
ATOM     25  C   UNL     1      33.716 -19.126 -21.319  0.00  0.00    +0.000 C 
ATOM     26  C   UNL     1      36.452 -19.529 -20.953  0.00  0.00    +0.000 C 
ATOM     27  C   UNL     1      34.637 -18.325 -21.995  0.00  0.00    +0.000 C 
ATOM     28  C   UNL     1      36.002 -18.526 -21.812  0.00  0.00    +0.000 C 
ENDBRANCH  18  19
ENDBRANCH  17  18
ENDBRANCH  16  17
ENDBRANCH   1  16
TORSDOF 8
ENDMDL
MODEL 4
REMARK VINA RESULT:     -10.2      2.637      3.394
REMARK  Name = 449015
REMARK  8 active torsions:
REMARK  status: ('A' for Active; 'I' for Inactive)
REMARK    1  A    between atoms: C_1  and  N_2
REMARK    2  A    between atoms: C_1  and  C_12
REMARK    3  A    between atoms: C_1  and  C_16
REMARK    4  A    between atoms: C_6  and  C_9
REMARK    5  A    between atoms: C_12  and  O_14
REMARK    6  A    between atoms: C_16  and  C_17
REMARK    7  A    between atoms: C_17  and  O_18
REMARK    8  A    between atoms: O_18  and  C_19
REMARK                            x       y       z     vdW  Elec       q    Type
REMARK                         _______ _______ _______ _____ _____    ______ ____
ROOT
ATOM      1  C   UNL     1      35.275 -22.848 -15.553  0.00  0.00    +0.090 C 
ENDROOT
BRANCH   1   2
ATOM      2  N   UNL     1      35.024 -23.402 -14.214  0.00  0.00    -0.246 NA
ATOM      3  N   UNL     1      33.964 -24.389 -12.566  0.00  0.00    -0.251 NA
ATOM      4  C   UNL     1      35.903 -23.394 -13.190  0.00  0.00    +0.125 C 
ATOM      5  C   UNL     1      33.880 -23.999 -13.819  0.00  0.00    +0.201 C 
ATOM      6  C   UNL     1      35.223 -24.014 -12.168  0.00  0.00    +0.124 C 
BRANCH   6   9
ATOM      7  O   UNL     1      35.266 -25.177 -10.120  0.00  0.00    -0.269 OA
ATOM      8  N   UNL     1      36.771 -23.463 -10.368  0.00  0.00    -0.324 N 
ATOM      9  C   UNL     1      35.722 -24.262 -10.850  0.00  0.00    +0.257 C 
ATOM     10  H   UNL     1      37.130 -23.615  -9.464  0.00  0.00    +0.145 HD
ATOM     11  H   UNL     1      37.147 -22.751 -10.934  0.00  0.00    +0.145 HD
ENDBRANCH   6   9
ENDBRANCH   1   2
BRANCH   1  12
ATOM     12  C   UNL     1      36.779 -22.551 -15.782  0.00  0.00    +0.125 C 
ATOM     13  C   UNL     1      37.034 -21.559 -16.914  0.00  0.00    +0.033 C 
BRANCH  12  14
ATOM     14  O   UNL     1      37.464 -23.762 -16.108  0.00  0.00    -0.383 OA
ATOM     15  H   UNL     1      36.942 -24.265 -16.752  0.00  0.00    +0.210 HD
ENDBRANCH  12  14
ENDBRANCH   1  12
BRANCH   1  16
ATOM     16  C   UNL     1      34.691 -23.740 -16.675  0.00  0.00    +0.066 C 
BRANCH  16  17
ATOM     17  C   UNL     1      33.750 -22.993 -17.616  0.00  0.00    +0.207 C 
BRANCH  17  18
ATOM     18  O   UNL     1      34.349 -22.930 -18.904  0.00  0.00    -0.475 OA
BRANCH  18  19
ATOM     19  C   UNL     1      34.256 -21.738 -19.571  0.00  0.00    +0.139 C 
ATOM     20  C   UNL     1      35.408 -21.127 -20.055  0.00  0.00    +0.037 C 
ATOM     21  C   UNL     1      35.329 -19.904 -20.741  0.00  0.00    +0.003 C 
ATOM     22  C   UNL     1      34.064 -19.299 -20.934  0.00  0.00    +0.000 C 
ATOM     23  C   UNL     1      33.013 -21.150 -19.757  0.00  0.00    +0.037 C 
ATOM     24  C   UNL     1      32.916 -19.936 -20.436  0.00  0.00    +0.003 C 
ATOM     25  C   UNL     1      36.478 -19.268 -21.240  0.00  0.00    +0.000 C 
ATOM     26  C   UNL     1      33.985 -18.076 -21.620  0.00  0.00    +0.000 C 
ATOM     27  C   UNL     1      36.380 -18.054 -21.919  0.00  0.00    +0.000 C 
ATOM     28  C   UNL     1      35.136 -17.459 -22.109  0.00  0.00    +0.000 C 
ENDBRANCH  18  19
ENDBRANCH  17  18
ENDBRANCH  16  17
ENDBRANCH   1  16
TORSDOF 8
ENDMDL
MODEL 5
REMARK VINA RESULT:     -10.2      4.865      7.296
REMARK  Name = 449015
REMARK  8 active torsions:
REMARK  status: ('A' for Active; 'I' for Inactive)
REMARK    1  A    between atoms: C_1  and  N_2
REMARK    2  A    between atoms: C_1  and  C_12
REMARK    3  A    between atoms: C_1  and  C_16
REMARK    4  A    between atoms: C_6  and  C_9
REMARK    5  A    between atoms: C_12  and  O_14
REMARK    6  A    between atoms: C_16  and  C_17
REMARK    7  A    between atoms: C_17  and  O_18
REMARK    8  A    between atoms: O_18  and  C_19
REMARK                            x       y       z     vdW  Elec       q    Type
REMARK                         _______ _______ _______ _____ _____    ______ ____
ROOT
ATOM      1  C   UNL     1      30.880 -23.647 -15.295  0.00  0.00    +0.090 C 
ENDROOT
BRANCH   1   2
ATOM      2  N   UNL     1      29.566 -23.478 -15.934  0.00  0.00    -0.246 NA
ATOM      3  N   UNL     1      27.846 -23.890 -17.233  0.00  0.00    -0.251 NA
ATOM      4  C   UNL     1      28.704 -22.468 -15.691  0.00  0.00    +0.125 C 
ATOM      5  C   UNL     1      29.033 -24.310 -16.854  0.00  0.00    +0.201 C 
ATOM      6  C   UNL     1      27.635 -22.741 -16.512  0.00  0.00    +0.124 C 
BRANCH   6   9
ATOM      7  O   UNL     1      25.570 -21.927 -15.725  0.00  0.00    -0.269 OA
ATOM      8  N   UNL     1      26.248 -21.201 -17.793  0.00  0.00    -0.324 N 
ATOM      9  C   UNL     1      26.440 -21.964 -16.630  0.00  0.00    +0.257 C 
ATOM     10  H   UNL     1      25.433 -20.659 -17.896  0.00  0.00    +0.145 HD
ATOM     11  H   UNL     1      26.928 -21.209 -18.504  0.00  0.00    +0.145 HD
ENDBRANCH   6   9
ENDBRANCH   1   2
BRANCH   1  12
ATOM     12  C   UNL     1      30.826 -24.663 -14.126  0.00  0.00    +0.125 C 
ATOM     13  C   UNL     1      30.700 -24.002 -12.756  0.00  0.00    +0.033 C 
BRANCH  12  14
ATOM     14  O   UNL     1      32.020 -25.448 -14.118  0.00  0.00    -0.383 OA
ATOM     15  H   UNL     1      32.087 -25.927 -13.277  0.00  0.00    +0.210 HD
ENDBRANCH  12  14
ENDBRANCH   1  12
BRANCH   1  16
ATOM     16  C   UNL     1      31.984 -24.007 -16.317  0.00  0.00    +0.066 C 
BRANCH  16  17
ATOM     17  C   UNL     1      32.755 -22.794 -16.830  0.00  0.00    +0.207 C 
BRANCH  17  18
ATOM     18  O   UNL     1      32.730 -22.805 -18.252  0.00  0.00    -0.475 OA
BRANCH  18  19
ATOM     19  C   UNL     1      33.656 -22.025 -18.892  0.00  0.00    +0.139 C 
ATOM     20  C   UNL     1      33.231 -21.007 -19.740  0.00  0.00    +0.037 C 
ATOM     21  C   UNL     1      34.168 -20.199 -20.403  0.00  0.00    +0.003 C 
ATOM     22  C   UNL     1      35.549 -20.431 -20.201  0.00  0.00    +0.000 C 
ATOM     23  C   UNL     1      35.009 -22.258 -18.689  0.00  0.00    +0.037 C 
ATOM     24  C   UNL     1      35.952 -21.464 -19.340  0.00  0.00    +0.003 C 
ATOM     25  C   UNL     1      33.764 -19.165 -21.264  0.00  0.00    +0.000 C 
ATOM     26  C   UNL     1      36.487 -19.622 -20.865  0.00  0.00    +0.000 C 
ATOM     27  C   UNL     1      34.709 -18.371 -21.915  0.00  0.00    +0.000 C 
ATOM     28  C   UNL     1      36.067 -18.599 -21.716  0.00  0.00    +0.000 C 
ENDBRANCH  18  19
ENDBRANCH  17  18
ENDBRANCH  16  17
ENDBRANCH   1  16
TORSDOF 8
ENDMDL
MODEL 6
REMARK VINA RESULT:     -10.1      7.490     12.223
REMARK  Name = 449015
REMARK  8 active torsions:
REMARK  status: ('A' for Active; 'I' for Inactive)
REMARK    1  A    between atoms: C_1  and  N_2
REMARK    2  A    between atoms: C_1  and  C_12
REMARK    3  A    between atoms: C_1  and  C_16
REMARK    4  A    between atoms: C_6  and  C_9
REMARK    5  A    between atoms: C_12  and  O_14
REMARK    6  A    between atoms: C_16  and  C_17
REMARK    7  A    between atoms: C_17  and  O_18
REMARK    8  A    between atoms: O_18  and  C_19
REMARK                            x       y       z     vdW  Elec       q    Type
REMARK                         _______ _______ _______ _____ _____    ______ ____
ROOT
ATOM      1  C   UNL     1      33.588 -14.893 -24.072  0.00  0.00    +0.090 C 
ENDROOT
BRANCH   1   2
ATOM      2  N   UNL     1      33.239 -13.519 -23.682  0.00  0.00    -0.246 NA
ATOM      3  N   UNL     1      33.276 -11.325 -23.637  0.00  0.00    -0.251 NA
ATOM      4  C   UNL     1      32.306 -13.180 -22.767  0.00  0.00    +0.125 C 
ATOM      5  C   UNL     1      33.801 -12.399 -24.185  0.00  0.00    +0.201 C 
ATOM      6  C   UNL     1      32.343 -11.806 -22.752  0.00  0.00    +0.124 C 
BRANCH   6   9
ATOM      7  O   UNL     1      31.751  -9.715 -21.843  0.00  0.00    -0.269 OA
ATOM      8  N   UNL     1      30.449 -11.507 -21.248  0.00  0.00    -0.324 N 
ATOM      9  C   UNL     1      31.535 -10.948 -21.941  0.00  0.00    +0.257 C 
ATOM     10  H   UNL     1      29.879 -10.936 -20.684  0.00  0.00    +0.145 HD
ATOM     11  H   UNL     1      30.259 -12.469 -21.326  0.00  0.00    +0.145 HD
ENDBRANCH   6   9
ENDBRANCH   1   2
BRANCH   1  12
ATOM     12  C   UNL     1      33.831 -15.016 -25.598  0.00  0.00    +0.125 C 
ATOM     13  C   UNL     1      32.593 -14.701 -26.434  0.00  0.00    +0.033 C 
BRANCH  12  14
ATOM     14  O   UNL     1      34.237 -16.350 -25.914  0.00  0.00    -0.383 OA
ATOM     15  H   UNL     1      35.183 -16.358 -26.126  0.00  0.00    +0.210 HD
ENDBRANCH  12  14
ENDBRANCH   1  12
BRANCH   1  16
ATOM     16  C   UNL     1      34.781 -15.447 -23.256  0.00  0.00    +0.066 C 
BRANCH  16  17
ATOM     17  C   UNL     1      34.367 -16.437 -22.171  0.00  0.00    +0.207 C 
BRANCH  17  18
ATOM     18  O   UNL     1      34.547 -17.758 -22.666  0.00  0.00    -0.475 OA
BRANCH  18  19
ATOM     19  C   UNL     1      34.873 -18.722 -21.750  0.00  0.00    +0.139 C 
ATOM     20  C   UNL     1      33.872 -19.509 -21.191  0.00  0.00    +0.037 C 
ATOM     21  C   UNL     1      34.192 -20.501 -20.250  0.00  0.00    +0.003 C 
ATOM     22  C   UNL     1      35.543 -20.692 -19.876  0.00  0.00    +0.000 C 
ATOM     23  C   UNL     1      36.201 -18.903 -21.389  0.00  0.00    +0.037 C 
ATOM     24  C   UNL     1      36.536 -19.884 -20.455  0.00  0.00    +0.003 C 
ATOM     25  C   UNL     1      33.199 -21.310 -19.672  0.00  0.00    +0.000 C 
ATOM     26  C   UNL     1      35.863 -21.684 -18.936  0.00  0.00    +0.000 C 
ATOM     27  C   UNL     1      33.535 -22.291 -18.739  0.00  0.00    +0.000 C 
ATOM     28  C   UNL     1      34.864 -22.478 -18.372  0.00  0.00    +0.000 C 
ENDBRANCH  18  19
ENDBRANCH  17  18
ENDBRANCH  16  17
ENDBRANCH   1  16
TORSDOF 8
ENDMDL
MODEL 7
REMARK VINA RESULT:     -10.1      3.435      5.566
REMARK  Name = 449015
REMARK  8 active torsions:
REMARK  status: ('A' for Active; 'I' for Inactive)
REMARK    1  A    between atoms: C_1  and  N_2
REMARK    2  A    between atoms: C_1  and  C_12
REMARK    3  A    between atoms: C_1  and  C_16
REMARK    4  A    between atoms: C_6  and  C_9
REMARK    5  A    between atoms: C_12  and  O_14
REMARK    6  A    between atoms: C_16  and  C_17
REMARK    7  A    between atoms: C_17  and  O_18
REMARK    8  A    between atoms: O_18  and  C_19
REMARK                            x       y       z     vdW  Elec       q    Type
REMARK                         _______ _______ _______ _____ _____    ______ ____
ROOT
ATOM      1  C   UNL     1      33.684 -23.353 -14.934  0.00  0.00    +0.090 C 
ENDROOT
BRANCH   1   2
ATOM      2  N   UNL     1      32.219 -23.238 -15.009  0.00  0.00    -0.246 NA
ATOM      3  N   UNL     1      30.137 -23.054 -14.342  0.00  0.00    -0.251 NA
ATOM      4  C   UNL     1      31.496 -23.209 -16.149  0.00  0.00    +0.125 C 
ATOM      5  C   UNL     1      31.389 -23.144 -13.949  0.00  0.00    +0.201 C 
ATOM      6  C   UNL     1      30.197 -23.094 -15.713  0.00  0.00    +0.124 C 
BRANCH   6   9
ATOM      7  O   UNL     1      28.632 -21.940 -17.040  0.00  0.00    -0.269 OA
ATOM      8  N   UNL     1      28.327 -24.202 -16.813  0.00  0.00    -0.324 N 
ATOM      9  C   UNL     1      29.032 -23.020 -16.539  0.00  0.00    +0.257 C 
ATOM     10  H   UNL     1      27.522 -24.174 -17.379  0.00  0.00    +0.145 HD
ATOM     11  H   UNL     1      28.637 -25.058 -16.439  0.00  0.00    +0.145 HD
ENDBRANCH   6   9
ENDBRANCH   1   2
BRANCH   1  12
ATOM     12  C   UNL     1      34.125 -24.422 -13.902  0.00  0.00    +0.125 C 
ATOM     13  C   UNL     1      34.976 -23.853 -12.769  0.00  0.00    +0.033 C 
BRANCH  12  14
ATOM     14  O   UNL     1      34.897 -25.431 -14.556  0.00  0.00    -0.383 OA
ATOM     15  H   UNL     1      34.425 -25.740 -15.344  0.00  0.00    +0.210 HD
ENDBRANCH  12  14
ENDBRANCH   1  12
BRANCH   1  16
ATOM     16  C   UNL     1      34.323 -23.598 -16.321  0.00  0.00    +0.066 C 
BRANCH  16  17
ATOM     17  C   UNL     1      35.304 -22.506 -16.738  0.00  0.00    +0.207 C 
BRANCH  17  18
ATOM     18  O   UNL     1      35.662 -22.709 -18.099  0.00  0.00    -0.475 OA
BRANCH  18  19
ATOM     19  C   UNL     1      35.220 -21.777 -19.001  0.00  0.00    +0.139 C 
ATOM     20  C   UNL     1      36.136 -20.947 -19.638  0.00  0.00    +0.037 C 
ATOM     21  C   UNL     1      35.697 -19.987 -20.564  0.00  0.00    +0.003 C 
ATOM     22  C   UNL     1      34.315 -19.872 -20.842  0.00  0.00    +0.000 C 
ATOM     23  C   UNL     1      33.862 -21.671 -19.268  0.00  0.00    +0.037 C 
ATOM     24  C   UNL     1      33.411 -20.722 -20.185  0.00  0.00    +0.003 C 
ATOM     25  C   UNL     1      36.603 -19.138 -21.223  0.00  0.00    +0.000 C 
ATOM     26  C   UNL     1      33.877 -18.912 -21.769  0.00  0.00    +0.000 C 
ATOM     27  C   UNL     1      36.150 -18.189 -22.140  0.00  0.00    +0.000 C 
ATOM     28  C   UNL     1      34.790 -18.076 -22.413  0.00  0.00    +0.000 C 
ENDBRANCH  18  19
ENDBRANCH  17  18
ENDBRANCH  16  17
ENDBRANCH   1  16
TORSDOF 8
ENDMDL
MODEL 8
REMARK VINA RESULT:      -9.7      7.579     12.044
REMARK  Name = 449015
REMARK  8 active torsions:
REMARK  status: ('A' for Active; 'I' for Inactive)
REMARK    1  A    between atoms: C_1  and  N_2
REMARK    2  A    between atoms: C_1  and  C_12
REMARK    3  A    between atoms: C_1  and  C_16
REMARK    4  A    between atoms: C_6  and  C_9
REMARK    5  A    between atoms: C_12  and  O_14
REMARK    6  A    between atoms: C_16  and  C_17
REMARK    7  A    between atoms: C_17  and  O_18
REMARK    8  A    between atoms: O_18  and  C_19
REMARK                            x       y       z     vdW  Elec       q    Type
REMARK                         _______ _______ _______ _____ _____    ______ ____
ROOT
ATOM      1  C   UNL     1      33.857 -14.147 -22.314  0.00  0.00    +0.090 C 
ENDROOT
BRANCH   1   2
ATOM      2  N   UNL     1      33.749 -13.507 -23.633  0.00  0.00    -0.246 NA
ATOM      3  N   UNL     1      33.803 -11.935 -25.164  0.00  0.00    -0.251 NA
ATOM      4  C   UNL     1      33.399 -14.132 -24.777  0.00  0.00    +0.125 C 
ATOM      5  C   UNL     1      33.984 -12.202 -23.889  0.00  0.00    +0.201 C 
ATOM      6  C   UNL     1      33.437 -13.134 -25.723  0.00  0.00    +0.124 C 
BRANCH   6   9
ATOM      7  O   UNL     1      34.047 -13.444 -27.977  0.00  0.00    -0.269 OA
ATOM      8  N   UNL     1      31.806 -13.256 -27.529  0.00  0.00    -0.324 N 
ATOM      9  C   UNL     1      33.147 -13.280 -27.116  0.00  0.00    +0.257 C 
ATOM     10  H   UNL     1      31.583 -13.354 -28.482  0.00  0.00    +0.145 HD
ATOM     11  H   UNL     1      31.089 -13.141 -26.864  0.00  0.00    +0.145 HD
ENDBRANCH   6   9
ENDBRANCH   1   2
BRANCH   1  12
ATOM     12  C   UNL     1      32.774 -13.632 -21.332  0.00  0.00    +0.125 C 
ATOM     13  C   UNL     1      32.366 -14.666 -20.286  0.00  0.00    +0.033 C 
BRANCH  12  14
ATOM     14  O   UNL     1      31.600 -13.269 -22.061  0.00  0.00    -0.383 OA
ATOM     15  H   UNL     1      31.067 -14.061 -22.232  0.00  0.00    +0.210 HD
ENDBRANCH  12  14
ENDBRANCH   1  12
BRANCH   1  16
ATOM     16  C   UNL     1      33.853 -15.692 -22.411  0.00  0.00    +0.066 C 
BRANCH  16  17
ATOM     17  C   UNL     1      35.252 -16.297 -22.492  0.00  0.00    +0.207 C 
BRANCH  17  18
ATOM     18  O   UNL     1      35.140 -17.649 -22.919  0.00  0.00    -0.475 OA
BRANCH  18  19
ATOM     19  C   UNL     1      35.303 -18.615 -21.961  0.00  0.00    +0.139 C 
ATOM     20  C   UNL     1      34.194 -19.303 -21.480  0.00  0.00    +0.037 C 
ATOM     21  C   UNL     1      34.345 -20.295 -20.499  0.00  0.00    +0.003 C 
ATOM     22  C   UNL     1      35.637 -20.588 -20.003  0.00  0.00    +0.000 C 
ATOM     23  C   UNL     1      36.574 -18.897 -21.480  0.00  0.00    +0.037 C 
ATOM     24  C   UNL     1      36.741 -19.880 -20.505  0.00  0.00    +0.003 C 
ATOM     25  C   UNL     1      33.240 -21.005 -19.998  0.00  0.00    +0.000 C 
ATOM     26  C   UNL     1      35.788 -21.582 -19.022  0.00  0.00    +0.000 C 
ATOM     27  C   UNL     1      33.408 -21.987 -19.023  0.00  0.00    +0.000 C 
ATOM     28  C   UNL     1      34.680 -22.276 -18.536  0.00  0.00    +0.000 C 
ENDBRANCH  18  19
ENDBRANCH  17  18
ENDBRANCH  16  17
ENDBRANCH   1  16
TORSDOF 8
ENDMDL
MODEL 9
REMARK VINA RESULT:      -9.6     10.897     15.083
REMARK  Name = 449015
REMARK  8 active torsions:
REMARK  status: ('A' for Active; 'I' for Inactive)
REMARK    1  A    between atoms: C_1  and  N_2
REMARK    2  A    between atoms: C_1  and  C_12
REMARK    3  A    between atoms: C_1  and  C_16
REMARK    4  A    between atoms: C_6  and  C_9
REMARK    5  A    between atoms: C_12  and  O_14
REMARK    6  A    between atoms: C_16  and  C_17
REMARK    7  A    between atoms: C_17  and  O_18
REMARK    8  A    between atoms: O_18  and  C_19
REMARK                            x       y       z     vdW  Elec       q    Type
REMARK                         _______ _______ _______ _____ _____    ______ ____
ROOT
ATOM      1  C   UNL     1      32.111  -9.932 -21.514  0.00  0.00    +0.090 C 
ENDROOT
BRANCH   1   2
ATOM      2  N   UNL     1      32.021  -8.465 -21.465  0.00  0.00    -0.246 NA
ATOM      3  N   UNL     1      32.187  -6.422 -20.681  0.00  0.00    -0.251 NA
ATOM      4  C   UNL     1      31.557  -7.678 -22.459  0.00  0.00    +0.125 C 
ATOM      5  C   UNL     1      32.389  -7.695 -20.419  0.00  0.00    +0.201 C 
ATOM      6  C   UNL     1      31.668  -6.405 -21.951  0.00  0.00    +0.124 C 
BRANCH   6   9
ATOM      7  O   UNL     1      31.794  -4.870 -23.733  0.00  0.00    -0.269 OA
ATOM      8  N   UNL     1      30.360  -4.350 -22.020  0.00  0.00    -0.324 N 
ATOM      9  C   UNL     1      31.307  -5.194 -22.621  0.00  0.00    +0.257 C 
ATOM     10  H   UNL     1      30.097  -3.511 -22.462  0.00  0.00    +0.145 HD
ATOM     11  H   UNL     1      29.960  -4.598 -21.155  0.00  0.00    +0.145 HD
ENDBRANCH   6   9
ENDBRANCH   1   2
BRANCH   1  12
ATOM     12  C   UNL     1      31.018 -10.606 -20.645  0.00  0.00    +0.125 C 
ATOM     13  C   UNL     1      31.575 -11.304 -19.407  0.00  0.00    +0.033 C 
BRANCH  12  14
ATOM     14  O   UNL     1      30.327 -11.588 -21.420  0.00  0.00    -0.383 OA
ATOM     15  H   UNL     1      29.739 -11.147 -22.052  0.00  0.00    +0.210 HD
ENDBRANCH  12  14
ENDBRANCH   1  12
BRANCH   1  16
ATOM     16  C   UNL     1      32.102 -10.470 -22.965  0.00  0.00    +0.066 C 
BRANCH  16  17
ATOM     17  C   UNL     1      33.055 -11.643 -23.182  0.00  0.00    +0.207 C 
BRANCH  17  18
ATOM     18  O   UNL     1      32.320 -12.855 -23.071  0.00  0.00    -0.475 OA
BRANCH  18  19
ATOM     19  C   UNL     1      32.990 -13.939 -22.569  0.00  0.00    +0.139 C 
ATOM     20  C   UNL     1      33.565 -14.857 -23.440  0.00  0.00    +0.037 C 
ATOM     21  C   UNL     1      34.254 -15.974 -22.941  0.00  0.00    +0.003 C 
ATOM     22  C   UNL     1      34.356 -16.156 -21.541  0.00  0.00    +0.000 C 
ATOM     23  C   UNL     1      33.086 -14.111 -21.195  0.00  0.00    +0.037 C 
ATOM     24  C   UNL     1      33.767 -15.215 -20.682  0.00  0.00    +0.003 C 
ATOM     25  C   UNL     1      34.845 -16.915 -23.800  0.00  0.00    +0.000 C 
ATOM     26  C   UNL     1      35.046 -17.273 -21.041  0.00  0.00    +0.000 C 
ATOM     27  C   UNL     1      35.526 -18.019 -23.287  0.00  0.00    +0.000 C 
ATOM     28  C   UNL     1      35.627 -18.198 -21.910  0.00  0.00    +0.000 C 
ENDBRANCH  18  19
ENDBRANCH  17  18
ENDBRANCH  16  17
ENDBRANCH   1  16
TORSDOF 8
ENDMDL
