MODEL 1
REMARK VINA RESULT:      -8.3      0.000      0.000
REMARK  Name = 24883481
REMARK  6 active torsions:
REMARK  status: ('A' for Active; 'I' for Inactive)
REMARK    1  A    between atoms: C_1  and  C_11
REMARK    2  A    between atoms: C_11  and  C_13
REMARK    3  A    between atoms: C_13  and  O_14
REMARK    4  A    between atoms: O_14  and  C_15
REMARK    5  A    between atoms: C_15  and  C_16
REMARK    6  A    between atoms: C_16  and  N_17
REMARK                            x       y       z     vdW  Elec       q    Type
REMARK                         _______ _______ _______ _____ _____    ______ ____
ROOT
ATOM      1  C   UNL     1      34.592 -18.660 -22.210  0.00  0.00    -0.011 C 
ATOM      2  C   UNL     1      34.549 -17.258 -22.165  0.00  0.00    -0.003 C 
ATOM      3  C   UNL     1      34.632 -16.524 -23.372  0.00  0.00    -0.000 C 
ATOM      4  C   UNL     1      34.713 -19.331 -23.428  0.00  0.00    -0.004 C 
ATOM      5  C   UNL     1      34.428 -16.566 -20.949  0.00  0.00    -0.000 C 
ATOM      6  C   UNL     1      34.755 -17.215 -24.589  0.00  0.00    -0.000 C 
ATOM      7  C   UNL     1      34.795 -18.610 -24.615  0.00  0.00    -0.000 C 
ATOM      8  C   UNL     1      34.592 -15.121 -23.328  0.00  0.00    -0.000 C 
ATOM      9  C   UNL     1      34.388 -15.172 -20.923  0.00  0.00    -0.000 C 
ATOM     10  C   UNL     1      34.469 -14.451 -22.111  0.00  0.00    -0.000 C 
ENDROOT
BRANCH   1  11
ATOM     11  C   UNL     1      34.507 -19.497 -20.971  0.00  0.00    +0.136 C 
BRANCH  11  13
ATOM     12  O   UNL     1      36.857 -19.368 -20.353  0.00  0.00    -0.250 OA
ATOM     13  C   UNL     1      35.848 -20.039 -20.522  0.00  0.00    +0.321 C 
BRANCH  13  14
ATOM     14  O   UNL     1      35.746 -21.390 -20.339  0.00  0.00    -0.451 OA
BRANCH  14  15
ATOM     15  C   UNL     1      35.273 -21.804 -19.054  0.00  0.00    +0.185 C 
BRANCH  15  16
ATOM     16  C   UNL     1      34.077 -22.724 -19.245  0.00  0.00    -0.038 C 
BRANCH  16  17
ATOM     17  N   UNL     1      32.840 -22.035 -18.913  0.00  0.00    +0.383 N 
ATOM     18  H   UNL     1      33.057 -21.150 -18.455  0.00  0.00    -0.089 HD
ATOM     19  H   UNL     1      32.285 -22.616 -18.284  0.00  0.00    -0.089 HD
ATOM     20  H   UNL     1      32.310 -21.856 -19.766  0.00  0.00    -0.089 HD
ENDBRANCH  16  17
ENDBRANCH  15  16
ENDBRANCH  14  15
ENDBRANCH  13  14
ENDBRANCH  11  13
ENDBRANCH   1  11
TORSDOF 6
ENDMDL
MODEL 2
REMARK VINA RESULT:      -8.1      1.138      2.801
REMARK  Name = 24883481
REMARK  6 active torsions:
REMARK  status: ('A' for Active; 'I' for Inactive)
REMARK    1  A    between atoms: C_1  and  C_11
REMARK    2  A    between atoms: C_11  and  C_13
REMARK    3  A    between atoms: C_13  and  O_14
REMARK    4  A    between atoms: O_14  and  C_15
REMARK    5  A    between atoms: C_15  and  C_16
REMARK    6  A    between atoms: C_16  and  N_17
REMARK                            x       y       z     vdW  Elec       q    Type
REMARK                         _______ _______ _______ _____ _____    ______ ____
ROOT
ATOM      1  C   UNL     1      35.094 -17.180 -21.694  0.00  0.00    -0.011 C 
ATOM      2  C   UNL     1      34.691 -16.793 -22.981  0.00  0.00    -0.003 C 
ATOM      3  C   UNL     1      34.042 -15.548 -23.158  0.00  0.00    -0.000 C 
ATOM      4  C   UNL     1      34.862 -16.351 -20.595  0.00  0.00    -0.004 C 
ATOM      5  C   UNL     1      34.915 -17.613 -24.099  0.00  0.00    -0.000 C 
ATOM      6  C   UNL     1      33.816 -14.726 -22.041  0.00  0.00    -0.000 C 
ATOM      7  C   UNL     1      34.224 -15.126 -20.769  0.00  0.00    -0.000 C 
ATOM      8  C   UNL     1      33.636 -15.160 -24.447  0.00  0.00    -0.000 C 
ATOM      9  C   UNL     1      34.507 -17.213 -25.371  0.00  0.00    -0.000 C 
ATOM     10  C   UNL     1      33.869 -15.988 -25.545  0.00  0.00    -0.000 C 
ENDROOT
BRANCH   1  11
ATOM     11  C   UNL     1      35.786 -18.482 -21.437  0.00  0.00    +0.136 C 
BRANCH  11  13
ATOM     12  O   UNL     1      33.752 -19.815 -21.358  0.00  0.00    -0.250 OA
ATOM     13  C   UNL     1      34.861 -19.558 -20.909  0.00  0.00    +0.321 C 
BRANCH  13  14
ATOM     14  O   UNL     1      35.463 -20.190 -19.857  0.00  0.00    -0.451 OA
BRANCH  14  15
ATOM     15  C   UNL     1      35.492 -21.618 -19.930  0.00  0.00    +0.185 C 
BRANCH  15  16
ATOM     16  C   UNL     1      34.501 -22.181 -18.923  0.00  0.00    -0.038 C 
BRANCH  16  17
ATOM     17  N   UNL     1      33.170 -22.264 -19.504  0.00  0.00    +0.383 N 
ATOM     18  H   UNL     1      32.634 -21.435 -19.246  0.00  0.00    -0.089 HD
ATOM     19  H   UNL     1      32.696 -23.097 -19.152  0.00  0.00    -0.089 HD
ATOM     20  H   UNL     1      33.244 -22.319 -20.520  0.00  0.00    -0.089 HD
ENDBRANCH  16  17
ENDBRANCH  15  16
ENDBRANCH  14  15
ENDBRANCH  13  14
ENDBRANCH  11  13
ENDBRANCH   1  11
TORSDOF 6
ENDMDL
MODEL 3
REMARK VINA RESULT:      -8.0      2.700      4.152
REMARK  Name = 24883481
REMARK  6 active torsions:
REMARK  status: ('A' for Active; 'I' for Inactive)
REMARK    1  A    between atoms: C_1  and  C_11
REMARK    2  A    between atoms: C_11  and  C_13
REMARK    3  A    between atoms: C_13  and  O_14
REMARK    4  A    between atoms: O_14  and  C_15
REMARK    5  A    between atoms: C_15  and  C_16
REMARK    6  A    between atoms: C_16  and  N_17
REMARK                            x       y       z     vdW  Elec       q    Type
REMARK                         _______ _______ _______ _____ _____    ______ ____
ROOT
ATOM      1  C   UNL     1      35.149 -21.068 -19.800  0.00  0.00    -0.011 C 
ATOM      2  C   UNL     1      35.261 -19.936 -20.622  0.00  0.00    -0.003 C 
ATOM      3  C   UNL     1      34.088 -19.265 -21.040  0.00  0.00    -0.000 C 
ATOM      4  C   UNL     1      33.896 -21.531 -19.393  0.00  0.00    -0.004 C 
ATOM      5  C   UNL     1      36.512 -19.456 -21.041  0.00  0.00    -0.000 C 
ATOM      6  C   UNL     1      32.836 -19.745 -20.622  0.00  0.00    -0.000 C 
ATOM      7  C   UNL     1      32.742 -20.872 -19.804  0.00  0.00    -0.000 C 
ATOM      8  C   UNL     1      34.200 -18.133 -21.865  0.00  0.00    -0.000 C 
ATOM      9  C   UNL     1      36.606 -18.329 -21.859  0.00  0.00    -0.000 C 
ATOM     10  C   UNL     1      35.452 -17.670 -22.270  0.00  0.00    -0.000 C 
ENDROOT
BRANCH   1  11
ATOM     11  C   UNL     1      36.349 -21.824 -19.321  0.00  0.00    +0.136 C 
BRANCH  11  13
ATOM     12  O   UNL     1      37.201 -20.633 -17.378  0.00  0.00    -0.250 OA
ATOM     13  C   UNL     1      36.641 -21.613 -17.850  0.00  0.00    +0.321 C 
BRANCH  13  14
ATOM     14  O   UNL     1      36.181 -22.688 -17.143  0.00  0.00    -0.451 OA
BRANCH  14  15
ATOM     15  C   UNL     1      36.207 -22.547 -15.719  0.00  0.00    +0.185 C 
BRANCH  15  16
ATOM     16  C   UNL     1      36.898 -23.762 -15.120  0.00  0.00    -0.038 C 
BRANCH  16  17
ATOM     17  N   UNL     1      38.258 -23.879 -15.623  0.00  0.00    +0.383 N 
ATOM     18  H   UNL     1      38.643 -24.784 -15.353  0.00  0.00    -0.089 HD
ATOM     19  H   UNL     1      38.833 -23.134 -15.228  0.00  0.00    -0.089 HD
ATOM     20  H   UNL     1      38.253 -23.801 -16.640  0.00  0.00    -0.089 HD
ENDBRANCH  16  17
ENDBRANCH  15  16
ENDBRANCH  14  15
ENDBRANCH  13  14
ENDBRANCH  11  13
ENDBRANCH   1  11
TORSDOF 6
ENDMDL
MODEL 4
REMARK VINA RESULT:      -7.9      3.292      6.033
REMARK  Name = 24883481
REMARK  6 active torsions:
REMARK  status: ('A' for Active; 'I' for Inactive)
REMARK    1  A    between atoms: C_1  and  C_11
REMARK    2  A    between atoms: C_11  and  C_13
REMARK    3  A    between atoms: C_13  and  O_14
REMARK    4  A    between atoms: O_14  and  C_15
REMARK    5  A    between atoms: C_15  and  C_16
REMARK    6  A    between atoms: C_16  and  N_17
REMARK                            x       y       z     vdW  Elec       q    Type
REMARK                         _______ _______ _______ _____ _____    ______ ____
ROOT
ATOM      1  C   UNL     1      35.132 -18.604 -21.503  0.00  0.00    -0.011 C 
ATOM      2  C   UNL     1      34.561 -19.658 -20.772  0.00  0.00    -0.003 C 
ATOM      3  C   UNL     1      35.407 -20.588 -20.123  0.00  0.00    -0.000 C 
ATOM      4  C   UNL     1      36.519 -18.469 -21.593  0.00  0.00    -0.004 C 
ATOM      5  C   UNL     1      33.169 -19.810 -20.671  0.00  0.00    -0.000 C 
ATOM      6  C   UNL     1      36.800 -20.437 -20.224  0.00  0.00    -0.000 C 
ATOM      7  C   UNL     1      37.351 -19.384 -20.955  0.00  0.00    -0.000 C 
ATOM      8  C   UNL     1      34.836 -21.643 -19.393  0.00  0.00    -0.000 C 
ATOM      9  C   UNL     1      32.618 -20.863 -19.940  0.00  0.00    -0.000 C 
ATOM     10  C   UNL     1      33.450 -21.778 -19.302  0.00  0.00    -0.000 C 
ENDROOT
BRANCH   1  11
ATOM     11  C   UNL     1      34.296 -17.585 -22.213  0.00  0.00    +0.136 C 
BRANCH  11  13
ATOM     12  O   UNL     1      34.942 -17.848 -24.544  0.00  0.00    -0.250 OA
ATOM     13  C   UNL     1      34.880 -17.151 -23.540  0.00  0.00    +0.321 C 
BRANCH  13  14
ATOM     14  O   UNL     1      35.322 -15.862 -23.435  0.00  0.00    -0.451 OA
BRANCH  14  15
ATOM     15  C   UNL     1      34.473 -14.977 -22.697  0.00  0.00    +0.185 C 
BRANCH  15  16
ATOM     16  C   UNL     1      33.649 -14.158 -23.678  0.00  0.00    -0.038 C 
BRANCH  16  17
ATOM     17  N   UNL     1      34.117 -12.781 -23.718  0.00  0.00    +0.383 N 
ATOM     18  H   UNL     1      33.479 -12.222 -24.284  0.00  0.00    -0.089 HD
ATOM     19  H   UNL     1      35.051 -12.750 -24.129  0.00  0.00    -0.089 HD
ATOM     20  H   UNL     1      34.151 -12.405 -22.770  0.00  0.00    -0.089 HD
ENDBRANCH  16  17
ENDBRANCH  15  16
ENDBRANCH  14  15
ENDBRANCH  13  14
ENDBRANCH  11  13
ENDBRANCH   1  11
TORSDOF 6
ENDMDL
MODEL 5
REMARK VINA RESULT:      -7.7      1.895      2.697
REMARK  Name = 24883481
REMARK  6 active torsions:
REMARK  status: ('A' for Active; 'I' for Inactive)
REMARK    1  A    between atoms: C_1  and  C_11
REMARK    2  A    between atoms: C_11  and  C_13
REMARK    3  A    between atoms: C_13  and  O_14
REMARK    4  A    between atoms: O_14  and  C_15
REMARK    5  A    between atoms: C_15  and  C_16
REMARK    6  A    between atoms: C_16  and  N_17
REMARK                            x       y       z     vdW  Elec       q    Type
REMARK                         _______ _______ _______ _____ _____    ______ ____
ROOT
ATOM      1  C   UNL     1      34.664 -16.662 -23.683  0.00  0.00    -0.011 C 
ATOM      2  C   UNL     1      34.035 -15.765 -22.805  0.00  0.00    -0.003 C 
ATOM      3  C   UNL     1      33.241 -14.720 -23.335  0.00  0.00    -0.000 C 
ATOM      4  C   UNL     1      34.512 -16.532 -25.064  0.00  0.00    -0.004 C 
ATOM      5  C   UNL     1      34.176 -15.881 -21.413  0.00  0.00    -0.000 C 
ATOM      6  C   UNL     1      33.100 -14.603 -24.728  0.00  0.00    -0.000 C 
ATOM      7  C   UNL     1      33.732 -15.504 -25.586  0.00  0.00    -0.000 C 
ATOM      8  C   UNL     1      32.613 -13.822 -22.457  0.00  0.00    -0.000 C 
ATOM      9  C   UNL     1      33.544 -14.980 -20.555  0.00  0.00    -0.000 C 
ATOM     10  C   UNL     1      32.764 -13.953 -21.076  0.00  0.00    -0.000 C 
ENDROOT
BRANCH   1  11
ATOM     11  C   UNL     1      35.516 -17.790 -23.190  0.00  0.00    +0.136 C 
BRANCH  11  13
ATOM     12  O   UNL     1      34.919 -19.881 -24.281  0.00  0.00    -0.250 OA
ATOM     13  C   UNL     1      34.846 -19.143 -23.308  0.00  0.00    +0.321 C 
BRANCH  13  14
ATOM     14  O   UNL     1      34.153 -19.401 -22.159  0.00  0.00    -0.451 OA
BRANCH  14  15
ATOM     15  C   UNL     1      34.940 -19.853 -21.053  0.00  0.00    +0.185 C 
BRANCH  15  16
ATOM     16  C   UNL     1      34.057 -20.675 -20.127  0.00  0.00    -0.038 C 
BRANCH  16  17
ATOM     17  N   UNL     1      32.661 -20.576 -20.527  0.00  0.00    +0.383 N 
ATOM     18  H   UNL     1      32.187 -21.455 -20.324  0.00  0.00    -0.089 HD
ATOM     19  H   UNL     1      32.606 -20.383 -21.527  0.00  0.00    -0.089 HD
ATOM     20  H   UNL     1      32.212 -19.820 -20.010  0.00  0.00    -0.089 HD
ENDBRANCH  16  17
ENDBRANCH  15  16
ENDBRANCH  14  15
ENDBRANCH  13  14
ENDBRANCH  11  13
ENDBRANCH   1  11
TORSDOF 6
ENDMDL
MODEL 6
REMARK VINA RESULT:      -7.7      4.861      7.503
REMARK  Name = 24883481
REMARK  6 active torsions:
REMARK  status: ('A' for Active; 'I' for Inactive)
REMARK    1  A    between atoms: C_1  and  C_11
REMARK    2  A    between atoms: C_11  and  C_13
REMARK    3  A    between atoms: C_13  and  O_14
REMARK    4  A    between atoms: O_14  and  C_15
REMARK    5  A    between atoms: C_15  and  C_16
REMARK    6  A    between atoms: C_16  and  N_17
REMARK                            x       y       z     vdW  Elec       q    Type
REMARK                         _______ _______ _______ _____ _____    ______ ____
ROOT
ATOM      1  C   UNL     1      34.390 -15.065 -22.987  0.00  0.00    -0.011 C 
ATOM      2  C   UNL     1      34.513 -16.411 -23.366  0.00  0.00    -0.003 C 
ATOM      3  C   UNL     1      34.716 -17.395 -22.369  0.00  0.00    -0.000 C 
ATOM      4  C   UNL     1      34.465 -14.694 -21.643  0.00  0.00    -0.004 C 
ATOM      5  C   UNL     1      34.441 -16.803 -24.712  0.00  0.00    -0.000 C 
ATOM      6  C   UNL     1      34.790 -17.004 -21.022  0.00  0.00    -0.000 C 
ATOM      7  C   UNL     1      34.665 -15.661 -20.663  0.00  0.00    -0.000 C 
ATOM      8  C   UNL     1      34.842 -18.742 -22.749  0.00  0.00    -0.000 C 
ATOM      9  C   UNL     1      34.566 -18.146 -25.071  0.00  0.00    -0.000 C 
ATOM     10  C   UNL     1      34.766 -19.113 -24.091  0.00  0.00    -0.000 C 
ENDROOT
BRANCH   1  11
ATOM     11  C   UNL     1      34.173 -13.974 -23.989  0.00  0.00    +0.136 C 
BRANCH  11  13
ATOM     12  O   UNL     1      32.091 -13.252 -22.956  0.00  0.00    -0.250 OA
ATOM     13  C   UNL     1      33.115 -12.976 -23.567  0.00  0.00    +0.321 C 
BRANCH  13  14
ATOM     14  O   UNL     1      33.488 -11.728 -23.978  0.00  0.00    -0.451 OA
BRANCH  14  15
ATOM     15  C   UNL     1      33.904 -11.626 -25.344  0.00  0.00    +0.185 C 
BRANCH  15  16
ATOM     16  C   UNL     1      35.027 -10.605 -25.439  0.00  0.00    -0.038 C 
BRANCH  16  17
ATOM     17  N   UNL     1      35.128  -9.838 -24.207  0.00  0.00    +0.383 N 
ATOM     18  H   UNL     1      34.593 -10.301 -23.473  0.00  0.00    -0.089 HD
ATOM     19  H   UNL     1      34.756  -8.900 -24.358  0.00  0.00    -0.089 HD
ATOM     20  H   UNL     1      36.107  -9.773 -23.926  0.00  0.00    -0.089 HD
ENDBRANCH  16  17
ENDBRANCH  15  16
ENDBRANCH  14  15
ENDBRANCH  13  14
ENDBRANCH  11  13
ENDBRANCH   1  11
TORSDOF 6
ENDMDL
MODEL 7
REMARK VINA RESULT:      -7.6      5.124      7.484
REMARK  Name = 24883481
REMARK  6 active torsions:
REMARK  status: ('A' for Active; 'I' for Inactive)
REMARK    1  A    between atoms: C_1  and  C_11
REMARK    2  A    between atoms: C_11  and  C_13
REMARK    3  A    between atoms: C_13  and  O_14
REMARK    4  A    between atoms: O_14  and  C_15
REMARK    5  A    between atoms: C_15  and  C_16
REMARK    6  A    between atoms: C_16  and  N_17
REMARK                            x       y       z     vdW  Elec       q    Type
REMARK                         _______ _______ _______ _____ _____    ______ ____
ROOT
ATOM      1  C   UNL     1      35.973 -22.692 -16.381  0.00  0.00    -0.011 C 
ATOM      2  C   UNL     1      35.677 -22.179 -17.654  0.00  0.00    -0.003 C 
ATOM      3  C   UNL     1      34.376 -22.348 -18.183  0.00  0.00    -0.000 C 
ATOM      4  C   UNL     1      34.998 -23.360 -15.638  0.00  0.00    -0.004 C 
ATOM      5  C   UNL     1      36.645 -21.504 -18.415  0.00  0.00    -0.000 C 
ATOM      6  C   UNL     1      33.407 -23.024 -17.422  0.00  0.00    -0.000 C 
ATOM      7  C   UNL     1      33.718 -23.526 -16.158  0.00  0.00    -0.000 C 
ATOM      8  C   UNL     1      34.080 -21.836 -19.457  0.00  0.00    -0.000 C 
ATOM      9  C   UNL     1      36.334 -21.002 -19.679  0.00  0.00    -0.000 C 
ATOM     10  C   UNL     1      35.054 -21.167 -20.199  0.00  0.00    -0.000 C 
ENDROOT
BRANCH   1  11
ATOM     11  C   UNL     1      37.328 -22.548 -15.762  0.00  0.00    +0.136 C 
BRANCH  11  13
ATOM     12  O   UNL     1      37.610 -23.277 -13.458  0.00  0.00    -0.250 OA
ATOM     13  C   UNL     1      37.588 -23.544 -14.652  0.00  0.00    +0.321 C 
BRANCH  13  14
ATOM     14  O   UNL     1      37.793 -24.780 -15.198  0.00  0.00    -0.451 OA
BRANCH  14  15
ATOM     15  C   UNL     1      38.262 -25.784 -14.293  0.00  0.00    +0.185 C 
BRANCH  15  16
ATOM     16  C   UNL     1      37.156 -26.805 -14.079  0.00  0.00    -0.038 C 
BRANCH  16  17
ATOM     17  N   UNL     1      36.235 -26.808 -15.205  0.00  0.00    +0.383 N 
ATOM     18  H   UNL     1      35.642 -27.637 -15.157  0.00  0.00    -0.089 HD
ATOM     19  H   UNL     1      36.763 -26.820 -16.078  0.00  0.00    -0.089 HD
ATOM     20  H   UNL     1      35.653 -25.971 -15.171  0.00  0.00    -0.089 HD
ENDBRANCH  16  17
ENDBRANCH  15  16
ENDBRANCH  14  15
ENDBRANCH  13  14
ENDBRANCH  11  13
ENDBRANCH   1  11
TORSDOF 6
ENDMDL
MODEL 8
REMARK VINA RESULT:      -7.5      4.390      6.661
REMARK  Name = 24883481
REMARK  6 active torsions:
REMARK  status: ('A' for Active; 'I' for Inactive)
REMARK    1  A    between atoms: C_1  and  C_11
REMARK    2  A    between atoms: C_11  and  C_13
REMARK    3  A    between atoms: C_13  and  O_14
REMARK    4  A    between atoms: O_14  and  C_15
REMARK    5  A    between atoms: C_15  and  C_16
REMARK    6  A    between atoms: C_16  and  N_17
REMARK                            x       y       z     vdW  Elec       q    Type
REMARK                         _______ _______ _______ _____ _____    ______ ____
ROOT
ATOM      1  C   UNL     1      34.347 -15.790 -23.538  0.00  0.00    -0.011 C 
ATOM      2  C   UNL     1      34.684 -16.991 -22.894  0.00  0.00    -0.003 C 
ATOM      3  C   UNL     1      34.729 -18.190 -23.645  0.00  0.00    -0.000 C 
ATOM      4  C   UNL     1      34.059 -15.770 -24.903  0.00  0.00    -0.004 C 
ATOM      5  C   UNL     1      34.978 -17.030 -21.521  0.00  0.00    -0.000 C 
ATOM      6  C   UNL     1      34.435 -18.152 -25.018  0.00  0.00    -0.000 C 
ATOM      7  C   UNL     1      34.102 -16.949 -25.642  0.00  0.00    -0.000 C 
ATOM      8  C   UNL     1      35.064 -19.392 -23.001  0.00  0.00    -0.000 C 
ATOM      9  C   UNL     1      35.310 -18.233 -20.898  0.00  0.00    -0.000 C 
ATOM     10  C   UNL     1      35.353 -19.412 -21.636  0.00  0.00    -0.000 C 
ENDROOT
BRANCH   1  11
ATOM     11  C   UNL     1      34.284 -14.487 -22.804  0.00  0.00    +0.136 C 
BRANCH  11  13
ATOM     12  O   UNL     1      32.082 -14.434 -21.769  0.00  0.00    -0.250 OA
ATOM     13  C   UNL     1      32.870 -13.987 -22.592  0.00  0.00    +0.321 C 
BRANCH  13  14
ATOM     14  O   UNL     1      32.621 -12.964 -23.463  0.00  0.00    -0.451 OA
BRANCH  14  15
ATOM     15  C   UNL     1      33.633 -11.955 -23.533  0.00  0.00    +0.185 C 
BRANCH  15  16
ATOM     16  C   UNL     1      33.889 -11.619 -24.994  0.00  0.00    -0.038 C 
BRANCH  16  17
ATOM     17  N   UNL     1      35.061 -10.769 -25.128  0.00  0.00    +0.383 N 
ATOM     18  H   UNL     1      35.137 -10.444 -26.092  0.00  0.00    -0.089 HD
ATOM     19  H   UNL     1      35.897 -11.300 -24.882  0.00  0.00    -0.089 HD
ATOM     20  H   UNL     1      34.973  -9.966 -24.505  0.00  0.00    -0.089 HD
ENDBRANCH  16  17
ENDBRANCH  15  16
ENDBRANCH  14  15
ENDBRANCH  13  14
ENDBRANCH  11  13
ENDBRANCH   1  11
TORSDOF 6
ENDMDL
MODEL 9
REMARK VINA RESULT:      -7.5      9.122     11.755
REMARK  Name = 24883481
REMARK  6 active torsions:
REMARK  status: ('A' for Active; 'I' for Inactive)
REMARK    1  A    between atoms: C_1  and  C_11
REMARK    2  A    between atoms: C_11  and  C_13
REMARK    3  A    between atoms: C_13  and  O_14
REMARK    4  A    between atoms: O_14  and  C_15
REMARK    5  A    between atoms: C_15  and  C_16
REMARK    6  A    between atoms: C_16  and  N_17
REMARK                            x       y       z     vdW  Elec       q    Type
REMARK                         _______ _______ _______ _____ _____    ______ ____
ROOT
ATOM      1  C   UNL     1      32.695  -6.874 -22.789  0.00  0.00    -0.011 C 
ATOM      2  C   UNL     1      32.472  -6.029 -23.888  0.00  0.00    -0.003 C 
ATOM      3  C   UNL     1      33.431  -5.976 -24.927  0.00  0.00    -0.000 C 
ATOM      4  C   UNL     1      33.847  -7.658 -22.717  0.00  0.00    -0.004 C 
ATOM      5  C   UNL     1      31.319  -5.233 -23.978  0.00  0.00    -0.000 C 
ATOM      6  C   UNL     1      34.586  -6.772 -24.837  0.00  0.00    -0.000 C 
ATOM      7  C   UNL     1      34.791  -7.607 -23.738  0.00  0.00    -0.000 C 
ATOM      8  C   UNL     1      33.210  -5.129 -26.025  0.00  0.00    -0.000 C 
ATOM      9  C   UNL     1      31.114  -4.397 -25.077  0.00  0.00    -0.000 C 
ATOM     10  C   UNL     1      32.057  -4.346 -26.099  0.00  0.00    -0.000 C 
ENDROOT
BRANCH   1  11
ATOM     11  C   UNL     1      31.721  -6.979 -21.657  0.00  0.00    +0.136 C 
BRANCH  11  13
ATOM     12  O   UNL     1      32.828  -7.450 -19.543  0.00  0.00    -0.250 OA
ATOM     13  C   UNL     1      32.214  -7.851 -20.522  0.00  0.00    +0.321 C 
BRANCH  13  14
ATOM     14  O   UNL     1      31.862  -9.148 -20.769  0.00  0.00    -0.451 OA
BRANCH  14  15
ATOM     15  C   UNL     1      31.616  -9.951 -19.610  0.00  0.00    +0.185 C 
BRANCH  15  16
ATOM     16  C   UNL     1      31.368 -11.385 -20.052  0.00  0.00    -0.038 C 
BRANCH  16  17
ATOM     17  N   UNL     1      30.575 -11.417 -21.271  0.00  0.00    +0.383 N 
ATOM     18  H   UNL     1      30.714 -10.550 -21.790  0.00  0.00    -0.089 HD
ATOM     19  H   UNL     1      29.587 -11.514 -21.033  0.00  0.00    -0.089 HD
ATOM     20  H   UNL     1      30.865 -12.208 -21.846  0.00  0.00    -0.089 HD
ENDBRANCH  16  17
ENDBRANCH  15  16
ENDBRANCH  14  15
ENDBRANCH  13  14
ENDBRANCH  11  13
ENDBRANCH   1  11
TORSDOF 6
ENDMDL
