MODEL 1
REMARK VINA RESULT:      -4.5      0.000      0.000
REMARK  Name = 7058174
REMARK  4 active torsions:
REMARK  status: ('A' for Active; 'I' for Inactive)
REMARK    1  A    between atoms: C_1  and  N_2
REMARK    2  A    between atoms: C_1  and  C_8
REMARK    3  A    between atoms: C_1  and  C_9
REMARK    4  A    between atoms: C_9  and  S_10
REMARK                            x       y       z     vdW  Elec       q    Type
REMARK                         _______ _______ _______ _____ _____    ______ ____
ROOT
ATOM      1  C   UNK     1      38.770 -25.249 -14.490  0.00  0.00    +0.051 C 
ENDROOT
BRANCH   1   2
ATOM      2  N   UNK     1      37.849 -26.055 -15.354  0.00  0.00    +0.389 N 
ATOM      3  H   UNK     1      37.986 -25.796 -16.331  0.00  0.00    -0.088 HD
ATOM      4  H   UNK     1      36.882 -25.872 -15.086  0.00  0.00    -0.088 HD
ATOM      5  H   UNK     1      38.053 -27.048 -15.235  0.00  0.00    -0.088 HD
ENDBRANCH   1   2
BRANCH   1   8
ATOM      6  O   UNK     1      41.038 -24.620 -14.195  0.00  0.00    -0.248 OA
ATOM      7  O   UNK     1      40.516 -26.059 -15.888  0.00  0.00    -0.248 OA
ATOM      8  C   UNK     1      40.254 -25.324 -14.894  0.00  0.00    +0.346 C 
ENDBRANCH   1   8
BRANCH   1   9
ATOM      9  C   UNK     1      38.446 -25.603 -13.036  0.00  0.00    +0.047 C 
BRANCH   9  10
ATOM     10  S   UNK     1      37.841 -24.187 -12.059  0.00  0.00    -0.141 S 
ATOM     11  C   UNK     1      36.134 -24.735 -11.845  0.00  0.00    +0.069 C 
ENDBRANCH   9  10
ENDBRANCH   1   9
TORSDOF 4
ENDMDL
MODEL 2
REMARK VINA RESULT:      -4.5      1.283      1.661
REMARK  Name = 7058174
REMARK  4 active torsions:
REMARK  status: ('A' for Active; 'I' for Inactive)
REMARK    1  A    between atoms: C_1  and  N_2
REMARK    2  A    between atoms: C_1  and  C_8
REMARK    3  A    between atoms: C_1  and  C_9
REMARK    4  A    between atoms: C_9  and  S_10
REMARK                            x       y       z     vdW  Elec       q    Type
REMARK                         _______ _______ _______ _____ _____    ______ ____
ROOT
ATOM      1  C   UNK     1      38.747 -25.488 -14.531  0.00  0.00    +0.051 C 
ENDROOT
BRANCH   1   2
ATOM      2  N   UNK     1      38.201 -26.877 -14.405  0.00  0.00    +0.389 N 
ATOM      3  H   UNK     1      37.489 -26.897 -13.675  0.00  0.00    -0.088 HD
ATOM      4  H   UNK     1      38.955 -27.519 -14.162  0.00  0.00    -0.088 HD
ATOM      5  H   UNK     1      37.785 -27.161 -15.292  0.00  0.00    -0.088 HD
ENDBRANCH   1   2
BRANCH   1   8
ATOM      6  O   UNK     1      40.931 -24.637 -14.170  0.00  0.00    -0.248 OA
ATOM      7  O   UNK     1      40.608 -26.131 -15.864  0.00  0.00    -0.248 OA
ATOM      8  C   UNK     1      40.243 -25.419 -14.886  0.00  0.00    +0.346 C 
ENDBRANCH   1   8
BRANCH   1   9
ATOM      9  C   UNK     1      38.312 -24.719 -13.280  0.00  0.00    +0.047 C 
BRANCH   9  10
ATOM     10  S   UNK     1      36.982 -23.511 -13.591  0.00  0.00    -0.141 S 
ATOM     11  C   UNK     1      37.295 -23.234 -15.347  0.00  0.00    +0.069 C 
ENDBRANCH   9  10
ENDBRANCH   1   9
TORSDOF 4
ENDMDL
MODEL 3
REMARK VINA RESULT:      -4.5      2.496      2.903
REMARK  Name = 7058174
REMARK  4 active torsions:
REMARK  status: ('A' for Active; 'I' for Inactive)
REMARK    1  A    between atoms: C_1  and  N_2
REMARK    2  A    between atoms: C_1  and  C_8
REMARK    3  A    between atoms: C_1  and  C_9
REMARK    4  A    between atoms: C_9  and  S_10
REMARK                            x       y       z     vdW  Elec       q    Type
REMARK                         _______ _______ _______ _____ _____    ______ ____
ROOT
ATOM      1  C   UNK     1      36.634 -25.549 -14.363  0.00  0.00    +0.051 C 
ENDROOT
BRANCH   1   2
ATOM      2  N   UNK     1      35.176 -25.358 -14.652  0.00  0.00    +0.389 N 
ATOM      3  H   UNK     1      35.067 -24.804 -15.501  0.00  0.00    -0.088 HD
ATOM      4  H   UNK     1      34.734 -24.874 -13.870  0.00  0.00    -0.088 HD
ATOM      5  H   UNK     1      34.733 -26.268 -14.782  0.00  0.00    -0.088 HD
ENDBRANCH   1   2
BRANCH   1   8
ATOM      6  O   UNK     1      36.625 -27.186 -16.079  0.00  0.00    -0.248 OA
ATOM      7  O   UNK     1      38.368 -27.157 -14.608  0.00  0.00    -0.248 OA
ATOM      8  C   UNK     1      37.278 -26.743 -15.092  0.00  0.00    +0.346 C 
ENDBRANCH   1   8
BRANCH   1   9
ATOM      9  C   UNK     1      36.798 -25.517 -12.841  0.00  0.00    +0.047 C 
BRANCH   9  10
ATOM     10  S   UNK     1      38.101 -24.376 -12.272  0.00  0.00    -0.141 S 
ATOM     11  C   UNK     1      37.035 -23.038 -11.694  0.00  0.00    +0.069 C 
ENDBRANCH   9  10
ENDBRANCH   1   9
TORSDOF 4
ENDMDL
MODEL 4
REMARK VINA RESULT:      -4.5      4.154      4.781
REMARK  Name = 7058174
REMARK  4 active torsions:
REMARK  status: ('A' for Active; 'I' for Inactive)
REMARK    1  A    between atoms: C_1  and  N_2
REMARK    2  A    between atoms: C_1  and  C_8
REMARK    3  A    between atoms: C_1  and  C_9
REMARK    4  A    between atoms: C_9  and  S_10
REMARK                            x       y       z     vdW  Elec       q    Type
REMARK                         _______ _______ _______ _____ _____    ______ ____
ROOT
ATOM      1  C   UNK     1      36.830 -23.469 -11.960  0.00  0.00    +0.051 C 
ENDROOT
BRANCH   1   2
ATOM      2  N   UNK     1      38.282 -23.660 -11.643  0.00  0.00    +0.389 N 
ATOM      3  H   UNK     1      38.832 -23.559 -12.496  0.00  0.00    -0.088 HD
ATOM      4  H   UNK     1      38.425 -24.593 -11.255  0.00  0.00    -0.088 HD
ATOM      5  H   UNK     1      38.576 -22.959 -10.963  0.00  0.00    -0.088 HD
ENDBRANCH   1   2
BRANCH   1   8
ATOM      6  O   UNK     1      36.122 -24.117  -9.792  0.00  0.00    -0.248 OA
ATOM      7  O   UNK     1      34.950 -24.880 -11.595  0.00  0.00    -0.248 OA
ATOM      8  C   UNK     1      35.867 -24.223 -11.025  0.00  0.00    +0.346 C 
ENDBRANCH   1   8
BRANCH   1   9
ATOM      9  C   UNK     1      36.660 -23.730 -13.460  0.00  0.00    +0.047 C 
BRANCH   9  10
ATOM     10  S   UNK     1      37.987 -24.755 -14.176  0.00  0.00    -0.141 S 
ATOM     11  C   UNK     1      37.247 -26.375 -13.879  0.00  0.00    +0.069 C 
ENDBRANCH   9  10
ENDBRANCH   1   9
TORSDOF 4
ENDMDL
MODEL 5
REMARK VINA RESULT:      -4.3      9.411     10.290
REMARK  Name = 7058174
REMARK  4 active torsions:
REMARK  status: ('A' for Active; 'I' for Inactive)
REMARK    1  A    between atoms: C_1  and  N_2
REMARK    2  A    between atoms: C_1  and  C_8
REMARK    3  A    between atoms: C_1  and  C_9
REMARK    4  A    between atoms: C_9  and  S_10
REMARK                            x       y       z     vdW  Elec       q    Type
REMARK                         _______ _______ _______ _____ _____    ______ ____
ROOT
ATOM      1  C   UNK     1      29.525 -23.480 -16.515  0.00  0.00    +0.051 C 
ENDROOT
BRANCH   1   2
ATOM      2  N   UNK     1      30.707 -22.616 -16.833  0.00  0.00    +0.389 N 
ATOM      3  H   UNK     1      31.540 -23.003 -16.389  0.00  0.00    -0.088 HD
ATOM      4  H   UNK     1      30.543 -21.672 -16.484  0.00  0.00    -0.088 HD
ATOM      5  H   UNK     1      30.844 -22.586 -17.844  0.00  0.00    -0.088 HD
ENDBRANCH   1   2
BRANCH   1   8
ATOM      6  O   UNK     1      27.494 -23.778 -17.702  0.00  0.00    -0.248 OA
ATOM      7  O   UNK     1      27.932 -21.735 -16.786  0.00  0.00    -0.248 OA
ATOM      8  C   UNK     1      28.182 -22.946 -17.045  0.00  0.00    +0.346 C 
ENDBRANCH   1   8
BRANCH   1   9
ATOM      9  C   UNK     1      29.586 -23.789 -15.016  0.00  0.00    +0.047 C 
BRANCH   9  10
ATOM     10  S   UNK     1      31.169 -23.325 -14.240  0.00  0.00    -0.141 S 
ATOM     11  C   UNK     1      31.742 -24.984 -13.816  0.00  0.00    +0.069 C 
ENDBRANCH   9  10
ENDBRANCH   1   9
TORSDOF 4
ENDMDL
MODEL 6
REMARK VINA RESULT:      -4.2      4.019      4.762
REMARK  Name = 7058174
REMARK  4 active torsions:
REMARK  status: ('A' for Active; 'I' for Inactive)
REMARK    1  A    between atoms: C_1  and  N_2
REMARK    2  A    between atoms: C_1  and  C_8
REMARK    3  A    between atoms: C_1  and  C_9
REMARK    4  A    between atoms: C_9  and  S_10
REMARK                            x       y       z     vdW  Elec       q    Type
REMARK                         _______ _______ _______ _____ _____    ______ ____
ROOT
ATOM      1  C   UNK     1      35.645 -24.254 -12.676  0.00  0.00    +0.051 C 
ENDROOT
BRANCH   1   2
ATOM      2  N   UNK     1      34.308 -23.615 -12.902  0.00  0.00    +0.389 N 
ATOM      3  H   UNK     1      34.413 -22.601 -12.907  0.00  0.00    -0.088 HD
ATOM      4  H   UNK     1      33.670 -23.888 -12.154  0.00  0.00    -0.088 HD
ATOM      5  H   UNK     1      33.932 -23.922 -13.799  0.00  0.00    -0.088 HD
ENDBRANCH   1   2
BRANCH   1   8
ATOM      6  O   UNK     1      37.103 -23.893 -10.841  0.00  0.00    -0.248 OA
ATOM      7  O   UNK     1      35.222 -25.142 -10.511  0.00  0.00    -0.248 OA
ATOM      8  C   UNK     1      36.021 -24.442 -11.195  0.00  0.00    +0.346 C 
ENDBRANCH   1   8
BRANCH   1   9
ATOM      9  C   UNK     1      36.656 -23.494 -13.540  0.00  0.00    +0.047 C 
BRANCH   9  10
ATOM     10  S   UNK     1      37.690 -24.580 -14.578  0.00  0.00    -0.141 S 
ATOM     11  C   UNK     1      36.441 -25.824 -14.969  0.00  0.00    +0.069 C 
ENDBRANCH   9  10
ENDBRANCH   1   9
TORSDOF 4
ENDMDL
MODEL 7
REMARK VINA RESULT:      -4.2      3.205      4.314
REMARK  Name = 7058174
REMARK  4 active torsions:
REMARK  status: ('A' for Active; 'I' for Inactive)
REMARK    1  A    between atoms: C_1  and  N_2
REMARK    2  A    between atoms: C_1  and  C_8
REMARK    3  A    between atoms: C_1  and  C_9
REMARK    4  A    between atoms: C_9  and  S_10
REMARK                            x       y       z     vdW  Elec       q    Type
REMARK                         _______ _______ _______ _____ _____    ______ ____
ROOT
ATOM      1  C   UNK     1      36.728 -24.054 -12.883  0.00  0.00    +0.051 C 
ENDROOT
BRANCH   1   2
ATOM      2  N   UNK     1      35.566 -23.248 -13.377  0.00  0.00    +0.389 N 
ATOM      3  H   UNK     1      35.029 -22.903 -12.582  0.00  0.00    -0.088 HD
ATOM      4  H   UNK     1      34.969 -23.833 -13.962  0.00  0.00    -0.088 HD
ATOM      5  H   UNK     1      35.908 -22.457 -13.924  0.00  0.00    -0.088 HD
ENDBRANCH   1   2
BRANCH   1   8
ATOM      6  O   UNK     1      36.707 -23.918 -10.516  0.00  0.00    -0.248 OA
ATOM      7  O   UNK     1      38.359 -22.834 -11.656  0.00  0.00    -0.248 OA
ATOM      8  C   UNK     1      37.330 -23.559 -11.555  0.00  0.00    +0.346 C 
ENDBRANCH   1   8
BRANCH   1   9
ATOM      9  C   UNK     1      37.703 -24.201 -14.055  0.00  0.00    +0.047 C 
BRANCH   9  10
ATOM     10  S   UNK     1      38.333 -25.899 -14.270  0.00  0.00    -0.141 S 
ATOM     11  C   UNK     1      40.064 -25.490 -14.584  0.00  0.00    +0.069 C 
ENDBRANCH   9  10
ENDBRANCH   1   9
TORSDOF 4
ENDMDL
MODEL 8
REMARK VINA RESULT:      -4.1      4.182      5.052
REMARK  Name = 7058174
REMARK  4 active torsions:
REMARK  status: ('A' for Active; 'I' for Inactive)
REMARK    1  A    between atoms: C_1  and  N_2
REMARK    2  A    between atoms: C_1  and  C_8
REMARK    3  A    between atoms: C_1  and  C_9
REMARK    4  A    between atoms: C_9  and  S_10
REMARK                            x       y       z     vdW  Elec       q    Type
REMARK                         _______ _______ _______ _____ _____    ______ ____
ROOT
ATOM      1  C   UNK     1      35.623 -24.260 -12.749  0.00  0.00    +0.051 C 
ENDROOT
BRANCH   1   2
ATOM      2  N   UNK     1      34.266 -23.639 -12.885  0.00  0.00    +0.389 N 
ATOM      3  H   UNK     1      33.552 -24.366 -12.826  0.00  0.00    -0.088 HD
ATOM      4  H   UNK     1      34.196 -23.166 -13.786  0.00  0.00    -0.088 HD
ATOM      5  H   UNK     1      34.124 -22.964 -12.134  0.00  0.00    -0.088 HD
ENDBRANCH   1   2
BRANCH   1   8
ATOM      6  O   UNK     1      35.234 -25.082 -10.558  0.00  0.00    -0.248 OA
ATOM      7  O   UNK     1      37.221 -24.052 -11.001  0.00  0.00    -0.248 OA
ATOM      8  C   UNK     1      36.076 -24.494 -11.296  0.00  0.00    +0.346 C 
ENDBRANCH   1   8
BRANCH   1   9
ATOM      9  C   UNK     1      36.576 -23.453 -13.634  0.00  0.00    +0.047 C 
BRANCH   9  10
ATOM     10  S   UNK     1      35.866 -23.004 -15.252  0.00  0.00    -0.141 S 
ATOM     11  C   UNK     1      37.374 -22.392 -16.033  0.00  0.00    +0.069 C 
ENDBRANCH   9  10
ENDBRANCH   1   9
TORSDOF 4
ENDMDL
MODEL 9
REMARK VINA RESULT:      -4.1     11.602     12.176
REMARK  Name = 7058174
REMARK  4 active torsions:
REMARK  status: ('A' for Active; 'I' for Inactive)
REMARK    1  A    between atoms: C_1  and  N_2
REMARK    2  A    between atoms: C_1  and  C_8
REMARK    3  A    between atoms: C_1  and  C_9
REMARK    4  A    between atoms: C_9  and  S_10
REMARK                            x       y       z     vdW  Elec       q    Type
REMARK                         _______ _______ _______ _____ _____    ______ ____
ROOT
ATOM      1  C   UNK     1      41.275 -14.368 -16.378  0.00  0.00    +0.051 C 
ENDROOT
BRANCH   1   2
ATOM      2  N   UNK     1      41.541 -13.394 -15.270  0.00  0.00    +0.389 N 
ATOM      3  H   UNK     1      40.656 -13.027 -14.920  0.00  0.00    -0.088 HD
ATOM      4  H   UNK     1      42.113 -12.626 -15.622  0.00  0.00    -0.088 HD
ATOM      5  H   UNK     1      42.035 -13.867 -14.513  0.00  0.00    -0.088 HD
ENDBRANCH   1   2
BRANCH   1   8
ATOM      6  O   UNK     1      40.452 -16.471 -15.656  0.00  0.00    -0.248 OA
ATOM      7  O   UNK     1      42.689 -16.250 -16.045  0.00  0.00    -0.248 OA
ATOM      8  C   UNK     1      41.494 -15.843 -15.997  0.00  0.00    +0.346 C 
ENDBRANCH   1   8
BRANCH   1   9
ATOM      9  C   UNK     1      42.034 -13.866 -17.609  0.00  0.00    +0.047 C 
BRANCH   9  10
ATOM     10  S   UNK     1      43.491 -12.848 -17.202  0.00  0.00    -0.141 S 
ATOM     11  C   UNK     1      42.890 -11.272 -17.845  0.00  0.00    +0.069 C 
ENDBRANCH   9  10
ENDBRANCH   1   9
TORSDOF 4
ENDMDL
