MODEL 1
REMARK VINA RESULT:      -6.9      0.000      0.000
REMARK  Name = 71653
REMARK  2 active torsions:
REMARK  status: ('A' for Active; 'I' for Inactive)
REMARK    1  A    between atoms: N_1  and  N_14
REMARK    2  A    between atoms: C_5  and  C_11
REMARK                            x       y       z     vdW  Elec       q    Type
REMARK                         _______ _______ _______ _____ _____    ______ ____
ROOT
ATOM      1  N   UNL     1      36.340 -23.924 -10.605  0.00  0.00    -0.266 N 
ATOM      2  N   UNL     1      38.393 -23.707 -11.800  0.00  0.00    -0.132 NA
ATOM      3  N   UNL     1      39.278 -24.170 -12.723  0.00  0.00    -0.142 NA
ATOM      4  C   UNL     1      37.261 -24.404 -11.565  0.00  0.00    +0.163 C 
ATOM      5  C   UNL     1      39.002 -25.316 -13.382  0.00  0.00    +0.156 C 
ATOM      6  C   UNL     1      36.953 -25.578 -12.224  0.00  0.00    +0.039 C 
ATOM      7  C   UNL     1      37.852 -26.049 -13.163  0.00  0.00    +0.029 C 
ATOM      8  H   UNL     1      36.430 -23.000 -10.276  0.00  0.00    +0.168 HD
ENDROOT
BRANCH   5  11
ATOM      9  O   UNL     1      40.941 -26.487 -14.028  0.00  0.00    -0.269 OA
ATOM     10  N   UNL     1      39.837 -25.328 -15.671  0.00  0.00    -0.324 N 
ATOM     11  C   UNL     1      39.991 -25.749 -14.351  0.00  0.00    +0.262 C 
ATOM     12  H   UNL     1      40.490 -25.604 -16.354  0.00  0.00    +0.145 HD
ATOM     13  H   UNL     1      39.075 -24.756 -15.919  0.00  0.00    +0.145 HD
ENDBRANCH   5  11
BRANCH   1  14
ATOM     14  N   UNL     1      35.326 -24.713 -10.122  0.00  0.00    -0.255 NA
ATOM     15  H   UNL     1      34.489 -24.577 -10.689  0.00  0.00    +0.140 HD
ATOM     16  H   UNL     1      35.127 -24.454  -9.155  0.00  0.00    +0.140 HD
ENDBRANCH   1  14
TORSDOF 2
ENDMDL
MODEL 2
REMARK VINA RESULT:      -6.7     10.033     10.593
REMARK  Name = 71653
REMARK  2 active torsions:
REMARK  status: ('A' for Active; 'I' for Inactive)
REMARK    1  A    between atoms: N_1  and  N_14
REMARK    2  A    between atoms: C_5  and  C_11
REMARK                            x       y       z     vdW  Elec       q    Type
REMARK                         _______ _______ _______ _____ _____    ______ ____
ROOT
ATOM      1  N   UNL     1      34.947 -22.278 -19.108  0.00  0.00    -0.266 N 
ATOM      2  N   UNL     1      36.197 -20.388 -19.854  0.00  0.00    -0.132 NA
ATOM      3  N   UNL     1      36.263 -19.198 -20.509  0.00  0.00    -0.142 NA
ATOM      4  C   UNL     1      35.016 -21.040 -19.789  0.00  0.00    +0.163 C 
ATOM      5  C   UNL     1      35.145 -18.699 -21.079  0.00  0.00    +0.156 C 
ATOM      6  C   UNL     1      33.859 -20.553 -20.362  0.00  0.00    +0.039 C 
ATOM      7  C   UNL     1      33.925 -19.342 -21.028  0.00  0.00    +0.029 C 
ATOM      8  H   UNL     1      35.693 -22.545 -18.523  0.00  0.00    +0.168 HD
ENDROOT
BRANCH   5  11
ATOM      9  O   UNL     1      34.965 -16.354 -21.217  0.00  0.00    -0.269 OA
ATOM     10  N   UNL     1      35.826 -17.434 -23.048  0.00  0.00    -0.324 N 
ATOM     11  C   UNL     1      35.290 -17.426 -21.761  0.00  0.00    +0.262 C 
ATOM     12  H   UNL     1      35.938 -16.588 -23.539  0.00  0.00    +0.145 HD
ATOM     13  H   UNL     1      36.092 -18.285 -23.464  0.00  0.00    +0.145 HD
ENDBRANCH   5  11
BRANCH   1  14
ATOM     14  N   UNL     1      33.867 -23.115 -19.243  0.00  0.00    -0.255 NA
ATOM     15  H   UNL     1      33.860 -23.511 -20.183  0.00  0.00    +0.140 HD
ATOM     16  H   UNL     1      33.008 -22.587 -19.090  0.00  0.00    +0.140 HD
ENDBRANCH   1  14
TORSDOF 2
ENDMDL
MODEL 3
REMARK VINA RESULT:      -6.6      9.691     10.060
REMARK  Name = 71653
REMARK  2 active torsions:
REMARK  status: ('A' for Active; 'I' for Inactive)
REMARK    1  A    between atoms: N_1  and  N_14
REMARK    2  A    between atoms: C_5  and  C_11
REMARK                            x       y       z     vdW  Elec       q    Type
REMARK                         _______ _______ _______ _____ _____    ______ ____
ROOT
ATOM      1  N   UNL     1      33.016 -22.796 -18.469  0.00  0.00    -0.266 N 
ATOM      2  N   UNL     1      32.657 -20.846 -19.794  0.00  0.00    -0.132 NA
ATOM      3  N   UNL     1      33.142 -19.825 -20.550  0.00  0.00    -0.142 NA
ATOM      4  C   UNL     1      33.519 -21.734 -19.256  0.00  0.00    +0.163 C 
ATOM      5  C   UNL     1      34.475 -19.724 -20.742  0.00  0.00    +0.156 C 
ATOM      6  C   UNL     1      34.886 -21.656 -19.435  0.00  0.00    +0.039 C 
ATOM      7  C   UNL     1      35.380 -20.618 -20.205  0.00  0.00    +0.029 C 
ATOM      8  H   UNL     1      32.051 -22.996 -18.494  0.00  0.00    +0.168 HD
ENDROOT
BRANCH   5  11
ATOM      9  O   UNL     1      34.975 -18.692 -22.799  0.00  0.00    -0.269 OA
ATOM     10  N   UNL     1      35.271 -17.427 -20.910  0.00  0.00    -0.324 N 
ATOM     11  C   UNL     1      34.920 -18.610 -21.558  0.00  0.00    +0.262 C 
ATOM     12  H   UNL     1      35.577 -16.652 -21.433  0.00  0.00    +0.145 HD
ATOM     13  H   UNL     1      35.211 -17.368 -19.929  0.00  0.00    +0.145 HD
ENDBRANCH   5  11
BRANCH   1  14
ATOM     14  N   UNL     1      33.837 -23.556 -17.673  0.00  0.00    -0.255 NA
ATOM     15  H   UNL     1      34.171 -22.991 -16.892  0.00  0.00    +0.140 HD
ATOM     16  H   UNL     1      34.634 -23.882 -18.221  0.00  0.00    +0.140 HD
ENDBRANCH   1  14
TORSDOF 2
ENDMDL
MODEL 4
REMARK VINA RESULT:      -6.5      2.582      4.703
REMARK  Name = 71653
REMARK  2 active torsions:
REMARK  status: ('A' for Active; 'I' for Inactive)
REMARK    1  A    between atoms: N_1  and  N_14
REMARK    2  A    between atoms: C_5  and  C_11
REMARK                            x       y       z     vdW  Elec       q    Type
REMARK                         _______ _______ _______ _____ _____    ______ ____
ROOT
ATOM      1  N   UNL     1      39.873 -25.020 -15.343  0.00  0.00    -0.266 N 
ATOM      2  N   UNL     1      37.905 -23.878 -14.628  0.00  0.00    -0.132 NA
ATOM      3  N   UNL     1      36.846 -23.764 -13.783  0.00  0.00    -0.142 NA
ATOM      4  C   UNL     1      38.771 -24.900 -14.464  0.00  0.00    +0.163 C 
ATOM      5  C   UNL     1      36.686 -24.678 -12.801  0.00  0.00    +0.156 C 
ATOM      6  C   UNL     1      38.633 -25.849 -13.470  0.00  0.00    +0.039 C 
ATOM      7  C   UNL     1      37.556 -25.733 -12.610  0.00  0.00    +0.029 C 
ATOM      8  H   UNL     1      40.110 -24.258 -15.920  0.00  0.00    +0.168 HD
ENDROOT
BRANCH   5  11
ATOM      9  O   UNL     1      35.432 -25.092 -10.851  0.00  0.00    -0.269 OA
ATOM     10  N   UNL     1      34.544 -23.606 -12.355  0.00  0.00    -0.324 N 
ATOM     11  C   UNL     1      35.534 -24.494 -11.938  0.00  0.00    +0.262 C 
ATOM     12  H   UNL     1      33.749 -23.457 -11.794  0.00  0.00    +0.145 HD
ATOM     13  H   UNL     1      34.641 -23.127 -13.210  0.00  0.00    +0.145 HD
ENDBRANCH   5  11
BRANCH   1  14
ATOM     14  N   UNL     1      40.619 -26.171 -15.411  0.00  0.00    -0.255 NA
ATOM     15  H   UNL     1      40.963 -26.297 -16.363  0.00  0.00    +0.140 HD
ATOM     16  H   UNL     1      40.037 -26.967 -15.152  0.00  0.00    +0.140 HD
ENDBRANCH   1  14
TORSDOF 2
ENDMDL
MODEL 5
REMARK VINA RESULT:      -6.5      9.686     10.575
REMARK  Name = 71653
REMARK  2 active torsions:
REMARK  status: ('A' for Active; 'I' for Inactive)
REMARK    1  A    between atoms: N_1  and  N_14
REMARK    2  A    between atoms: C_5  and  C_11
REMARK                            x       y       z     vdW  Elec       q    Type
REMARK                         _______ _______ _______ _____ _____    ______ ____
ROOT
ATOM      1  N   UNL     1      35.709 -17.680 -22.080  0.00  0.00    -0.266 N 
ATOM      2  N   UNL     1      36.186 -19.455 -20.560  0.00  0.00    -0.132 NA
ATOM      3  N   UNL     1      35.776 -20.519 -19.818  0.00  0.00    -0.142 NA
ATOM      4  C   UNL     1      35.283 -18.787 -21.308  0.00  0.00    +0.163 C 
ATOM      5  C   UNL     1      34.475 -20.878 -19.848  0.00  0.00    +0.156 C 
ATOM      6  C   UNL     1      33.947 -19.132 -21.358  0.00  0.00    +0.039 C 
ATOM      7  C   UNL     1      33.530 -20.214 -20.604  0.00  0.00    +0.029 C 
ATOM      8  H   UNL     1      36.673 -17.540 -22.225  0.00  0.00    +0.168 HD
ENDROOT
BRANCH   5  11
ATOM      9  O   UNL     1      34.971 -22.785 -18.556  0.00  0.00    -0.269 OA
ATOM     10  N   UNL     1      32.757 -22.233 -18.776  0.00  0.00    -0.324 N 
ATOM     11  C   UNL     1      34.110 -22.022 -19.031  0.00  0.00    +0.262 C 
ATOM     12  H   UNL     1      32.474 -22.999 -18.226  0.00  0.00    +0.145 HD
ATOM     13  H   UNL     1      32.084 -21.616 -19.145  0.00  0.00    +0.145 HD
ENDBRANCH   5  11
BRANCH   1  14
ATOM     14  N   UNL     1      34.812 -16.798 -22.630  0.00  0.00    -0.255 NA
ATOM     15  H   UNL     1      33.903 -16.913 -22.181  0.00  0.00    +0.140 HD
ATOM     16  H   UNL     1      34.724 -16.984 -23.630  0.00  0.00    +0.140 HD
ENDBRANCH   1  14
TORSDOF 2
ENDMDL
MODEL 6
REMARK VINA RESULT:      -6.4      2.044      2.137
REMARK  Name = 71653
REMARK  2 active torsions:
REMARK  status: ('A' for Active; 'I' for Inactive)
REMARK    1  A    between atoms: N_1  and  N_14
REMARK    2  A    between atoms: C_5  and  C_11
REMARK                            x       y       z     vdW  Elec       q    Type
REMARK                         _______ _______ _______ _____ _____    ______ ____
ROOT
ATOM      1  N   UNL     1      35.445 -23.318 -13.542  0.00  0.00    -0.266 N 
ATOM      2  N   UNL     1      37.580 -23.394 -14.602  0.00  0.00    -0.132 NA
ATOM      3  N   UNL     1      38.728 -24.058 -14.903  0.00  0.00    -0.142 NA
ATOM      4  C   UNL     1      36.639 -24.009 -13.855  0.00  0.00    +0.163 C 
ATOM      5  C   UNL     1      38.897 -25.318 -14.446  0.00  0.00    +0.156 C 
ATOM      6  C   UNL     1      36.785 -25.295 -13.375  0.00  0.00    +0.039 C 
ATOM      7  C   UNL     1      37.952 -25.972 -13.681  0.00  0.00    +0.029 C 
ATOM      8  H   UNL     1      35.226 -22.493 -14.033  0.00  0.00    +0.168 HD
ENDROOT
BRANCH   5  11
ATOM      9  O   UNL     1      40.575 -25.949 -15.974  0.00  0.00    -0.269 OA
ATOM     10  N   UNL     1      40.867 -26.595 -13.794  0.00  0.00    -0.324 N 
ATOM     11  C   UNL     1      40.145 -25.965 -14.805  0.00  0.00    +0.262 C 
ATOM     12  H   UNL     1      41.718 -27.045 -14.003  0.00  0.00    +0.145 HD
ATOM     13  H   UNL     1      40.526 -26.590 -12.870  0.00  0.00    +0.145 HD
ENDBRANCH   5  11
BRANCH   1  14
ATOM     14  N   UNL     1      34.586 -23.768 -12.570  0.00  0.00    -0.255 NA
ATOM     15  H   UNL     1      35.097 -24.357 -11.911  0.00  0.00    +0.140 HD
ATOM     16  H   UNL     1      33.839 -24.311 -13.003  0.00  0.00    +0.140 HD
ENDBRANCH   1  14
TORSDOF 2
ENDMDL
MODEL 7
REMARK VINA RESULT:      -6.4     10.358     11.320
REMARK  Name = 71653
REMARK  2 active torsions:
REMARK  status: ('A' for Active; 'I' for Inactive)
REMARK    1  A    between atoms: N_1  and  N_14
REMARK    2  A    between atoms: C_5  and  C_11
REMARK                            x       y       z     vdW  Elec       q    Type
REMARK                         _______ _______ _______ _____ _____    ______ ____
ROOT
ATOM      1  N   UNL     1      26.382 -21.751 -18.247  0.00  0.00    -0.266 N 
ATOM      2  N   UNL     1      27.812 -23.585 -17.718  0.00  0.00    -0.132 NA
ATOM      3  N   UNL     1      28.636 -24.229 -16.849  0.00  0.00    -0.142 NA
ATOM      4  C   UNL     1      27.240 -22.421 -17.344  0.00  0.00    +0.163 C 
ATOM      5  C   UNL     1      28.863 -23.686 -15.633  0.00  0.00    +0.156 C 
ATOM      6  C   UNL     1      27.453 -21.844 -16.108  0.00  0.00    +0.039 C 
ATOM      7  C   UNL     1      28.291 -22.498 -15.223  0.00  0.00    +0.029 C 
ATOM      8  H   UNL     1      26.052 -22.232 -19.041  0.00  0.00    +0.168 HD
ENDROOT
BRANCH   5  11
ATOM      9  O   UNL     1      30.631 -23.855 -14.085  0.00  0.00    -0.269 OA
ATOM     10  N   UNL     1      29.586 -25.808 -14.679  0.00  0.00    -0.324 N 
ATOM     11  C   UNL     1      29.754 -24.427 -14.759  0.00  0.00    +0.262 C 
ATOM     12  H   UNL     1      30.174 -26.342 -14.095  0.00  0.00    +0.145 HD
ATOM     13  H   UNL     1      28.881 -26.250 -15.205  0.00  0.00    +0.145 HD
ENDBRANCH   5  11
BRANCH   1  14
ATOM     14  N   UNL     1      25.999 -20.448 -18.045  0.00  0.00    -0.255 NA
ATOM     15  H   UNL     1      25.362 -20.162 -18.788  0.00  0.00    +0.140 HD
ATOM     16  H   UNL     1      26.823 -19.847 -18.053  0.00  0.00    +0.140 HD
ENDBRANCH   1  14
TORSDOF 2
ENDMDL
MODEL 8
REMARK VINA RESULT:      -6.3      9.608     10.551
REMARK  Name = 71653
REMARK  2 active torsions:
REMARK  status: ('A' for Active; 'I' for Inactive)
REMARK    1  A    between atoms: N_1  and  N_14
REMARK    2  A    between atoms: C_5  and  C_11
REMARK                            x       y       z     vdW  Elec       q    Type
REMARK                         _______ _______ _______ _____ _____    ______ ____
ROOT
ATOM      1  N   UNL     1      34.728 -18.172 -22.124  0.00  0.00    -0.266 N 
ATOM      2  N   UNL     1      33.140 -19.579 -21.035  0.00  0.00    -0.132 NA
ATOM      3  N   UNL     1      32.854 -20.621 -20.210  0.00  0.00    -0.142 NA
ATOM      4  C   UNL     1      34.430 -19.256 -21.266  0.00  0.00    +0.163 C 
ATOM      5  C   UNL     1      33.870 -21.309 -19.644  0.00  0.00    +0.156 C 
ATOM      6  C   UNL     1      35.487 -19.941 -20.702  0.00  0.00    +0.039 C 
ATOM      7  C   UNL     1      35.198 -21.002 -19.862  0.00  0.00    +0.029 C 
ATOM      8  H   UNL     1      34.009 -17.546 -22.373  0.00  0.00    +0.168 HD
ENDROOT
BRANCH   5  11
ATOM      9  O   UNL     1      34.239 -23.388 -18.600  0.00  0.00    -0.269 OA
ATOM     10  N   UNL     1      32.261 -22.330 -18.125  0.00  0.00    -0.324 N 
ATOM     11  C   UNL     1      33.490 -22.409 -18.776  0.00  0.00    +0.262 C 
ATOM     12  H   UNL     1      31.972 -23.059 -17.529  0.00  0.00    +0.145 HD
ATOM     13  H   UNL     1      31.682 -21.545 -18.260  0.00  0.00    +0.145 HD
ENDBRANCH   5  11
BRANCH   1  14
ATOM     14  N   UNL     1      35.993 -17.971 -22.619  0.00  0.00    -0.255 NA
ATOM     15  H   UNL     1      36.668 -18.026 -21.857  0.00  0.00    +0.140 HD
ATOM     16  H   UNL     1      36.044 -17.049 -23.054  0.00  0.00    +0.140 HD
ENDBRANCH   1  14
TORSDOF 2
ENDMDL
MODEL 9
REMARK VINA RESULT:      -6.2      8.723      9.697
REMARK  Name = 71653
REMARK  2 active torsions:
REMARK  status: ('A' for Active; 'I' for Inactive)
REMARK    1  A    between atoms: N_1  and  N_14
REMARK    2  A    between atoms: C_5  and  C_11
REMARK                            x       y       z     vdW  Elec       q    Type
REMARK                         _______ _______ _______ _____ _____    ______ ____
ROOT
ATOM      1  N   UNL     1      32.734 -24.051 -14.367  0.00  0.00    -0.266 N 
ATOM      2  N   UNL     1      31.478 -23.014 -16.109  0.00  0.00    -0.132 NA
ATOM      3  N   UNL     1      30.289 -22.749 -16.712  0.00  0.00    -0.142 NA
ATOM      4  C   UNL     1      31.497 -23.775 -14.995  0.00  0.00    +0.163 C 
ATOM      5  C   UNL     1      29.155 -23.257 -16.182  0.00  0.00    +0.156 C 
ATOM      6  C   UNL     1      30.355 -24.307 -14.431  0.00  0.00    +0.039 C 
ATOM      7  C   UNL     1      29.144 -24.038 -15.043  0.00  0.00    +0.029 C 
ATOM      8  H   UNL     1      33.528 -23.525 -14.620  0.00  0.00    +0.168 HD
ENDROOT
BRANCH   5  11
ATOM      9  O   UNL     1      27.697 -23.355 -18.029  0.00  0.00    -0.269 OA
ATOM     10  N   UNL     1      26.985 -22.150 -16.212  0.00  0.00    -0.324 N 
ATOM     11  C   UNL     1      27.924 -22.935 -16.879  0.00  0.00    +0.262 C 
ATOM     12  H   UNL     1      26.138 -21.913 -16.655  0.00  0.00    +0.145 HD
ATOM     13  H   UNL     1      27.167 -21.835 -15.297  0.00  0.00    +0.145 HD
ENDBRANCH   5  11
BRANCH   1  14
ATOM     14  N   UNL     1      32.856 -25.032 -13.414  0.00  0.00    -0.255 NA
ATOM     15  H   UNL     1      32.401 -24.728 -12.553  0.00  0.00    +0.140 HD
ATOM     16  H   UNL     1      33.844 -25.207 -13.232  0.00  0.00    +0.140 HD
ENDBRANCH   1  14
TORSDOF 2
ENDMDL
