MODEL 1
REMARK VINA RESULT:      -5.8      0.000      0.000
REMARK  Name = 5287781
REMARK  2 active torsions:
REMARK  status: ('A' for Active; 'I' for Inactive)
REMARK    1  A    between atoms: CA_3  and  C_9
REMARK    2  A    between atoms: C_9  and  O_10
REMARK                            x       y       z     vdW  Elec       q    Type
REMARK                         _______ _______ _______ _____ _____    ______ ____
ROOT
ATOM      1  N   ILE A   1      38.621 -26.064 -13.084  0.00  0.00    -0.324 N 
ATOM      2  CB  ILE A   1      38.040 -25.020 -15.110  0.00  0.00    +0.052 C 
ATOM      3  CA  ILE A   1      39.209 -25.227 -14.106  0.00  0.00    +0.173 C 
ATOM      4  CG1 ILE A   1      36.909 -25.816 -14.491  0.00  0.00    -0.009 C 
ATOM      5  CG2 ILE A   1      37.669 -23.549 -15.254  0.00  0.00    +0.007 C 
ATOM      6  CD1 ILE A   1      37.323 -26.371 -13.349  0.00  0.00    +0.054 C 
ATOM      7  H   ILE A   1      39.105 -26.377 -12.286  0.00  0.00    +0.147 HD
ENDROOT
BRANCH   3   9
ATOM      8  OXT ILE A   1      41.184 -26.614 -14.099  0.00  0.00    -0.248 OA
ATOM      9  C   ILE A   1      40.351 -25.971 -14.720  0.00  0.00    +0.332 C 
BRANCH   9  10
ATOM     10  O   ILE A   1      40.342 -25.834 -16.068  0.00  0.00    -0.479 OA
ATOM     11  H   ILE A   1      39.961 -26.501 -16.605  0.00  0.00    +0.295 HD
ENDBRANCH   9  10
ENDBRANCH   3   9
TORSDOF 2
ENDMDL
MODEL 2
REMARK VINA RESULT:      -5.7      1.493      2.288
REMARK  Name = 5287781
REMARK  2 active torsions:
REMARK  status: ('A' for Active; 'I' for Inactive)
REMARK    1  A    between atoms: CA_3  and  C_9
REMARK    2  A    between atoms: C_9  and  O_10
REMARK                            x       y       z     vdW  Elec       q    Type
REMARK                         _______ _______ _______ _____ _____    ______ ____
ROOT
ATOM      1  N   ILE A   1      37.984 -24.400 -15.467  0.00  0.00    -0.324 N 
ATOM      2  CB  ILE A   1      38.252 -25.011 -13.212  0.00  0.00    +0.052 C 
ATOM      3  CA  ILE A   1      38.631 -25.414 -14.665  0.00  0.00    +0.173 C 
ATOM      4  CG1 ILE A   1      37.417 -23.762 -13.407  0.00  0.00    -0.009 C 
ATOM      5  CG2 ILE A   1      37.458 -26.104 -12.508  0.00  0.00    +0.007 C 
ATOM      6  CD1 ILE A   1      37.315 -23.489 -14.711  0.00  0.00    +0.054 C 
ATOM      7  H   ILE A   1      38.024 -24.371 -16.450  0.00  0.00    +0.147 HD
ENDROOT
BRANCH   3   9
ATOM      8  OXT ILE A   1      40.903 -24.768 -14.171  0.00  0.00    -0.248 OA
ATOM      9  C   ILE A   1      40.104 -25.330 -14.904  0.00  0.00    +0.332 C 
BRANCH   9  10
ATOM     10  O   ILE A   1      40.439 -25.965 -16.054  0.00  0.00    -0.479 OA
ATOM     11  H   ILE A   1      39.804 -26.066 -16.736  0.00  0.00    +0.295 HD
ENDBRANCH   9  10
ENDBRANCH   3   9
TORSDOF 2
ENDMDL
MODEL 3
REMARK VINA RESULT:      -5.7      2.422      3.150
REMARK  Name = 5287781
REMARK  2 active torsions:
REMARK  status: ('A' for Active; 'I' for Inactive)
REMARK    1  A    between atoms: CA_3  and  C_9
REMARK    2  A    between atoms: C_9  and  O_10
REMARK                            x       y       z     vdW  Elec       q    Type
REMARK                         _______ _______ _______ _____ _____    ______ ____
ROOT
ATOM      1  N   ILE A   1      37.014 -26.571 -13.107  0.00  0.00    -0.324 N 
ATOM      2  CB  ILE A   1      38.669 -25.440 -14.337  0.00  0.00    +0.052 C 
ATOM      3  CA  ILE A   1      37.682 -26.640 -14.387  0.00  0.00    +0.173 C 
ATOM      4  CG1 ILE A   1      38.396 -24.826 -12.978  0.00  0.00    -0.009 C 
ATOM      5  CG2 ILE A   1      40.119 -25.890 -14.462  0.00  0.00    +0.007 C 
ATOM      6  CD1 ILE A   1      37.450 -25.529 -12.350  0.00  0.00    +0.054 C 
ATOM      7  H   ILE A   1      36.321 -27.207 -12.815  0.00  0.00    +0.147 HD
ENDROOT
BRANCH   3   9
ATOM      8  OXT ILE A   1      35.788 -25.616 -15.477  0.00  0.00    -0.248 OA
ATOM      9  C   ILE A   1      36.655 -26.478 -15.460  0.00  0.00    +0.332 C 
BRANCH   9  10
ATOM     10  O   ILE A   1      36.811 -27.422 -16.419  0.00  0.00    -0.479 OA
ATOM     11  H   ILE A   1      37.496 -27.339 -17.053  0.00  0.00    +0.295 HD
ENDBRANCH   9  10
ENDBRANCH   3   9
TORSDOF 2
ENDMDL
MODEL 4
REMARK VINA RESULT:      -5.5     11.191     12.211
REMARK  Name = 5287781
REMARK  2 active torsions:
REMARK  status: ('A' for Active; 'I' for Inactive)
REMARK    1  A    between atoms: CA_3  and  C_9
REMARK    2  A    between atoms: C_9  and  O_10
REMARK                            x       y       z     vdW  Elec       q    Type
REMARK                         _______ _______ _______ _____ _____    ______ ____
ROOT
ATOM      1  N   ILE A   1      42.511 -13.267 -15.792  0.00  0.00    -0.324 N 
ATOM      2  CB  ILE A   1      41.342 -14.484 -17.430  0.00  0.00    +0.052 C 
ATOM      3  CA  ILE A   1      41.931 -14.576 -15.995  0.00  0.00    +0.173 C 
ATOM      4  CG1 ILE A   1      41.675 -13.066 -17.849  0.00  0.00    -0.009 C 
ATOM      5  CG2 ILE A   1      41.973 -15.503 -18.370  0.00  0.00    +0.007 C 
ATOM      6  CD1 ILE A   1      42.337 -12.451 -16.866  0.00  0.00    +0.054 C 
ATOM      7  H   ILE A   1      42.978 -12.995 -14.969  0.00  0.00    +0.147 HD
ENDROOT
BRANCH   3   9
ATOM      8  OXT ILE A   1      40.652 -14.035 -14.021  0.00  0.00    -0.248 OA
ATOM      9  C   ILE A   1      40.869 -14.782 -14.963  0.00  0.00    +0.332 C 
BRANCH   9  10
ATOM     10  O   ILE A   1      40.175 -15.919 -15.212  0.00  0.00    -0.479 OA
ATOM     11  H   ILE A   1      39.399 -16.111 -14.723  0.00  0.00    +0.295 HD
ENDBRANCH   9  10
ENDBRANCH   3   9
TORSDOF 2
ENDMDL
MODEL 5
REMARK VINA RESULT:      -5.3     10.385     11.627
REMARK  Name = 5287781
REMARK  2 active torsions:
REMARK  status: ('A' for Active; 'I' for Inactive)
REMARK    1  A    between atoms: CA_3  and  C_9
REMARK    2  A    between atoms: C_9  and  O_10
REMARK                            x       y       z     vdW  Elec       q    Type
REMARK                         _______ _______ _______ _____ _____    ______ ____
ROOT
ATOM      1  N   ILE A   1      41.220 -14.446 -17.817  0.00  0.00    -0.324 N 
ATOM      2  CB  ILE A   1      41.742 -14.109 -15.549  0.00  0.00    +0.052 C 
ATOM      3  CA  ILE A   1      41.129 -15.131 -16.547  0.00  0.00    +0.173 C 
ATOM      4  CG1 ILE A   1      42.122 -12.943 -16.439  0.00  0.00    -0.009 C 
ATOM      5  CG2 ILE A   1      40.741 -13.687 -14.480  0.00  0.00    +0.007 C 
ATOM      6  CD1 ILE A   1      41.790 -13.217 -17.704  0.00  0.00    +0.054 C 
ATOM      7  H   ILE A   1      40.905 -14.826 -18.669  0.00  0.00    +0.147 HD
ENDROOT
BRANCH   3   9
ATOM      8  OXT ILE A   1      41.510 -17.470 -17.000  0.00  0.00    -0.248 OA
ATOM      9  C   ILE A   1      41.936 -16.386 -16.633  0.00  0.00    +0.332 C 
BRANCH   9  10
ATOM     10  O   ILE A   1      43.215 -16.160 -16.246  0.00  0.00    -0.479 OA
ATOM     11  H   ILE A   1      43.397 -15.542 -15.565  0.00  0.00    +0.295 HD
ENDBRANCH   9  10
ENDBRANCH   3   9
TORSDOF 2
ENDMDL
MODEL 6
REMARK VINA RESULT:      -5.3     10.599     12.018
REMARK  Name = 5287781
REMARK  2 active torsions:
REMARK  status: ('A' for Active; 'I' for Inactive)
REMARK    1  A    between atoms: CA_3  and  C_9
REMARK    2  A    between atoms: C_9  and  O_10
REMARK                            x       y       z     vdW  Elec       q    Type
REMARK                         _______ _______ _______ _____ _____    ______ ____
ROOT
ATOM      1  N   ILE A   1      35.882 -17.462 -22.864  0.00  0.00    -0.324 N 
ATOM      2  CB  ILE A   1      34.387 -18.832 -21.673  0.00  0.00    +0.052 C 
ATOM      3  CA  ILE A   1      35.300 -17.580 -21.546  0.00  0.00    +0.173 C 
ATOM      4  CG1 ILE A   1      34.580 -19.254 -23.115  0.00  0.00    -0.009 C 
ATOM      5  CG2 ILE A   1      34.801 -19.938 -20.711  0.00  0.00    +0.007 C 
ATOM      6  CD1 ILE A   1      35.442 -18.427 -23.714  0.00  0.00    +0.054 C 
ATOM      7  H   ILE A   1      36.524 -16.760 -23.119  0.00  0.00    +0.147 HD
ENDROOT
BRANCH   3   9
ATOM      8  OXT ILE A   1      33.589 -15.927 -21.947  0.00  0.00    -0.248 OA
ATOM      9  C   ILE A   1      34.516 -16.339 -21.266  0.00  0.00    +0.332 C 
BRANCH   9  10
ATOM     10  O   ILE A   1      34.975 -15.724 -20.150  0.00  0.00    -0.479 OA
ATOM     11  H   ILE A   1      34.544 -15.859 -19.329  0.00  0.00    +0.295 HD
ENDBRANCH   9  10
ENDBRANCH   3   9
TORSDOF 2
ENDMDL
MODEL 7
REMARK VINA RESULT:      -5.3      9.439     10.350
REMARK  Name = 5287781
REMARK  2 active torsions:
REMARK  status: ('A' for Active; 'I' for Inactive)
REMARK    1  A    between atoms: CA_3  and  C_9
REMARK    2  A    between atoms: C_9  and  O_10
REMARK                            x       y       z     vdW  Elec       q    Type
REMARK                         _______ _______ _______ _____ _____    ______ ____
ROOT
ATOM      1  N   ILE A   1      36.239 -18.997 -20.658  0.00  0.00    -0.324 N 
ATOM      2  CB  ILE A   1      34.269 -20.210 -21.079  0.00  0.00    +0.052 C 
ATOM      3  CA  ILE A   1      34.982 -18.857 -21.359  0.00  0.00    +0.173 C 
ATOM      4  CG1 ILE A   1      35.276 -20.962 -20.232  0.00  0.00    -0.009 C 
ATOM      5  CG2 ILE A   1      32.953 -20.016 -20.335  0.00  0.00    +0.007 C 
ATOM      6  CD1 ILE A   1      36.358 -20.203 -20.041  0.00  0.00    +0.054 C 
ATOM      7  H   ILE A   1      36.932 -18.298 -20.630  0.00  0.00    +0.147 HD
ENDROOT
BRANCH   3   9
ATOM      8  OXT ILE A   1      34.817 -19.350 -23.715  0.00  0.00    -0.248 OA
ATOM      9  C   ILE A   1      35.275 -18.666 -22.811  0.00  0.00    +0.332 C 
BRANCH   9  10
ATOM     10  O   ILE A   1      36.125 -17.627 -22.996  0.00  0.00    -0.479 OA
ATOM     11  H   ILE A   1      36.587 -17.538 -23.806  0.00  0.00    +0.295 HD
ENDBRANCH   9  10
ENDBRANCH   3   9
TORSDOF 2
ENDMDL
MODEL 8
REMARK VINA RESULT:      -5.2     12.564     13.921
REMARK  Name = 5287781
REMARK  2 active torsions:
REMARK  status: ('A' for Active; 'I' for Inactive)
REMARK    1  A    between atoms: CA_3  and  C_9
REMARK    2  A    between atoms: C_9  and  O_10
REMARK                            x       y       z     vdW  Elec       q    Type
REMARK                         _______ _______ _______ _____ _____    ______ ____
ROOT
ATOM      1  N   ILE A   1      35.723 -17.199 -23.292  0.00  0.00    -0.324 N 
ATOM      2  CB  ILE A   1      33.996 -15.622 -23.054  0.00  0.00    +0.052 C 
ATOM      3  CA  ILE A   1      35.050 -16.171 -24.055  0.00  0.00    +0.173 C 
ATOM      4  CG1 ILE A   1      34.224 -16.465 -21.815  0.00  0.00    -0.009 C 
ATOM      5  CG2 ILE A   1      34.205 -14.140 -22.763  0.00  0.00    +0.007 C 
ATOM      6  CD1 ILE A   1      35.219 -17.328 -22.037  0.00  0.00    +0.054 C 
ATOM      7  H   ILE A   1      36.464 -17.745 -23.643  0.00  0.00    +0.147 HD
ENDROOT
BRANCH   3   9
ATOM      8  OXT ILE A   1      34.320 -18.017 -25.426  0.00  0.00    -0.248 OA
ATOM      9  C   ILE A   1      34.414 -16.812 -25.245  0.00  0.00    +0.332 C 
BRANCH   9  10
ATOM     10  O   ILE A   1      33.953 -15.873 -26.106  0.00  0.00    -0.479 OA
ATOM     11  H   ILE A   1      33.725 -16.112 -26.983  0.00  0.00    +0.295 HD
ENDBRANCH   9  10
ENDBRANCH   3   9
TORSDOF 2
ENDMDL
MODEL 9
REMARK VINA RESULT:      -5.2      2.854      3.367
REMARK  Name = 5287781
REMARK  2 active torsions:
REMARK  status: ('A' for Active; 'I' for Inactive)
REMARK    1  A    between atoms: CA_3  and  C_9
REMARK    2  A    between atoms: C_9  and  O_10
REMARK                            x       y       z     vdW  Elec       q    Type
REMARK                         _______ _______ _______ _____ _____    ______ ____
ROOT
ATOM      1  N   ILE A   1      36.955 -24.471 -14.080  0.00  0.00    -0.324 N 
ATOM      2  CB  ILE A   1      38.878 -25.744 -13.621  0.00  0.00    +0.052 C 
ATOM      3  CA  ILE A   1      38.232 -24.345 -13.415  0.00  0.00    +0.173 C 
ATOM      4  CG1 ILE A   1      37.821 -26.501 -14.398  0.00  0.00    -0.009 C 
ATOM      5  CG2 ILE A   1      40.184 -25.657 -14.401  0.00  0.00    +0.007 C 
ATOM      6  CD1 ILE A   1      36.769 -25.707 -14.616  0.00  0.00    +0.054 C 
ATOM      7  H   ILE A   1      36.293 -23.744 -14.139  0.00  0.00    +0.147 HD
ENDROOT
BRANCH   3   9
ATOM      8  OXT ILE A   1      37.433 -24.809 -11.186  0.00  0.00    -0.248 OA
ATOM      9  C   ILE A   1      37.981 -24.050 -11.971  0.00  0.00    +0.332 C 
BRANCH   9  10
ATOM     10  O   ILE A   1      38.441 -22.818 -11.647  0.00  0.00    -0.479 OA
ATOM     11  H   ILE A   1      39.362 -22.673 -11.547  0.00  0.00    +0.295 HD
ENDBRANCH   9  10
ENDBRANCH   3   9
TORSDOF 2
ENDMDL
