MODEL 1
REMARK VINA RESULT:     -11.7      0.000      0.000
REMARK  Name = 24880024
REMARK  5 active torsions:
REMARK  status: ('A' for Active; 'I' for Inactive)
REMARK    1  A    between atoms: N_5  and  C_12
REMARK    2  A    between atoms: C_6  and  C_22
REMARK    3  A    between atoms: C_13  and  C_21
REMARK    4  A    between atoms: C_22  and  C_23
REMARK    5  A    between atoms: C_23  and  N_25
REMARK                            x       y       z     vdW  Elec       q    Type
REMARK                         _______ _______ _______ _____ _____    ______ ____
ROOT
ATOM      1  S   UNL     1      36.601 -20.494 -19.966  0.00  0.00    -0.056 S 
ATOM      2  O   UNL     1      35.234 -23.250 -16.454  0.00  0.00    -0.252 OA
ATOM      3  N   UNL     1      34.562 -21.706 -18.936  0.00  0.00    -0.223 NA
ATOM      4  N   UNL     1      36.670 -21.966 -17.798  0.00  0.00    -0.248 N 
ATOM      5  N   UNL     1      37.501 -23.061 -15.911  0.00  0.00    -0.268 N 
ATOM      6  C   UNL     1      35.087 -20.332 -20.756  0.00  0.00    +0.031 C 
ATOM      7  C   UNL     1      34.127 -21.041 -20.065  0.00  0.00    +0.103 C 
ATOM      8  C   UNL     1      35.850 -21.489 -18.786  0.00  0.00    +0.166 C 
ATOM      9  C   UNL     1      36.356 -22.812 -16.685  0.00  0.00    +0.310 C 
ATOM     10  H   UNL     1      37.613 -21.688 -17.862  0.00  0.00    +0.158 HD
ATOM     11  H   UNL     1      38.334 -22.640 -16.224  0.00  0.00    +0.156 HD
ENDROOT
BRANCH   5  12
ATOM     12  C   UNL     1      37.605 -23.846 -14.738  0.00  0.00    +0.052 C 
ATOM     13  C   UNL     1      36.854 -24.382 -12.506  0.00  0.00    +0.073 C 
ATOM     14  C   UNL     1      36.751 -23.608 -13.662  0.00  0.00    +0.019 C 
ATOM     15  C   UNL     1      38.561 -24.858 -14.660  0.00  0.00    +0.015 C 
ATOM     16  C   UNL     1      37.810 -25.394 -12.427  0.00  0.00    +0.004 C 
ATOM     17  C   UNL     1      38.664 -25.633 -13.504  0.00  0.00    +0.001 C 
BRANCH  13  21
ATOM     18  F   UNL     1      35.432 -25.266 -10.797  0.00  0.00    -0.166 F 
ATOM     19  F   UNL     1      36.538 -23.463 -10.320  0.00  0.00    -0.166 F 
ATOM     20  F   UNL     1      34.858 -23.372 -11.698  0.00  0.00    -0.166 F 
ATOM     21  C   UNL     1      35.941 -24.128 -11.354  0.00  0.00    +0.419 C 
ENDBRANCH  13  21
ENDBRANCH   5  12
BRANCH   6  22
ATOM     22  C   UNL     1      34.961 -19.505 -22.012  0.00  0.00    +0.056 C 
BRANCH  22  23
ATOM     23  C   UNL     1      35.811 -18.235 -21.981  0.00  0.00    +0.093 C 
BRANCH  23  25
ATOM     24  S   UNL     1      33.228 -14.542 -20.881  0.00  0.00    -0.101 S 
ATOM     25  N   UNL     1      35.004 -17.085 -21.709  0.00  0.00    -0.320 N 
ATOM     26  N   UNL     1      34.619 -16.631 -24.013  0.00  0.00    -0.233 NA
ATOM     27  N   UNL     1      33.276 -14.761 -24.758  0.00  0.00    -0.247 NA
ATOM     28  C   UNL     1      34.422 -16.300 -22.722  0.00  0.00    +0.118 C 
ATOM     29  C   UNL     1      33.644 -15.190 -22.415  0.00  0.00    +0.145 C 
ATOM     30  C   UNL     1      33.087 -14.441 -23.451  0.00  0.00    +0.073 C 
ATOM     31  C   UNL     1      32.321 -13.341 -22.961  0.00  0.00    +0.022 C 
ATOM     32  C   UNL     1      32.316 -13.280 -21.586  0.00  0.00    +0.033 C 
ATOM     33  C   UNL     1      34.040 -15.849 -24.944  0.00  0.00    +0.251 C 
ATOM     34  H   UNL     1      34.851 -16.829 -20.771  0.00  0.00    +0.148 HD
ENDBRANCH  23  25
ENDBRANCH  22  23
ENDBRANCH   6  22
TORSDOF 5
ENDMDL
MODEL 2
REMARK VINA RESULT:     -11.6      5.304     11.669
REMARK  Name = 24880024
REMARK  5 active torsions:
REMARK  status: ('A' for Active; 'I' for Inactive)
REMARK    1  A    between atoms: N_5  and  C_12
REMARK    2  A    between atoms: C_6  and  C_22
REMARK    3  A    between atoms: C_13  and  C_21
REMARK    4  A    between atoms: C_22  and  C_23
REMARK    5  A    between atoms: C_23  and  N_25
REMARK                            x       y       z     vdW  Elec       q    Type
REMARK                         _______ _______ _______ _____ _____    ______ ____
ROOT
ATOM      1  S   UNL     1      33.654 -23.429 -16.931  0.00  0.00    -0.056 S 
ATOM      2  O   UNL     1      32.281 -20.183 -19.993  0.00  0.00    -0.252 OA
ATOM      3  N   UNL     1      31.617 -22.069 -17.758  0.00  0.00    -0.223 NA
ATOM      4  N   UNL     1      33.718 -21.657 -18.861  0.00  0.00    -0.248 N 
ATOM      5  N   UNL     1      34.544 -20.302 -20.574  0.00  0.00    -0.268 N 
ATOM      6  C   UNL     1      32.145 -23.697 -16.162  0.00  0.00    +0.031 C 
ATOM      7  C   UNL     1      31.184 -22.890 -16.735  0.00  0.00    +0.103 C 
ATOM      8  C   UNL     1      32.902 -22.269 -17.948  0.00  0.00    +0.166 C 
ATOM      9  C   UNL     1      33.402 -20.656 -19.837  0.00  0.00    +0.310 C 
ATOM     10  H   UNL     1      34.660 -21.946 -18.846  0.00  0.00    +0.158 HD
ATOM     11  H   UNL     1      35.376 -20.770 -20.333  0.00  0.00    +0.156 HD
ENDROOT
BRANCH   5  12
ATOM     12  C   UNL     1      34.645 -19.356 -21.621  0.00  0.00    +0.052 C 
ATOM     13  C   UNL     1      34.568 -17.066 -22.386  0.00  0.00    +0.073 C 
ATOM     14  C   UNL     1      34.468 -17.998 -21.354  0.00  0.00    +0.019 C 
ATOM     15  C   UNL     1      34.922 -19.780 -22.920  0.00  0.00    +0.015 C 
ATOM     16  C   UNL     1      34.846 -17.490 -23.685  0.00  0.00    +0.004 C 
ATOM     17  C   UNL     1      35.022 -18.848 -23.953  0.00  0.00    +0.001 C 
BRANCH  13  21
ATOM     18  F   UNL     1      34.926 -15.212 -20.916  0.00  0.00    -0.166 F 
ATOM     19  F   UNL     1      34.934 -14.795 -23.045  0.00  0.00    -0.166 F 
ATOM     20  F   UNL     1      33.063 -15.258 -22.037  0.00  0.00    -0.166 F 
ATOM     21  C   UNL     1      34.379 -15.614 -22.101  0.00  0.00    +0.419 C 
ENDBRANCH  13  21
ENDBRANCH   5  12
BRANCH   6  22
ATOM     22  C   UNL     1      32.023 -24.699 -15.039  0.00  0.00    +0.056 C 
BRANCH  22  23
ATOM     23  C   UNL     1      32.919 -24.373 -13.845  0.00  0.00    +0.093 C 
BRANCH  23  25
ATOM     24  S   UNL     1      37.229 -25.772 -14.843  0.00  0.00    -0.101 S 
ATOM     25  N   UNL     1      34.268 -24.785 -14.090  0.00  0.00    -0.320 N 
ATOM     26  N   UNL     1      35.016 -24.119 -11.931  0.00  0.00    -0.233 NA
ATOM     27  N   UNL     1      37.314 -24.379 -11.219  0.00  0.00    -0.247 NA
ATOM     28  C   UNL     1      35.295 -24.653 -13.136  0.00  0.00    +0.118 C 
ATOM     29  C   UNL     1      36.593 -25.066 -13.414  0.00  0.00    +0.145 C 
ATOM     30  C   UNL     1      37.578 -24.916 -12.439  0.00  0.00    +0.073 C 
ATOM     31  C   UNL     1      38.848 -25.389 -12.888  0.00  0.00    +0.022 C 
ATOM     32  C   UNL     1      38.797 -25.878 -14.173  0.00  0.00    +0.033 C 
ATOM     33  C   UNL     1      36.032 -24.015 -11.054  0.00  0.00    +0.251 C 
ATOM     34  H   UNL     1      34.488 -25.177 -14.966  0.00  0.00    +0.148 HD
ENDBRANCH  23  25
ENDBRANCH  22  23
ENDBRANCH   6  22
TORSDOF 5
ENDMDL
MODEL 3
REMARK VINA RESULT:     -11.5      6.233     12.194
REMARK  Name = 24880024
REMARK  5 active torsions:
REMARK  status: ('A' for Active; 'I' for Inactive)
REMARK    1  A    between atoms: N_5  and  C_12
REMARK    2  A    between atoms: C_6  and  C_22
REMARK    3  A    between atoms: C_13  and  C_21
REMARK    4  A    between atoms: C_22  and  C_23
REMARK    5  A    between atoms: C_23  and  N_25
REMARK                            x       y       z     vdW  Elec       q    Type
REMARK                         _______ _______ _______ _____ _____    ______ ____
ROOT
ATOM      1  S   UNL     1      33.703 -19.814 -20.704  0.00  0.00    -0.056 S 
ATOM      2  O   UNL     1      35.334 -15.621 -21.952  0.00  0.00    -0.252 OA
ATOM      3  N   UNL     1      35.857 -18.411 -20.985  0.00  0.00    -0.223 NA
ATOM      4  N   UNL     1      33.774 -17.323 -21.518  0.00  0.00    -0.248 N 
ATOM      5  N   UNL     1      33.049 -15.236 -22.270  0.00  0.00    -0.268 N 
ATOM      6  C   UNL     1      35.202 -20.562 -20.336  0.00  0.00    +0.031 C 
ATOM      7  C   UNL     1      36.230 -19.665 -20.542  0.00  0.00    +0.103 C 
ATOM      8  C   UNL     1      34.548 -18.375 -21.105  0.00  0.00    +0.166 C 
ATOM      9  C   UNL     1      34.170 -16.007 -21.921  0.00  0.00    +0.310 C 
ATOM     10  H   UNL     1      32.805 -17.497 -21.541  0.00  0.00    +0.158 HD
ATOM     11  H   UNL     1      32.176 -15.684 -22.194  0.00  0.00    +0.156 HD
ENDROOT
BRANCH   5  12
ATOM     12  C   UNL     1      33.020 -13.894 -22.718  0.00  0.00    +0.052 C 
ATOM     13  C   UNL     1      32.144 -11.649 -22.548  0.00  0.00    +0.073 C 
ATOM     14  C   UNL     1      32.171 -12.972 -22.107  0.00  0.00    +0.019 C 
ATOM     15  C   UNL     1      33.842 -13.494 -23.771  0.00  0.00    +0.015 C 
ATOM     16  C   UNL     1      32.966 -11.249 -23.601  0.00  0.00    +0.004 C 
ATOM     17  C   UNL     1      33.816 -12.171 -24.212  0.00  0.00    +0.001 C 
BRANCH  13  21
ATOM     18  F   UNL     1      31.859  -9.870 -20.975  0.00  0.00    -0.166 F 
ATOM     19  F   UNL     1      30.649  -9.795 -22.774  0.00  0.00    -0.166 F 
ATOM     20  F   UNL     1      30.206 -11.259 -21.228  0.00  0.00    -0.166 F 
ATOM     21  C   UNL     1      31.236 -10.663 -21.895  0.00  0.00    +0.419 C 
ENDBRANCH  13  21
ENDBRANCH   5  12
BRANCH   6  22
ATOM     22  C   UNL     1      35.250 -21.995 -19.864  0.00  0.00    +0.056 C 
BRANCH  22  23
ATOM     23  C   UNL     1      33.926 -22.475 -19.270  0.00  0.00    +0.093 C 
BRANCH  23  25
ATOM     24  S   UNL     1      34.713 -23.935 -14.937  0.00  0.00    -0.101 S 
ATOM     25  N   UNL     1      34.102 -22.919 -17.920  0.00  0.00    -0.320 N 
ATOM     26  N   UNL     1      31.788 -22.714 -17.400  0.00  0.00    -0.233 NA
ATOM     27  N   UNL     1      30.900 -23.248 -15.213  0.00  0.00    -0.247 NA
ATOM     28  C   UNL     1      33.037 -23.032 -17.007  0.00  0.00    +0.118 C 
ATOM     29  C   UNL     1      33.250 -23.468 -15.704  0.00  0.00    +0.145 C 
ATOM     30  C   UNL     1      32.166 -23.565 -14.832  0.00  0.00    +0.073 C 
ATOM     31  C   UNL     1      32.560 -24.026 -13.541  0.00  0.00    +0.022 C 
ATOM     32  C   UNL     1      33.913 -24.264 -13.462  0.00  0.00    +0.033 C 
ATOM     33  C   UNL     1      30.805 -22.840 -16.489  0.00  0.00    +0.251 C 
ATOM     34  H   UNL     1      35.008 -23.154 -17.617  0.00  0.00    +0.148 HD
ENDBRANCH  23  25
ENDBRANCH  22  23
ENDBRANCH   6  22
TORSDOF 5
ENDMDL
MODEL 4
REMARK VINA RESULT:     -11.4      4.603      7.189
REMARK  Name = 24880024
REMARK  5 active torsions:
REMARK  status: ('A' for Active; 'I' for Inactive)
REMARK    1  A    between atoms: N_5  and  C_12
REMARK    2  A    between atoms: C_6  and  C_22
REMARK    3  A    between atoms: C_13  and  C_21
REMARK    4  A    between atoms: C_22  and  C_23
REMARK    5  A    between atoms: C_23  and  N_25
REMARK                            x       y       z     vdW  Elec       q    Type
REMARK                         _______ _______ _______ _____ _____    ______ ____
ROOT
ATOM      1  S   UNL     1      33.807 -15.745 -24.839  0.00  0.00    -0.056 S 
ATOM      2  O   UNL     1      35.127 -17.151 -20.587  0.00  0.00    -0.252 OA
ATOM      3  N   UNL     1      34.436 -14.921 -22.470  0.00  0.00    -0.223 NA
ATOM      4  N   UNL     1      34.490 -17.301 -22.843  0.00  0.00    -0.248 N 
ATOM      5  N   UNL     1      34.967 -19.238 -21.631  0.00  0.00    -0.268 N 
ATOM      6  C   UNL     1      33.774 -14.056 -24.541  0.00  0.00    +0.031 C 
ATOM      7  C   UNL     1      34.138 -13.810 -23.234  0.00  0.00    +0.103 C 
ATOM      8  C   UNL     1      34.295 -15.997 -23.213  0.00  0.00    +0.166 C 
ATOM      9  C   UNL     1      34.889 -17.837 -21.576  0.00  0.00    +0.310 C 
ATOM     10  H   UNL     1      34.332 -17.968 -23.551  0.00  0.00    +0.158 HD
ATOM     11  H   UNL     1      34.746 -19.649 -22.497  0.00  0.00    +0.156 HD
ENDROOT
BRANCH   5  12
ATOM     12  C   UNL     1      35.324 -20.131 -20.593  0.00  0.00    +0.052 C 
ATOM     13  C   UNL     1      34.697 -21.787 -18.949  0.00  0.00    +0.073 C 
ATOM     14  C   UNL     1      34.345 -20.906 -19.972  0.00  0.00    +0.019 C 
ATOM     15  C   UNL     1      36.655 -20.237 -20.192  0.00  0.00    +0.015 C 
ATOM     16  C   UNL     1      36.028 -21.893 -18.548  0.00  0.00    +0.004 C 
ATOM     17  C   UNL     1      37.008 -21.118 -19.169  0.00  0.00    +0.001 C 
BRANCH  13  21
ATOM     18  F   UNL     1      33.864 -22.799 -16.949  0.00  0.00    -0.166 F 
ATOM     19  F   UNL     1      32.394 -22.085 -18.375  0.00  0.00    -0.166 F 
ATOM     20  F   UNL     1      33.557 -23.869 -18.816  0.00  0.00    -0.166 F 
ATOM     21  C   UNL     1      33.650 -22.616 -18.284  0.00  0.00    +0.419 C 
ENDBRANCH  13  21
ENDBRANCH   5  12
BRANCH   6  22
ATOM     22  C   UNL     1      33.389 -13.091 -25.636  0.00  0.00    +0.056 C 
BRANCH  22  23
ATOM     23  C   UNL     1      33.901 -11.672 -25.393  0.00  0.00    +0.093 C 
BRANCH  23  25
ATOM     24  S   UNL     1      31.847 -10.023 -21.573  0.00  0.00    -0.101 S 
ATOM     25  N   UNL     1      33.304 -11.105 -24.222  0.00  0.00    -0.320 N 
ATOM     26  N   UNL     1      34.529  -9.073 -24.405  0.00  0.00    -0.233 NA
ATOM     27  N   UNL     1      34.279  -7.262 -22.820  0.00  0.00    -0.247 NA
ATOM     28  C   UNL     1      33.623  -9.820 -23.744  0.00  0.00    +0.118 C 
ATOM     29  C   UNL     1      33.020  -9.306 -22.602  0.00  0.00    +0.145 C 
ATOM     30  C   UNL     1      33.367  -8.029 -22.165  0.00  0.00    +0.073 C 
ATOM     31  C   UNL     1      32.657  -7.659 -20.984  0.00  0.00    +0.022 C 
ATOM     32  C   UNL     1      31.801  -8.649 -20.558  0.00  0.00    +0.033 C 
ATOM     33  C   UNL     1      34.800  -7.852 -23.908  0.00  0.00    +0.251 C 
ATOM     34  H   UNL     1      32.641 -11.639 -23.727  0.00  0.00    +0.148 HD
ENDBRANCH  23  25
ENDBRANCH  22  23
ENDBRANCH   6  22
TORSDOF 5
ENDMDL
MODEL 5
REMARK VINA RESULT:     -11.3      6.072     12.356
REMARK  Name = 24880024
REMARK  5 active torsions:
REMARK  status: ('A' for Active; 'I' for Inactive)
REMARK    1  A    between atoms: N_5  and  C_12
REMARK    2  A    between atoms: C_6  and  C_22
REMARK    3  A    between atoms: C_13  and  C_21
REMARK    4  A    between atoms: C_22  and  C_23
REMARK    5  A    between atoms: C_23  and  N_25
REMARK                            x       y       z     vdW  Elec       q    Type
REMARK                         _______ _______ _______ _____ _____    ______ ____
ROOT
ATOM      1  S   UNL     1      33.673 -19.766 -20.795  0.00  0.00    -0.056 S 
ATOM      2  O   UNL     1      35.313 -15.547 -21.939  0.00  0.00    -0.252 OA
ATOM      3  N   UNL     1      35.823 -18.340 -20.974  0.00  0.00    -0.223 NA
ATOM      4  N   UNL     1      33.754 -17.268 -21.584  0.00  0.00    -0.248 N 
ATOM      5  N   UNL     1      33.040 -15.180 -22.349  0.00  0.00    -0.268 N 
ATOM      6  C   UNL     1      35.163 -20.503 -20.372  0.00  0.00    +0.031 C 
ATOM      7  C   UNL     1      36.189 -19.595 -20.528  0.00  0.00    +0.103 C 
ATOM      8  C   UNL     1      34.520 -18.316 -21.149  0.00  0.00    +0.166 C 
ATOM      9  C   UNL     1      34.153 -15.944 -21.960  0.00  0.00    +0.310 C 
ATOM     10  H   UNL     1      32.788 -17.450 -21.649  0.00  0.00    +0.158 HD
ATOM     11  H   UNL     1      32.169 -15.638 -22.313  0.00  0.00    +0.156 HD
ENDROOT
BRANCH   5  12
ATOM     12  C   UNL     1      33.017 -13.835 -22.786  0.00  0.00    +0.052 C 
ATOM     13  C   UNL     1      32.192 -11.576 -22.563  0.00  0.00    +0.073 C 
ATOM     14  C   UNL     1      32.214 -12.902 -22.132  0.00  0.00    +0.019 C 
ATOM     15  C   UNL     1      33.799 -13.442 -23.872  0.00  0.00    +0.015 C 
ATOM     16  C   UNL     1      32.974 -11.183 -23.649  0.00  0.00    +0.004 C 
ATOM     17  C   UNL     1      33.778 -12.116 -24.304  0.00  0.00    +0.001 C 
BRANCH  13  21
ATOM     18  F   UNL     1      32.000  -9.842 -20.926  0.00  0.00    -0.166 F 
ATOM     19  F   UNL     1      30.771  -9.657 -22.703  0.00  0.00    -0.166 F 
ATOM     20  F   UNL     1      30.289 -11.154 -21.202  0.00  0.00    -0.166 F 
ATOM     21  C   UNL     1      31.333 -10.577 -21.864  0.00  0.00    +0.419 C 
ENDBRANCH  13  21
ENDBRANCH   5  12
BRANCH   6  22
ATOM     22  C   UNL     1      35.205 -21.939 -19.910  0.00  0.00    +0.056 C 
BRANCH  22  23
ATOM     23  C   UNL     1      35.600 -22.086 -18.441  0.00  0.00    +0.093 C 
BRANCH  23  25
ATOM     24  S   UNL     1      31.851 -23.381 -16.035  0.00  0.00    -0.101 S 
ATOM     25  N   UNL     1      34.485 -22.511 -17.650  0.00  0.00    -0.320 N 
ATOM     26  N   UNL     1      35.863 -23.437 -15.945  0.00  0.00    -0.233 NA
ATOM     27  N   UNL     1      34.947 -24.501 -13.975  0.00  0.00    -0.247 NA
ATOM     28  C   UNL     1      34.629 -23.178 -16.419  0.00  0.00    +0.118 C 
ATOM     29  C   UNL     1      33.519 -23.575 -15.682  0.00  0.00    +0.145 C 
ATOM     30  C   UNL     1      33.709 -24.233 -14.467  0.00  0.00    +0.073 C 
ATOM     31  C   UNL     1      32.470 -24.568 -13.844  0.00  0.00    +0.022 C 
ATOM     32  C   UNL     1      31.385 -24.163 -14.588  0.00  0.00    +0.033 C 
ATOM     33  C   UNL     1      35.947 -24.076 -14.763  0.00  0.00    +0.251 C 
ATOM     34  H   UNL     1      33.577 -22.331 -17.984  0.00  0.00    +0.148 HD
ENDBRANCH  23  25
ENDBRANCH  22  23
ENDBRANCH   6  22
TORSDOF 5
ENDMDL
MODEL 6
REMARK VINA RESULT:     -11.2      7.989     13.923
REMARK  Name = 24880024
REMARK  5 active torsions:
REMARK  status: ('A' for Active; 'I' for Inactive)
REMARK    1  A    between atoms: N_5  and  C_12
REMARK    2  A    between atoms: C_6  and  C_22
REMARK    3  A    between atoms: C_13  and  C_21
REMARK    4  A    between atoms: C_22  and  C_23
REMARK    5  A    between atoms: C_23  and  N_25
REMARK                            x       y       z     vdW  Elec       q    Type
REMARK                         _______ _______ _______ _____ _____    ______ ____
ROOT
ATOM      1  S   UNL     1      34.590 -15.531 -22.914  0.00  0.00    -0.056 S 
ATOM      2  O   UNL     1      33.487 -11.751 -25.422  0.00  0.00    -0.252 OA
ATOM      3  N   UNL     1      33.814 -14.727 -25.245  0.00  0.00    -0.223 NA
ATOM      4  N   UNL     1      34.166 -13.029 -23.572  0.00  0.00    -0.248 N 
ATOM      5  N   UNL     1      34.006 -10.707 -23.394  0.00  0.00    -0.268 N 
ATOM      6  C   UNL     1      34.327 -16.716 -24.125  0.00  0.00    +0.031 C 
ATOM      7  C   UNL     1      33.922 -16.103 -25.292  0.00  0.00    +0.103 C 
ATOM      8  C   UNL     1      34.142 -14.316 -24.040  0.00  0.00    +0.166 C 
ATOM      9  C   UNL     1      33.848 -11.809 -24.251  0.00  0.00    +0.310 C 
ATOM     10  H   UNL     1      34.441 -12.928 -22.632  0.00  0.00    +0.158 HD
ATOM     11  H   UNL     1      34.302 -10.911 -22.478  0.00  0.00    +0.156 HD
ENDROOT
BRANCH   5  12
ATOM     12  C   UNL     1      33.790  -9.339 -23.686  0.00  0.00    +0.052 C 
ATOM     13  C   UNL     1      32.300  -7.446 -23.858  0.00  0.00    +0.073 C 
ATOM     14  C   UNL     1      32.512  -8.794 -23.571  0.00  0.00    +0.019 C 
ATOM     15  C   UNL     1      34.857  -8.536 -24.088  0.00  0.00    +0.015 C 
ATOM     16  C   UNL     1      33.367  -6.643 -24.260  0.00  0.00    +0.004 C 
ATOM     17  C   UNL     1      34.646  -7.188 -24.375  0.00  0.00    +0.001 C 
BRANCH  13  21
ATOM     18  F   UNL     1      30.700  -5.829 -24.597  0.00  0.00    -0.166 F 
ATOM     19  F   UNL     1      29.932  -7.760 -23.977  0.00  0.00    -0.166 F 
ATOM     20  F   UNL     1      30.686  -6.363 -22.490  0.00  0.00    -0.166 F 
ATOM     21  C   UNL     1      30.933  -6.862 -23.736  0.00  0.00    +0.419 C 
ENDBRANCH  13  21
ENDBRANCH   5  12
BRANCH   6  22
ATOM     22  C   UNL     1      34.545 -18.180 -23.827  0.00  0.00    +0.056 C 
BRANCH  22  23
ATOM     23  C   UNL     1      35.341 -18.418 -22.544  0.00  0.00    +0.093 C 
BRANCH  23  25
ATOM     24  S   UNL     1      32.926 -21.309 -19.836  0.00  0.00    -0.101 S 
ATOM     25  N   UNL     1      34.654 -19.326 -21.676  0.00  0.00    -0.320 N 
ATOM     26  N   UNL     1      36.638 -19.941 -20.514  0.00  0.00    -0.233 NA
ATOM     27  N   UNL     1      36.633 -21.543 -18.701  0.00  0.00    -0.247 NA
ATOM     28  C   UNL     1      35.307 -20.073 -20.678  0.00  0.00    +0.118 C 
ATOM     29  C   UNL     1      34.603 -20.945 -19.855  0.00  0.00    +0.145 C 
ATOM     30  C   UNL     1      35.290 -21.665 -18.879  0.00  0.00    +0.073 C 
ATOM     31  C   UNL     1      34.419 -22.509 -18.127  0.00  0.00    +0.022 C 
ATOM     32  C   UNL     1      33.112 -22.412 -18.544  0.00  0.00    +0.033 C 
ATOM     33  C   UNL     1      37.214 -20.677 -19.545  0.00  0.00    +0.251 C 
ATOM     34  H   UNL     1      33.682 -19.434 -21.784  0.00  0.00    +0.148 HD
ENDBRANCH  23  25
ENDBRANCH  22  23
ENDBRANCH   6  22
TORSDOF 5
ENDMDL
MODEL 7
REMARK VINA RESULT:     -11.1      6.478     12.426
REMARK  Name = 24880024
REMARK  5 active torsions:
REMARK  status: ('A' for Active; 'I' for Inactive)
REMARK    1  A    between atoms: N_5  and  C_12
REMARK    2  A    between atoms: C_6  and  C_22
REMARK    3  A    between atoms: C_13  and  C_21
REMARK    4  A    between atoms: C_22  and  C_23
REMARK    5  A    between atoms: C_23  and  N_25
REMARK                            x       y       z     vdW  Elec       q    Type
REMARK                         _______ _______ _______ _____ _____    ______ ____
ROOT
ATOM      1  S   UNL     1      33.815 -19.727 -20.651  0.00  0.00    -0.056 S 
ATOM      2  O   UNL     1      35.669 -16.240 -23.141  0.00  0.00    -0.252 OA
ATOM      3  N   UNL     1      36.044 -18.635 -21.374  0.00  0.00    -0.223 NA
ATOM      4  N   UNL     1      34.019 -17.614 -22.188  0.00  0.00    -0.248 N 
ATOM      5  N   UNL     1      33.404 -15.807 -23.532  0.00  0.00    -0.268 N 
ATOM      6  C   UNL     1      35.274 -20.434 -20.091  0.00  0.00    +0.031 C 
ATOM      7  C   UNL     1      36.349 -19.718 -20.575  0.00  0.00    +0.103 C 
ATOM      8  C   UNL     1      34.737 -18.543 -21.483  0.00  0.00    +0.166 C 
ATOM      9  C   UNL     1      34.484 -16.513 -22.979  0.00  0.00    +0.310 C 
ATOM     10  H   UNL     1      33.040 -17.716 -22.144  0.00  0.00    +0.158 HD
ATOM     11  H   UNL     1      32.507 -16.147 -23.312  0.00  0.00    +0.156 HD
ENDROOT
BRANCH   5  12
ATOM     12  C   UNL     1      33.447 -14.666 -24.368  0.00  0.00    +0.052 C 
ATOM     13  C   UNL     1      33.573 -12.268 -24.632  0.00  0.00    +0.073 C 
ATOM     14  C   UNL     1      33.530 -13.392 -23.807  0.00  0.00    +0.019 C 
ATOM     15  C   UNL     1      33.407 -14.816 -25.754  0.00  0.00    +0.015 C 
ATOM     16  C   UNL     1      33.533 -12.418 -26.018  0.00  0.00    +0.004 C 
ATOM     17  C   UNL     1      33.451 -13.692 -26.579  0.00  0.00    +0.001 C 
BRANCH  13  21
ATOM     18  F   UNL     1      34.932 -10.409 -23.985  0.00  0.00    -0.166 F 
ATOM     19  F   UNL     1      32.936  -9.964 -24.707  0.00  0.00    -0.166 F 
ATOM     20  F   UNL     1      33.205 -10.866 -22.747  0.00  0.00    -0.166 F 
ATOM     21  C   UNL     1      33.661 -10.905 -24.032  0.00  0.00    +0.419 C 
ENDBRANCH  13  21
ENDBRANCH   5  12
BRANCH   6  22
ATOM     22  C   UNL     1      35.245 -21.655 -19.205  0.00  0.00    +0.056 C 
BRANCH  22  23
ATOM     23  C   UNL     1      34.152 -22.651 -19.592  0.00  0.00    +0.093 C 
BRANCH  23  25
ATOM     24  S   UNL     1      30.714 -22.774 -16.480  0.00  0.00    -0.101 S 
ATOM     25  N   UNL     1      33.136 -22.714 -18.586  0.00  0.00    -0.320 N 
ATOM     26  N   UNL     1      34.620 -23.576 -16.937  0.00  0.00    -0.233 NA
ATOM     27  N   UNL     1      33.897 -24.091 -14.686  0.00  0.00    -0.247 NA
ATOM     28  C   UNL     1      33.380 -23.173 -17.278  0.00  0.00    +0.118 C 
ATOM     29  C   UNL     1      32.365 -23.218 -16.330  0.00  0.00    +0.145 C 
ATOM     30  C   UNL     1      32.652 -23.681 -15.046  0.00  0.00    +0.073 C 
ATOM     31  C   UNL     1      31.501 -23.661 -14.203  0.00  0.00    +0.022 C 
ATOM     32  C   UNL     1      30.384 -23.192 -14.856  0.00  0.00    +0.033 C 
ATOM     33  C   UNL     1      34.802 -24.006 -15.674  0.00  0.00    +0.251 C 
ATOM     34  H   UNL     1      32.225 -22.424 -18.820  0.00  0.00    +0.148 HD
ENDBRANCH  23  25
ENDBRANCH  22  23
ENDBRANCH   6  22
TORSDOF 5
ENDMDL
MODEL 8
REMARK VINA RESULT:     -11.1      6.910     12.660
REMARK  Name = 24880024
REMARK  5 active torsions:
REMARK  status: ('A' for Active; 'I' for Inactive)
REMARK    1  A    between atoms: N_5  and  C_12
REMARK    2  A    between atoms: C_6  and  C_22
REMARK    3  A    between atoms: C_13  and  C_21
REMARK    4  A    between atoms: C_22  and  C_23
REMARK    5  A    between atoms: C_23  and  N_25
REMARK                            x       y       z     vdW  Elec       q    Type
REMARK                         _______ _______ _______ _____ _____    ______ ____
ROOT
ATOM      1  S   UNL     1      33.843 -19.914 -20.513  0.00  0.00    -0.056 S 
ATOM      2  O   UNL     1      35.680 -16.243 -22.738  0.00  0.00    -0.252 OA
ATOM      3  N   UNL     1      36.065 -18.828 -21.267  0.00  0.00    -0.223 NA
ATOM      4  N   UNL     1      34.037 -17.653 -21.826  0.00  0.00    -0.248 N 
ATOM      5  N   UNL     1      33.415 -15.690 -22.925  0.00  0.00    -0.268 N 
ATOM      6  C   UNL     1      35.304 -20.728 -20.133  0.00  0.00    +0.031 C 
ATOM      7  C   UNL     1      36.375 -20.002 -20.611  0.00  0.00    +0.103 C 
ATOM      8  C   UNL     1      34.759 -18.679 -21.276  0.00  0.00    +0.166 C 
ATOM      9  C   UNL     1      34.497 -16.490 -22.526  0.00  0.00    +0.310 C 
ATOM     10  H   UNL     1      33.060 -17.725 -21.727  0.00  0.00    +0.158 HD
ATOM     11  H   UNL     1      32.520 -16.020 -22.682  0.00  0.00    +0.156 HD
ENDROOT
BRANCH   5  12
ATOM     12  C   UNL     1      33.453 -14.467 -23.636  0.00  0.00    +0.052 C 
ATOM     13  C   UNL     1      33.443 -13.263 -25.730  0.00  0.00    +0.073 C 
ATOM     14  C   UNL     1      33.406 -14.468 -25.030  0.00  0.00    +0.019 C 
ATOM     15  C   UNL     1      33.535 -13.260 -22.942  0.00  0.00    +0.015 C 
ATOM     16  C   UNL     1      33.525 -12.056 -25.036  0.00  0.00    +0.004 C 
ATOM     17  C   UNL     1      33.571 -12.054 -23.642  0.00  0.00    +0.001 C 
BRANCH  13  21
ATOM     18  F   UNL     1      32.297 -12.634 -27.733  0.00  0.00    -0.166 F 
ATOM     19  F   UNL     1      34.464 -12.643 -27.803  0.00  0.00    -0.166 F 
ATOM     20  F   UNL     1      33.373 -14.523 -27.745  0.00  0.00    -0.166 F 
ATOM     21  C   UNL     1      33.394 -13.263 -27.221  0.00  0.00    +0.419 C 
ENDBRANCH  13  21
ENDBRANCH   5  12
BRANCH   6  22
ATOM     22  C   UNL     1      35.280 -22.037 -19.382  0.00  0.00    +0.056 C 
BRANCH  22  23
ATOM     23  C   UNL     1      33.872 -22.465 -18.969  0.00  0.00    +0.093 C 
BRANCH  23  25
ATOM     24  S   UNL     1      34.064 -24.144 -14.648  0.00  0.00    -0.101 S 
ATOM     25  N   UNL     1      33.864 -22.973 -17.630  0.00  0.00    -0.320 N 
ATOM     26  N   UNL     1      31.523 -22.636 -17.364  0.00  0.00    -0.233 NA
ATOM     27  N   UNL     1      30.358 -23.196 -15.319  0.00  0.00    -0.247 NA
ATOM     28  C   UNL     1      32.696 -23.052 -16.848  0.00  0.00    +0.118 C 
ATOM     29  C   UNL     1      32.731 -23.551 -15.552  0.00  0.00    +0.145 C 
ATOM     30  C   UNL     1      31.549 -23.610 -14.813  0.00  0.00    +0.073 C 
ATOM     31  C   UNL     1      31.763 -24.147 -13.508  0.00  0.00    +0.022 C 
ATOM     32  C   UNL     1      33.081 -24.476 -13.289  0.00  0.00    +0.033 C 
ATOM     33  C   UNL     1      30.435 -22.733 -16.577  0.00  0.00    +0.251 C 
ATOM     34  H   UNL     1      34.713 -23.279 -17.238  0.00  0.00    +0.148 HD
ENDBRANCH  23  25
ENDBRANCH  22  23
ENDBRANCH   6  22
TORSDOF 5
ENDMDL
MODEL 9
REMARK VINA RESULT:     -11.1      1.904      2.379
REMARK  Name = 24880024
REMARK  5 active torsions:
REMARK  status: ('A' for Active; 'I' for Inactive)
REMARK    1  A    between atoms: N_5  and  C_12
REMARK    2  A    between atoms: C_6  and  C_22
REMARK    3  A    between atoms: C_13  and  C_21
REMARK    4  A    between atoms: C_22  and  C_23
REMARK    5  A    between atoms: C_23  and  N_25
REMARK                            x       y       z     vdW  Elec       q    Type
REMARK                         _______ _______ _______ _____ _____    ______ ____
ROOT
ATOM      1  S   UNL     1      34.141 -20.966 -20.525  0.00  0.00    -0.056 S 
ATOM      2  O   UNL     1      36.893 -21.936 -16.881  0.00  0.00    -0.252 OA
ATOM      3  N   UNL     1      36.457 -20.497 -19.476  0.00  0.00    -0.223 NA
ATOM      4  N   UNL     1      34.998 -21.987 -18.268  0.00  0.00    -0.248 N 
ATOM      5  N   UNL     1      35.034 -23.227 -16.291  0.00  0.00    -0.268 N 
ATOM      6  C   UNL     1      35.200 -19.906 -21.359  0.00  0.00    +0.031 C 
ATOM      7  C   UNL     1      36.378 -19.780 -20.654  0.00  0.00    +0.103 C 
ATOM      8  C   UNL     1      35.334 -21.159 -19.307  0.00  0.00    +0.166 C 
ATOM      9  C   UNL     1      35.761 -22.348 -17.110  0.00  0.00    +0.310 C 
ATOM     10  H   UNL     1      34.102 -22.392 -18.325  0.00  0.00    +0.158 HD
ATOM     11  H   UNL     1      34.134 -23.469 -16.608  0.00  0.00    +0.156 HD
ENDROOT
BRANCH   5  12
ATOM     12  C   UNL     1      35.437 -23.808 -15.065  0.00  0.00    +0.052 C 
ATOM     13  C   UNL     1      37.065 -25.027 -13.762  0.00  0.00    +0.073 C 
ATOM     14  C   UNL     1      36.668 -24.456 -14.971  0.00  0.00    +0.019 C 
ATOM     15  C   UNL     1      34.602 -23.731 -13.951  0.00  0.00    +0.015 C 
ATOM     16  C   UNL     1      36.231 -24.951 -12.648  0.00  0.00    +0.004 C 
ATOM     17  C   UNL     1      34.999 -24.303 -12.741  0.00  0.00    +0.001 C 
BRANCH  13  21
ATOM     18  F   UNL     1      39.437 -24.955 -14.067  0.00  0.00    -0.166 F 
ATOM     19  F   UNL     1      38.696 -26.114 -12.390  0.00  0.00    -0.166 F 
ATOM     20  F   UNL     1      38.438 -26.854 -14.419  0.00  0.00    -0.166 F 
ATOM     21  C   UNL     1      38.382 -25.721 -13.661  0.00  0.00    +0.419 C 
ENDBRANCH  13  21
ENDBRANCH   5  12
BRANCH   6  22
ATOM     22  C   UNL     1      34.782 -19.273 -22.664  0.00  0.00    +0.056 C 
BRANCH  22  23
ATOM     23  C   UNL     1      35.496 -17.951 -22.945  0.00  0.00    +0.093 C 
BRANCH  23  25
ATOM     24  S   UNL     1      33.209 -14.455 -20.927  0.00  0.00    -0.101 S 
ATOM     25  N   UNL     1      34.773 -16.850 -22.385  0.00  0.00    -0.320 N 
ATOM     26  N   UNL     1      34.147 -15.991 -24.515  0.00  0.00    -0.233 NA
ATOM     27  N   UNL     1      32.806 -13.992 -24.763  0.00  0.00    -0.247 NA
ATOM     28  C   UNL     1      34.111 -15.888 -23.172  0.00  0.00    +0.118 C 
ATOM     29  C   UNL     1      33.420 -14.833 -22.588  0.00  0.00    +0.145 C 
ATOM     30  C   UNL     1      32.780 -13.903 -23.407  0.00  0.00    +0.073 C 
ATOM     31  C   UNL     1      32.121 -12.890 -22.647  0.00  0.00    +0.022 C 
ATOM     32  C   UNL     1      32.275 -13.071 -21.292  0.00  0.00    +0.033 C 
ATOM     33  C   UNL     1      33.499 -15.047 -25.222  0.00  0.00    +0.251 C 
ATOM     34  H   UNL     1      34.738 -16.760 -21.406  0.00  0.00    +0.148 HD
ENDBRANCH  23  25
ENDBRANCH  22  23
ENDBRANCH   6  22
TORSDOF 5
ENDMDL
