MODEL 1
REMARK VINA RESULT:      -7.8      0.000      0.000
REMARK  Name = 2683
REMARK  15 active torsions:
REMARK  status: ('A' for Active; 'I' for Inactive)
REMARK    1  A    between atoms: C_1  and  C_2
REMARK    2  A    between atoms: C_1  and  C_12
REMARK    3  A    between atoms: C_2  and  C_3
REMARK    4  A    between atoms: C_3  and  C_4
REMARK    5  A    between atoms: C_4  and  C_5
REMARK    6  A    between atoms: C_5  and  C_6
REMARK    7  A    between atoms: C_6  and  C_7
REMARK    8  A    between atoms: C_7  and  C_8
REMARK    9  A    between atoms: C_8  and  C_9
REMARK   10  A    between atoms: C_9  and  C_10
REMARK   11  A    between atoms: C_12  and  C_13
REMARK   12  A    between atoms: C_13  and  C_14
REMARK   13  A    between atoms: C_14  and  C_15
REMARK   14  A    between atoms: C_15  and  C_16
REMARK   15  A    between atoms: C_16  and  N_17
REMARK                            x       y       z     vdW  Elec       q    Type
REMARK                         _______ _______ _______ _____ _____    ______ ____
ROOT
ATOM      1  C   UNL     1      33.147 -15.337 -21.655  0.00  0.00    +0.000 C 
ENDROOT
BRANCH   1   2
ATOM      2  C   UNL     1      34.299 -14.856 -22.543  0.00  0.00    +0.000 C 
BRANCH   2   3
ATOM      3  C   UNL     1      33.933 -14.529 -23.994  0.00  0.00    +0.000 C 
BRANCH   3   4
ATOM      4  C   UNL     1      33.773 -15.769 -24.877  0.00  0.00    +0.000 C 
BRANCH   4   5
ATOM      5  C   UNL     1      34.891 -16.782 -24.614  0.00  0.00    +0.000 C 
BRANCH   5   6
ATOM      6  C   UNL     1      34.466 -18.234 -24.853  0.00  0.00    +0.000 C 
BRANCH   6   7
ATOM      7  C   UNL     1      34.903 -19.188 -23.738  0.00  0.00    +0.000 C 
BRANCH   7   8
ATOM      8  C   UNL     1      35.349 -18.415 -22.494  0.00  0.00    +0.000 C 
BRANCH   8   9
ATOM      9  C   UNL     1      34.968 -19.104 -21.181  0.00  0.00    +0.000 C 
BRANCH   9  10
ATOM     10  C   UNL     1      33.482 -19.449 -21.082  0.00  0.00    +0.000 C 
ATOM     11  C   UNL     1      33.242 -20.596 -20.113  0.00  0.00    +0.000 C 
ENDBRANCH   9  10
ENDBRANCH   8   9
ENDBRANCH   7   8
ENDBRANCH   6   7
ENDBRANCH   5   6
ENDBRANCH   4   5
ENDBRANCH   3   4
ENDBRANCH   2   3
ENDBRANCH   1   2
BRANCH   1  12
ATOM     12  C   UNL     1      32.692 -14.296 -20.629  0.00  0.00    +0.000 C 
BRANCH  12  13
ATOM     13  C   UNL     1      32.110 -13.060 -21.317  0.00  0.00    +0.000 C 
BRANCH  13  14
ATOM     14  C   UNL     1      31.835 -11.942 -20.310  0.00  0.00    +0.002 C 
BRANCH  14  15
ATOM     15  C   UNL     1      31.495 -10.629 -21.016  0.00  0.00    +0.021 C 
BRANCH  15  16
ATOM     16  C   UNL     1      31.801 -10.710 -22.506  0.00  0.00    +0.091 C 
BRANCH  16  17
ATOM     17  N   UNL     1      32.818  -9.694 -22.852  0.00  0.00    -0.303 N 
ATOM     18  C   UNL     1      32.785  -8.508 -22.228  0.00  0.00    +0.117 C 
ATOM     19  C   UNL     1      33.740  -9.992 -23.779  0.00  0.00    +0.062 C 
ATOM     20  C   UNL     1      33.727  -7.536 -22.533  0.00  0.00    -0.005 C 
ATOM     21  C   UNL     1      34.706  -9.058 -24.124  0.00  0.00    +0.016 C 
ATOM     22  C   UNL     1      34.697  -7.818 -23.492  0.00  0.00    -0.002 C 
ENDBRANCH  16  17
ENDBRANCH  15  16
ENDBRANCH  14  15
ENDBRANCH  13  14
ENDBRANCH  12  13
ENDBRANCH   1  12
TORSDOF 15
ENDMDL
MODEL 2
REMARK VINA RESULT:      -7.6      1.642      4.386
REMARK  Name = 2683
REMARK  15 active torsions:
REMARK  status: ('A' for Active; 'I' for Inactive)
REMARK    1  A    between atoms: C_1  and  C_2
REMARK    2  A    between atoms: C_1  and  C_12
REMARK    3  A    between atoms: C_2  and  C_3
REMARK    4  A    between atoms: C_3  and  C_4
REMARK    5  A    between atoms: C_4  and  C_5
REMARK    6  A    between atoms: C_5  and  C_6
REMARK    7  A    between atoms: C_6  and  C_7
REMARK    8  A    between atoms: C_7  and  C_8
REMARK    9  A    between atoms: C_8  and  C_9
REMARK   10  A    between atoms: C_9  and  C_10
REMARK   11  A    between atoms: C_12  and  C_13
REMARK   12  A    between atoms: C_13  and  C_14
REMARK   13  A    between atoms: C_14  and  C_15
REMARK   14  A    between atoms: C_15  and  C_16
REMARK   15  A    between atoms: C_16  and  N_17
REMARK                            x       y       z     vdW  Elec       q    Type
REMARK                         _______ _______ _______ _____ _____    ______ ____
ROOT
ATOM      1  C   UNL     1      34.426 -11.145 -25.107  0.00  0.00    +0.000 C 
ENDROOT
BRANCH   1   2
ATOM      2  C   UNL     1      33.711 -12.486 -24.917  0.00  0.00    +0.000 C 
BRANCH   2   3
ATOM      3  C   UNL     1      33.752 -13.071 -23.501  0.00  0.00    +0.000 C 
BRANCH   3   4
ATOM      4  C   UNL     1      32.490 -13.854 -23.128  0.00  0.00    +0.000 C 
BRANCH   4   5
ATOM      5  C   UNL     1      32.608 -14.456 -21.726  0.00  0.00    +0.000 C 
BRANCH   5   6
ATOM      6  C   UNL     1      34.034 -14.423 -21.166  0.00  0.00    +0.000 C 
BRANCH   6   7
ATOM      7  C   UNL     1      34.558 -15.802 -20.758  0.00  0.00    +0.000 C 
BRANCH   7   8
ATOM      8  C   UNL     1      34.357 -16.824 -21.880  0.00  0.00    +0.000 C 
BRANCH   8   9
ATOM      9  C   UNL     1      35.267 -16.588 -23.088  0.00  0.00    +0.000 C 
BRANCH   9  10
ATOM     10  C   UNL     1      34.604 -16.921 -24.424  0.00  0.00    +0.000 C 
ATOM     11  C   UNL     1      34.581 -18.421 -24.674  0.00  0.00    +0.000 C 
ENDBRANCH   9  10
ENDBRANCH   8   9
ENDBRANCH   7   8
ENDBRANCH   6   7
ENDBRANCH   5   6
ENDBRANCH   4   5
ENDBRANCH   3   4
ENDBRANCH   2   3
ENDBRANCH   1   2
BRANCH   1  12
ATOM     12  C   UNL     1      34.034 -10.092 -24.068  0.00  0.00    +0.000 C 
BRANCH  12  13
ATOM     13  C   UNL     1      34.918  -8.848 -24.181  0.00  0.00    +0.000 C 
BRANCH  13  14
ATOM     14  C   UNL     1      34.485  -7.767 -23.189  0.00  0.00    +0.002 C 
BRANCH  14  15
ATOM     15  C   UNL     1      32.972  -7.790 -22.967  0.00  0.00    +0.021 C 
BRANCH  15  16
ATOM     16  C   UNL     1      32.632  -7.676 -21.485  0.00  0.00    +0.091 C 
BRANCH  16  17
ATOM     17  N   UNL     1      32.117  -8.975 -21.000  0.00  0.00    -0.303 N 
ATOM     18  C   UNL     1      31.535  -9.806 -21.876  0.00  0.00    +0.117 C 
ATOM     19  C   UNL     1      32.250  -9.278 -19.702  0.00  0.00    +0.062 C 
ATOM     20  C   UNL     1      31.043 -11.031 -21.449  0.00  0.00    -0.005 C 
ATOM     21  C   UNL     1      31.776 -10.489 -19.219  0.00  0.00    +0.016 C 
ATOM     22  C   UNL     1      31.166 -11.373 -20.105  0.00  0.00    -0.002 C 
ENDBRANCH  16  17
ENDBRANCH  15  16
ENDBRANCH  14  15
ENDBRANCH  13  14
ENDBRANCH  12  13
ENDBRANCH   1  12
TORSDOF 15
ENDMDL
MODEL 3
REMARK VINA RESULT:      -7.6      1.784      4.283
REMARK  Name = 2683
REMARK  15 active torsions:
REMARK  status: ('A' for Active; 'I' for Inactive)
REMARK    1  A    between atoms: C_1  and  C_2
REMARK    2  A    between atoms: C_1  and  C_12
REMARK    3  A    between atoms: C_2  and  C_3
REMARK    4  A    between atoms: C_3  and  C_4
REMARK    5  A    between atoms: C_4  and  C_5
REMARK    6  A    between atoms: C_5  and  C_6
REMARK    7  A    between atoms: C_6  and  C_7
REMARK    8  A    between atoms: C_7  and  C_8
REMARK    9  A    between atoms: C_8  and  C_9
REMARK   10  A    between atoms: C_9  and  C_10
REMARK   11  A    between atoms: C_12  and  C_13
REMARK   12  A    between atoms: C_13  and  C_14
REMARK   13  A    between atoms: C_14  and  C_15
REMARK   14  A    between atoms: C_15  and  C_16
REMARK   15  A    between atoms: C_16  and  N_17
REMARK                            x       y       z     vdW  Elec       q    Type
REMARK                         _______ _______ _______ _____ _____    ______ ____
ROOT
ATOM      1  C   UNL     1      34.941 -10.290 -25.302  0.00  0.00    +0.000 C 
ENDROOT
BRANCH   1   2
ATOM      2  C   UNL     1      34.130 -11.586 -25.401  0.00  0.00    +0.000 C 
BRANCH   2   3
ATOM      3  C   UNL     1      33.396 -12.014 -24.126  0.00  0.00    +0.000 C 
BRANCH   3   4
ATOM      4  C   UNL     1      33.732 -13.439 -23.679  0.00  0.00    +0.000 C 
BRANCH   4   5
ATOM      5  C   UNL     1      33.431 -14.451 -24.788  0.00  0.00    +0.000 C 
BRANCH   5   6
ATOM      6  C   UNL     1      33.944 -15.862 -24.481  0.00  0.00    +0.000 C 
BRANCH   6   7
ATOM      7  C   UNL     1      35.004 -15.896 -23.377  0.00  0.00    +0.000 C 
BRANCH   7   8
ATOM      8  C   UNL     1      34.710 -17.004 -22.362  0.00  0.00    +0.000 C 
BRANCH   8   9
ATOM      9  C   UNL     1      34.837 -16.546 -20.907  0.00  0.00    +0.000 C 
BRANCH   9  10
ATOM     10  C   UNL     1      34.367 -15.110 -20.677  0.00  0.00    +0.000 C 
ATOM     11  C   UNL     1      32.865 -15.048 -20.445  0.00  0.00    +0.000 C 
ENDBRANCH   9  10
ENDBRANCH   8   9
ENDBRANCH   7   8
ENDBRANCH   6   7
ENDBRANCH   5   6
ENDBRANCH   4   5
ENDBRANCH   3   4
ENDBRANCH   2   3
ENDBRANCH   1   2
BRANCH   1  12
ATOM     12  C   UNL     1      34.691  -9.510 -24.009  0.00  0.00    +0.000 C 
BRANCH  12  13
ATOM     13  C   UNL     1      34.776  -8.001 -24.248  0.00  0.00    +0.000 C 
BRANCH  13  14
ATOM     14  C   UNL     1      33.557  -7.278 -23.673  0.00  0.00    +0.002 C 
BRANCH  14  15
ATOM     15  C   UNL     1      33.351  -7.622 -22.198  0.00  0.00    +0.021 C 
BRANCH  15  16
ATOM     16  C   UNL     1      31.882  -7.897 -21.896  0.00  0.00    +0.091 C 
BRANCH  16  17
ATOM     17  N   UNL     1      31.765  -9.175 -21.162  0.00  0.00    -0.303 N 
ATOM     18  C   UNL     1      32.029  -9.192 -19.848  0.00  0.00    +0.117 C 
ATOM     19  C   UNL     1      31.398 -10.275 -21.835  0.00  0.00    +0.062 C 
ATOM     20  C   UNL     1      31.927 -10.377 -19.134  0.00  0.00    -0.005 C 
ATOM     21  C   UNL     1      31.280 -11.488 -21.172  0.00  0.00    +0.016 C 
ATOM     22  C   UNL     1      31.548 -11.536 -19.807  0.00  0.00    -0.002 C 
ENDBRANCH  16  17
ENDBRANCH  15  16
ENDBRANCH  14  15
ENDBRANCH  13  14
ENDBRANCH  12  13
ENDBRANCH   1  12
TORSDOF 15
ENDMDL
MODEL 4
REMARK VINA RESULT:      -7.6      1.526      3.795
REMARK  Name = 2683
REMARK  15 active torsions:
REMARK  status: ('A' for Active; 'I' for Inactive)
REMARK    1  A    between atoms: C_1  and  C_2
REMARK    2  A    between atoms: C_1  and  C_12
REMARK    3  A    between atoms: C_2  and  C_3
REMARK    4  A    between atoms: C_3  and  C_4
REMARK    5  A    between atoms: C_4  and  C_5
REMARK    6  A    between atoms: C_5  and  C_6
REMARK    7  A    between atoms: C_6  and  C_7
REMARK    8  A    between atoms: C_7  and  C_8
REMARK    9  A    between atoms: C_8  and  C_9
REMARK   10  A    between atoms: C_9  and  C_10
REMARK   11  A    between atoms: C_12  and  C_13
REMARK   12  A    between atoms: C_13  and  C_14
REMARK   13  A    between atoms: C_14  and  C_15
REMARK   14  A    between atoms: C_15  and  C_16
REMARK   15  A    between atoms: C_16  and  N_17
REMARK                            x       y       z     vdW  Elec       q    Type
REMARK                         _______ _______ _______ _____ _____    ______ ____
ROOT
ATOM      1  C   UNL     1      33.188 -15.165 -26.140  0.00  0.00    +0.000 C 
ENDROOT
BRANCH   1   2
ATOM      2  C   UNL     1      33.776 -15.648 -24.811  0.00  0.00    +0.000 C 
BRANCH   2   3
ATOM      3  C   UNL     1      34.867 -16.719 -24.912  0.00  0.00    +0.000 C 
BRANCH   3   4
ATOM      4  C   UNL     1      34.315 -18.143 -25.025  0.00  0.00    +0.000 C 
BRANCH   4   5
ATOM      5  C   UNL     1      34.704 -18.984 -23.806  0.00  0.00    +0.000 C 
BRANCH   5   6
ATOM      6  C   UNL     1      35.825 -18.361 -22.968  0.00  0.00    +0.000 C 
BRANCH   6   7
ATOM      7  C   UNL     1      35.485 -18.260 -21.478  0.00  0.00    +0.000 C 
BRANCH   7   8
ATOM      8  C   UNL     1      34.316 -17.299 -21.242  0.00  0.00    +0.000 C 
BRANCH   8   9
ATOM      9  C   UNL     1      34.758 -15.857 -20.977  0.00  0.00    +0.000 C 
BRANCH   9  10
ATOM     10  C   UNL     1      33.665 -14.825 -21.253  0.00  0.00    +0.000 C 
ATOM     11  C   UNL     1      32.315 -15.294 -20.734  0.00  0.00    +0.000 C 
ENDBRANCH   9  10
ENDBRANCH   8   9
ENDBRANCH   7   8
ENDBRANCH   6   7
ENDBRANCH   5   6
ENDBRANCH   4   5
ENDBRANCH   3   4
ENDBRANCH   2   3
ENDBRANCH   1   2
BRANCH   1  12
ATOM     12  C   UNL     1      33.040 -13.645 -26.226  0.00  0.00    +0.000 C 
BRANCH  12  13
ATOM     13  C   UNL     1      33.552 -12.967 -24.953  0.00  0.00    +0.000 C 
BRANCH  13  14
ATOM     14  C   UNL     1      33.974 -11.522 -25.224  0.00  0.00    +0.002 C 
BRANCH  14  15
ATOM     15  C   UNL     1      34.024 -10.705 -23.933  0.00  0.00    +0.021 C 
BRANCH  15  16
ATOM     16  C   UNL     1      32.724  -9.941 -23.714  0.00  0.00    +0.091 C 
BRANCH  16  17
ATOM     17  N   UNL     1      32.235 -10.191 -22.341  0.00  0.00    -0.303 N 
ATOM     18  C   UNL     1      31.742 -11.401 -22.041  0.00  0.00    +0.117 C 
ATOM     19  C   UNL     1      32.300  -9.200 -21.442  0.00  0.00    +0.062 C 
ATOM     20  C   UNL     1      31.276 -11.663 -20.762  0.00  0.00    -0.005 C 
ATOM     21  C   UNL     1      31.848  -9.406 -20.146  0.00  0.00    +0.016 C 
ATOM     22  C   UNL     1      31.331 -10.653 -19.806  0.00  0.00    -0.002 C 
ENDBRANCH  16  17
ENDBRANCH  15  16
ENDBRANCH  14  15
ENDBRANCH  13  14
ENDBRANCH  12  13
ENDBRANCH   1  12
TORSDOF 15
ENDMDL
MODEL 5
REMARK VINA RESULT:      -7.6      1.541      3.943
REMARK  Name = 2683
REMARK  15 active torsions:
REMARK  status: ('A' for Active; 'I' for Inactive)
REMARK    1  A    between atoms: C_1  and  C_2
REMARK    2  A    between atoms: C_1  and  C_12
REMARK    3  A    between atoms: C_2  and  C_3
REMARK    4  A    between atoms: C_3  and  C_4
REMARK    5  A    between atoms: C_4  and  C_5
REMARK    6  A    between atoms: C_5  and  C_6
REMARK    7  A    between atoms: C_6  and  C_7
REMARK    8  A    between atoms: C_7  and  C_8
REMARK    9  A    between atoms: C_8  and  C_9
REMARK   10  A    between atoms: C_9  and  C_10
REMARK   11  A    between atoms: C_12  and  C_13
REMARK   12  A    between atoms: C_13  and  C_14
REMARK   13  A    between atoms: C_14  and  C_15
REMARK   14  A    between atoms: C_15  and  C_16
REMARK   15  A    between atoms: C_16  and  N_17
REMARK                            x       y       z     vdW  Elec       q    Type
REMARK                         _______ _______ _______ _____ _____    ______ ____
ROOT
ATOM      1  C   UNL     1      33.899 -11.806 -25.231  0.00  0.00    +0.000 C 
ENDROOT
BRANCH   1   2
ATOM      2  C   UNL     1      33.717 -12.237 -23.772  0.00  0.00    +0.000 C 
BRANCH   2   3
ATOM      3  C   UNL     1      33.903 -13.731 -23.488  0.00  0.00    +0.000 C 
BRANCH   3   4
ATOM      4  C   UNL     1      32.875 -14.298 -22.506  0.00  0.00    +0.000 C 
BRANCH   4   5
ATOM      5  C   UNL     1      33.380 -14.207 -21.063  0.00  0.00    +0.000 C 
BRANCH   5   6
ATOM      6  C   UNL     1      34.333 -15.342 -20.678  0.00  0.00    +0.000 C 
BRANCH   6   7
ATOM      7  C   UNL     1      33.924 -16.701 -21.254  0.00  0.00    +0.000 C 
BRANCH   7   8
ATOM      8  C   UNL     1      35.128 -17.639 -21.367  0.00  0.00    +0.000 C 
BRANCH   8   9
ATOM      9  C   UNL     1      34.757 -19.056 -21.813  0.00  0.00    +0.000 C 
BRANCH   9  10
ATOM     10  C   UNL     1      34.398 -19.985 -20.654  0.00  0.00    +0.000 C 
ATOM     11  C   UNL     1      32.892 -20.140 -20.513  0.00  0.00    +0.000 C 
ENDBRANCH   9  10
ENDBRANCH   8   9
ENDBRANCH   7   8
ENDBRANCH   6   7
ENDBRANCH   5   6
ENDBRANCH   4   5
ENDBRANCH   3   4
ENDBRANCH   2   3
ENDBRANCH   1   2
BRANCH   1  12
ATOM     12  C   UNL     1      34.819 -10.595 -25.399  0.00  0.00    +0.000 C 
BRANCH  12  13
ATOM     13  C   UNL     1      34.945  -9.810 -24.091  0.00  0.00    +0.000 C 
BRANCH  13  14
ATOM     14  C   UNL     1      34.186  -8.484 -24.165  0.00  0.00    +0.002 C 
BRANCH  14  15
ATOM     15  C   UNL     1      33.829  -7.969 -22.770  0.00  0.00    +0.021 C 
BRANCH  15  16
ATOM     16  C   UNL     1      32.320  -7.962 -22.555  0.00  0.00    +0.091 C 
BRANCH  16  17
ATOM     17  N   UNL     1      31.949  -9.078 -21.658  0.00  0.00    -0.303 N 
ATOM     18  C   UNL     1      31.355 -10.158 -22.182  0.00  0.00    +0.117 C 
ATOM     19  C   UNL     1      32.219  -8.971 -20.349  0.00  0.00    +0.062 C 
ATOM     20  C   UNL     1      30.996 -11.219 -21.364  0.00  0.00    -0.005 C 
ATOM     21  C   UNL     1      31.882 -10.001 -19.484  0.00  0.00    +0.016 C 
ATOM     22  C   UNL     1      31.264 -11.137 -20.000  0.00  0.00    -0.002 C 
ENDBRANCH  16  17
ENDBRANCH  15  16
ENDBRANCH  14  15
ENDBRANCH  13  14
ENDBRANCH  12  13
ENDBRANCH   1  12
TORSDOF 15
ENDMDL
MODEL 6
REMARK VINA RESULT:      -7.5      1.148      2.954
REMARK  Name = 2683
REMARK  15 active torsions:
REMARK  status: ('A' for Active; 'I' for Inactive)
REMARK    1  A    between atoms: C_1  and  C_2
REMARK    2  A    between atoms: C_1  and  C_12
REMARK    3  A    between atoms: C_2  and  C_3
REMARK    4  A    between atoms: C_3  and  C_4
REMARK    5  A    between atoms: C_4  and  C_5
REMARK    6  A    between atoms: C_5  and  C_6
REMARK    7  A    between atoms: C_6  and  C_7
REMARK    8  A    between atoms: C_7  and  C_8
REMARK    9  A    between atoms: C_8  and  C_9
REMARK   10  A    between atoms: C_9  and  C_10
REMARK   11  A    between atoms: C_12  and  C_13
REMARK   12  A    between atoms: C_13  and  C_14
REMARK   13  A    between atoms: C_14  and  C_15
REMARK   14  A    between atoms: C_15  and  C_16
REMARK   15  A    between atoms: C_16  and  N_17
REMARK                            x       y       z     vdW  Elec       q    Type
REMARK                         _______ _______ _______ _____ _____    ______ ____
ROOT
ATOM      1  C   UNL     1      32.698 -14.451 -21.848  0.00  0.00    +0.000 C 
ENDROOT
BRANCH   1   2
ATOM      2  C   UNL     1      33.026 -14.974 -20.446  0.00  0.00    +0.000 C 
BRANCH   2   3
ATOM      3  C   UNL     1      34.378 -15.678 -20.294  0.00  0.00    +0.000 C 
BRANCH   3   4
ATOM      4  C   UNL     1      34.889 -16.304 -21.594  0.00  0.00    +0.000 C 
BRANCH   4   5
ATOM      5  C   UNL     1      35.288 -17.767 -21.383  0.00  0.00    +0.000 C 
BRANCH   5   6
ATOM      6  C   UNL     1      34.592 -18.733 -22.347  0.00  0.00    +0.000 C 
BRANCH   6   7
ATOM      7  C   UNL     1      35.269 -18.817 -23.718  0.00  0.00    +0.000 C 
BRANCH   7   8
ATOM      8  C   UNL     1      34.379 -18.220 -24.811  0.00  0.00    +0.000 C 
BRANCH   8   9
ATOM      9  C   UNL     1      34.813 -16.819 -25.251  0.00  0.00    +0.000 C 
BRANCH   9  10
ATOM     10  C   UNL     1      33.777 -15.737 -24.944  0.00  0.00    +0.000 C 
ATOM     11  C   UNL     1      33.078 -15.265 -26.209  0.00  0.00    +0.000 C 
ENDBRANCH   9  10
ENDBRANCH   8   9
ENDBRANCH   7   8
ENDBRANCH   6   7
ENDBRANCH   5   6
ENDBRANCH   4   5
ENDBRANCH   3   4
ENDBRANCH   2   3
ENDBRANCH   1   2
BRANCH   1  12
ATOM     12  C   UNL     1      32.000 -13.089 -21.844  0.00  0.00    +0.000 C 
BRANCH  12  13
ATOM     13  C   UNL     1      31.950 -12.497 -20.434  0.00  0.00    +0.000 C 
BRANCH  13  14
ATOM     14  C   UNL     1      31.076 -11.242 -20.389  0.00  0.00    +0.002 C 
BRANCH  14  15
ATOM     15  C   UNL     1      31.158 -10.461 -21.700  0.00  0.00    +0.021 C 
BRANCH  15  16
ATOM     16  C   UNL     1      31.849  -9.117 -21.498  0.00  0.00    +0.091 C 
BRANCH  16  17
ATOM     17  N   UNL     1      32.946  -8.979 -22.481  0.00  0.00    -0.303 N 
ATOM     18  C   UNL     1      33.618  -7.821 -22.540  0.00  0.00    +0.117 C 
ATOM     19  C   UNL     1      33.230 -10.016 -23.281  0.00  0.00    +0.062 C 
ATOM     20  C   UNL     1      34.651  -7.663 -23.452  0.00  0.00    -0.005 C 
ATOM     21  C   UNL     1      34.253  -9.914 -24.213  0.00  0.00    +0.016 C 
ATOM     22  C   UNL     1      34.970  -8.723 -24.296  0.00  0.00    -0.002 C 
ENDBRANCH  16  17
ENDBRANCH  15  16
ENDBRANCH  14  15
ENDBRANCH  13  14
ENDBRANCH  12  13
ENDBRANCH   1  12
TORSDOF 15
ENDMDL
MODEL 7
REMARK VINA RESULT:      -7.5      2.011      8.653
REMARK  Name = 2683
REMARK  15 active torsions:
REMARK  status: ('A' for Active; 'I' for Inactive)
REMARK    1  A    between atoms: C_1  and  C_2
REMARK    2  A    between atoms: C_1  and  C_12
REMARK    3  A    between atoms: C_2  and  C_3
REMARK    4  A    between atoms: C_3  and  C_4
REMARK    5  A    between atoms: C_4  and  C_5
REMARK    6  A    between atoms: C_5  and  C_6
REMARK    7  A    between atoms: C_6  and  C_7
REMARK    8  A    between atoms: C_7  and  C_8
REMARK    9  A    between atoms: C_8  and  C_9
REMARK   10  A    between atoms: C_9  and  C_10
REMARK   11  A    between atoms: C_12  and  C_13
REMARK   12  A    between atoms: C_13  and  C_14
REMARK   13  A    between atoms: C_14  and  C_15
REMARK   14  A    between atoms: C_15  and  C_16
REMARK   15  A    between atoms: C_16  and  N_17
REMARK                            x       y       z     vdW  Elec       q    Type
REMARK                         _______ _______ _______ _____ _____    ______ ____
ROOT
ATOM      1  C   UNL     1      31.670 -11.862 -20.271  0.00  0.00    +0.000 C 
ENDROOT
BRANCH   1   2
ATOM      2  C   UNL     1      31.091 -10.501 -19.869  0.00  0.00    +0.000 C 
BRANCH   2   3
ATOM      3  C   UNL     1      32.114  -9.415 -19.523  0.00  0.00    +0.000 C 
BRANCH   3   4
ATOM      4  C   UNL     1      32.580  -8.607 -20.737  0.00  0.00    +0.000 C 
BRANCH   4   5
ATOM      5  C   UNL     1      31.803  -7.294 -20.858  0.00  0.00    +0.000 C 
BRANCH   5   6
ATOM      6  C   UNL     1      32.257  -6.423 -22.033  0.00  0.00    +0.000 C 
BRANCH   6   7
ATOM      7  C   UNL     1      32.415  -7.203 -23.342  0.00  0.00    +0.000 C 
BRANCH   7   8
ATOM      8  C   UNL     1      33.764  -6.907 -24.002  0.00  0.00    +0.000 C 
BRANCH   8   9
ATOM      9  C   UNL     1      34.846  -7.936 -23.663  0.00  0.00    +0.000 C 
BRANCH   9  10
ATOM     10  C   UNL     1      34.425  -9.378 -23.946  0.00  0.00    +0.000 C 
ATOM     11  C   UNL     1      35.237  -9.980 -25.082  0.00  0.00    +0.000 C 
ENDBRANCH   9  10
ENDBRANCH   8   9
ENDBRANCH   7   8
ENDBRANCH   6   7
ENDBRANCH   5   6
ENDBRANCH   4   5
ENDBRANCH   3   4
ENDBRANCH   2   3
ENDBRANCH   1   2
BRANCH   1  12
ATOM     12  C   UNL     1      31.761 -12.063 -21.785  0.00  0.00    +0.000 C 
BRANCH  12  13
ATOM     13  C   UNL     1      32.278 -13.462 -22.127  0.00  0.00    +0.000 C 
BRANCH  13  14
ATOM     14  C   UNL     1      32.788 -14.186 -20.880  0.00  0.00    +0.002 C 
BRANCH  14  15
ATOM     15  C   UNL     1      34.166 -14.803 -21.119  0.00  0.00    +0.021 C 
BRANCH  15  16
ATOM     16  C   UNL     1      34.551 -14.735 -22.592  0.00  0.00    +0.091 C 
BRANCH  16  17
ATOM     17  N   UNL     1      34.737 -16.107 -23.113  0.00  0.00    -0.303 N 
ATOM     18  C   UNL     1      35.170 -17.061 -22.277  0.00  0.00    +0.117 C 
ATOM     19  C   UNL     1      34.465 -16.351 -24.402  0.00  0.00    +0.062 C 
ATOM     20  C   UNL     1      35.353 -18.357 -22.738  0.00  0.00    -0.005 C 
ATOM     21  C   UNL     1      34.630 -17.628 -24.917  0.00  0.00    +0.016 C 
ATOM     22  C   UNL     1      35.079 -18.640 -24.073  0.00  0.00    -0.002 C 
ENDBRANCH  16  17
ENDBRANCH  15  16
ENDBRANCH  14  15
ENDBRANCH  13  14
ENDBRANCH  12  13
ENDBRANCH   1  12
TORSDOF 15
ENDMDL
MODEL 8
REMARK VINA RESULT:      -7.5      0.872      2.253
REMARK  Name = 2683
REMARK  15 active torsions:
REMARK  status: ('A' for Active; 'I' for Inactive)
REMARK    1  A    between atoms: C_1  and  C_2
REMARK    2  A    between atoms: C_1  and  C_12
REMARK    3  A    between atoms: C_2  and  C_3
REMARK    4  A    between atoms: C_3  and  C_4
REMARK    5  A    between atoms: C_4  and  C_5
REMARK    6  A    between atoms: C_5  and  C_6
REMARK    7  A    between atoms: C_6  and  C_7
REMARK    8  A    between atoms: C_7  and  C_8
REMARK    9  A    between atoms: C_8  and  C_9
REMARK   10  A    between atoms: C_9  and  C_10
REMARK   11  A    between atoms: C_12  and  C_13
REMARK   12  A    between atoms: C_13  and  C_14
REMARK   13  A    between atoms: C_14  and  C_15
REMARK   14  A    between atoms: C_15  and  C_16
REMARK   15  A    between atoms: C_16  and  N_17
REMARK                            x       y       z     vdW  Elec       q    Type
REMARK                         _______ _______ _______ _____ _____    ______ ____
ROOT
ATOM      1  C   UNL     1      34.066 -14.615 -23.725  0.00  0.00    +0.000 C 
ENDROOT
BRANCH   1   2
ATOM      2  C   UNL     1      33.801 -15.704 -24.770  0.00  0.00    +0.000 C 
BRANCH   2   3
ATOM      3  C   UNL     1      34.862 -16.804 -24.872  0.00  0.00    +0.000 C 
BRANCH   3   4
ATOM      4  C   UNL     1      34.278 -18.219 -24.842  0.00  0.00    +0.000 C 
BRANCH   4   5
ATOM      5  C   UNL     1      35.018 -19.101 -23.833  0.00  0.00    +0.000 C 
BRANCH   5   6
ATOM      6  C   UNL     1      35.527 -18.332 -22.610  0.00  0.00    +0.000 C 
BRANCH   6   7
ATOM      7  C   UNL     1      35.014 -18.896 -21.281  0.00  0.00    +0.000 C 
BRANCH   7   8
ATOM      8  C   UNL     1      33.648 -19.563 -21.455  0.00  0.00    +0.000 C 
BRANCH   8   9
ATOM      9  C   UNL     1      33.224 -20.406 -20.249  0.00  0.00    +0.000 C 
BRANCH   9  10
ATOM     10  C   UNL     1      34.354 -21.261 -19.677  0.00  0.00    +0.000 C 
ATOM     11  C   UNL     1      33.813 -22.482 -18.950  0.00  0.00    +0.000 C 
ENDBRANCH   9  10
ENDBRANCH   8   9
ENDBRANCH   7   8
ENDBRANCH   6   7
ENDBRANCH   5   6
ENDBRANCH   4   5
ENDBRANCH   3   4
ENDBRANCH   2   3
ENDBRANCH   1   2
BRANCH   1  12
ATOM     12  C   UNL     1      33.970 -15.116 -22.283  0.00  0.00    +0.000 C 
BRANCH  12  13
ATOM     13  C   UNL     1      32.748 -14.529 -21.573  0.00  0.00    +0.000 C 
BRANCH  13  14
ATOM     14  C   UNL     1      32.184 -13.331 -22.338  0.00  0.00    +0.002 C 
BRANCH  14  15
ATOM     15  C   UNL     1      31.892 -12.160 -21.399  0.00  0.00    +0.021 C 
BRANCH  15  16
ATOM     16  C   UNL     1      31.158 -11.040 -22.128  0.00  0.00    +0.091 C 
BRANCH  16  17
ATOM     17  N   UNL     1      32.075  -9.894 -22.313  0.00  0.00    -0.303 N 
ATOM     18  C   UNL     1      32.906  -9.897 -23.365  0.00  0.00    +0.117 C 
ATOM     19  C   UNL     1      32.044  -8.892 -21.424  0.00  0.00    +0.062 C 
ATOM     20  C   UNL     1      33.777  -8.835 -23.564  0.00  0.00    -0.005 C 
ATOM     21  C   UNL     1      32.894  -7.805 -21.573  0.00  0.00    +0.016 C 
ATOM     22  C   UNL     1      33.768  -7.779 -22.656  0.00  0.00    -0.002 C 
ENDBRANCH  16  17
ENDBRANCH  15  16
ENDBRANCH  14  15
ENDBRANCH  13  14
ENDBRANCH  12  13
ENDBRANCH   1  12
TORSDOF 15
ENDMDL
MODEL 9
REMARK VINA RESULT:      -7.5      1.946      8.289
REMARK  Name = 2683
REMARK  15 active torsions:
REMARK  status: ('A' for Active; 'I' for Inactive)
REMARK    1  A    between atoms: C_1  and  C_2
REMARK    2  A    between atoms: C_1  and  C_12
REMARK    3  A    between atoms: C_2  and  C_3
REMARK    4  A    between atoms: C_3  and  C_4
REMARK    5  A    between atoms: C_4  and  C_5
REMARK    6  A    between atoms: C_5  and  C_6
REMARK    7  A    between atoms: C_6  and  C_7
REMARK    8  A    between atoms: C_7  and  C_8
REMARK    9  A    between atoms: C_8  and  C_9
REMARK   10  A    between atoms: C_9  and  C_10
REMARK   11  A    between atoms: C_12  and  C_13
REMARK   12  A    between atoms: C_13  and  C_14
REMARK   13  A    between atoms: C_14  and  C_15
REMARK   14  A    between atoms: C_15  and  C_16
REMARK   15  A    between atoms: C_16  and  N_17
REMARK                            x       y       z     vdW  Elec       q    Type
REMARK                         _______ _______ _______ _____ _____    ______ ____
ROOT
ATOM      1  C   UNL     1      34.373 -11.292 -25.038  0.00  0.00    +0.000 C 
ENDROOT
BRANCH   1   2
ATOM      2  C   UNL     1      34.107 -10.147 -24.056  0.00  0.00    +0.000 C 
BRANCH   2   3
ATOM      3  C   UNL     1      34.905  -8.861 -24.296  0.00  0.00    +0.000 C 
BRANCH   3   4
ATOM      4  C   UNL     1      34.634  -7.772 -23.255  0.00  0.00    +0.000 C 
BRANCH   4   5
ATOM      5  C   UNL     1      33.330  -7.030 -23.559  0.00  0.00    +0.000 C 
BRANCH   5   6
ATOM      6  C   UNL     1      32.159  -7.466 -22.674  0.00  0.00    +0.000 C 
BRANCH   6   7
ATOM      7  C   UNL     1      32.475  -7.410 -21.176  0.00  0.00    +0.000 C 
BRANCH   7   8
ATOM      8  C   UNL     1      32.306  -8.784 -20.523  0.00  0.00    +0.000 C 
BRANCH   8   9
ATOM      9  C   UNL     1      31.757  -9.848 -21.479  0.00  0.00    +0.000 C 
BRANCH   9  10
ATOM     10  C   UNL     1      31.046 -10.998 -20.766  0.00  0.00    +0.000 C 
ATOM     11  C   UNL     1      31.563 -11.174 -19.346  0.00  0.00    +0.000 C 
ENDBRANCH   9  10
ENDBRANCH   8   9
ENDBRANCH   7   8
ENDBRANCH   6   7
ENDBRANCH   5   6
ENDBRANCH   4   5
ENDBRANCH   3   4
ENDBRANCH   2   3
ENDBRANCH   1   2
BRANCH   1  12
ATOM     12  C   UNL     1      33.535 -12.542 -24.760  0.00  0.00    +0.000 C 
BRANCH  12  13
ATOM     13  C   UNL     1      33.779 -13.067 -23.344  0.00  0.00    +0.000 C 
BRANCH  13  14
ATOM     14  C   UNL     1      32.545 -13.790 -22.800  0.00  0.00    +0.002 C 
BRANCH  14  15
ATOM     15  C   UNL     1      32.922 -14.776 -21.694  0.00  0.00    +0.021 C 
BRANCH  15  16
ATOM     16  C   UNL     1      34.405 -15.124 -21.748  0.00  0.00    +0.091 C 
BRANCH  16  17
ATOM     17  N   UNL     1      34.565 -16.503 -22.258  0.00  0.00    -0.303 N 
ATOM     18  C   UNL     1      34.919 -16.681 -23.539  0.00  0.00    +0.117 C 
ATOM     19  C   UNL     1      34.352 -17.530 -21.423  0.00  0.00    +0.062 C 
ATOM     20  C   UNL     1      35.077 -17.963 -24.044  0.00  0.00    -0.005 C 
ATOM     21  C   UNL     1      34.494 -18.834 -21.874  0.00  0.00    +0.016 C 
ATOM     22  C   UNL     1      34.861 -19.049 -23.200  0.00  0.00    -0.002 C 
ENDBRANCH  16  17
ENDBRANCH  15  16
ENDBRANCH  14  15
ENDBRANCH  13  14
ENDBRANCH  12  13
ENDBRANCH   1  12
TORSDOF 15
ENDMDL
