MODEL 1
REMARK VINA RESULT:      -8.8      0.000      0.000
REMARK  Name = 447750
REMARK  11 active torsions:
REMARK  status: ('A' for Active; 'I' for Inactive)
REMARK    1  A    between atoms: C_6  and  C_17
REMARK    2  A    between atoms: C_9  and  C_21
REMARK    3  A    between atoms: C_17  and  O_19
REMARK    4  A    between atoms: C_21  and  C_22
REMARK    5  A    between atoms: C_22  and  O_23
REMARK    6  A    between atoms: O_23  and  P_24
REMARK    7  A    between atoms: P_24  and  O_26
REMARK    8  A    between atoms: P_24  and  O_28
REMARK    9  A    between atoms: O_28  and  P_29
REMARK   10  A    between atoms: P_29  and  O_31
REMARK   11  A    between atoms: P_29  and  O_33
REMARK                            x       y       z     vdW  Elec       q    Type
REMARK                         _______ _______ _______ _____ _____    ______ ____
ROOT
ATOM      1  S   UNL     1      32.509 -10.500 -23.589  0.00  0.00    -0.079 S 
ATOM      2  N   UNL     1      32.391  -8.583 -21.786  0.00  0.00    -0.285 N 
ATOM      3  N   UNL     1      32.277  -7.844 -24.098  0.00  0.00    -0.286 N 
ATOM      4  N   UNL     1      31.409  -5.711 -24.617  0.00  0.00    -0.340 NA
ATOM      5  N   UNL     1      30.959  -4.091 -22.895  0.00  0.00    -0.186 NA
ATOM      6  C   UNL     1      32.904  -8.745 -23.152  0.00  0.00    +0.188 C 
ATOM      7  C   UNL     1      32.293  -7.228 -21.258  0.00  0.00    +0.125 C 
ATOM      8  C   UNL     1      31.975  -9.763 -21.160  0.00  0.00    +0.029 C 
ATOM      9  C   UNL     1      31.983 -10.858 -21.949  0.00  0.00    +0.018 C 
ATOM     10  C   UNL     1      31.822  -6.271 -22.322  0.00  0.00    +0.062 C 
ATOM     11  C   UNL     1      31.833  -6.594 -23.681  0.00  0.00    +0.192 C 
ATOM     12  C   UNL     1      31.578  -9.732 -19.716  0.00  0.00    +0.047 C 
ATOM     13  C   UNL     1      31.383  -4.997 -21.993  0.00  0.00    +0.111 C 
ATOM     14  C   UNL     1      30.996  -4.509 -24.169  0.00  0.00    +0.066 C 
ATOM     15  C   UNL     1      30.532  -3.539 -25.203  0.00  0.00    +0.129 C 
ATOM     16  H   UNL     1      32.166  -8.117 -25.038  0.00  0.00    +0.151 HD
ENDROOT
BRANCH   6  17
ATOM     17  C   UNL     1      34.424  -8.572 -23.188  0.00  0.00    +0.155 C 
ATOM     18  C   UNL     1      34.827  -7.346 -23.985  0.00  0.00    +0.036 C 
BRANCH  17  19
ATOM     19  O   UNL     1      35.004  -9.732 -23.770  0.00  0.00    -0.380 OA
ATOM     20  H   UNL     1      34.577 -10.523 -23.410  0.00  0.00    +0.211 HD
ENDBRANCH  17  19
ENDBRANCH   6  17
BRANCH   9  21
ATOM     21  C   UNL     1      31.590 -12.260 -21.619  0.00  0.00    +0.066 C 
BRANCH  21  22
ATOM     22  C   UNL     1      32.331 -13.285 -22.468  0.00  0.00    +0.159 C 
BRANCH  22  23
ATOM     23  O   UNL     1      32.719 -14.387 -21.657  0.00  0.00    -0.273 OA
BRANCH  23  24
ATOM     24  P   UNL     1      34.156 -15.090 -21.889  0.00  0.00    +0.484 P 
ATOM     25  O   UNL     1      34.899 -14.608 -23.100  0.00  0.00    -0.227 OA
BRANCH  24  26
ATOM     26  O   UNL     1      34.944 -14.873 -20.494  0.00  0.00    -0.302 OA
ATOM     27  H   UNL     1      34.311 -14.900 -19.757  0.00  0.00    +0.222 HD
ENDBRANCH  24  26
BRANCH  24  28
ATOM     28  O   UNL     1      33.838 -16.675 -21.894  0.00  0.00    -0.186 OA
BRANCH  28  29
ATOM     29  P   UNL     1      34.821 -17.953 -22.003  0.00  0.00    +0.481 P 
ATOM     30  O   UNL     1      34.125 -19.257 -22.264  0.00  0.00    -0.227 OA
BRANCH  29  31
ATOM     31  O   UNL     1      35.892 -17.505 -23.127  0.00  0.00    -0.302 OA
ATOM     32  H   UNL     1      35.487 -16.851 -23.718  0.00  0.00    +0.222 HD
ENDBRANCH  29  31
BRANCH  29  33
ATOM     33  O   UNL     1      35.665 -17.886 -20.627  0.00  0.00    -0.302 OA
ATOM     34  H   UNL     1      36.426 -17.295 -20.743  0.00  0.00    +0.222 HD
ENDBRANCH  29  33
ENDBRANCH  28  29
ENDBRANCH  24  28
ENDBRANCH  23  24
ENDBRANCH  22  23
ENDBRANCH  21  22
ENDBRANCH   9  21
TORSDOF 11
ENDMDL
MODEL 2
REMARK VINA RESULT:      -8.8      4.533      7.218
REMARK  Name = 447750
REMARK  11 active torsions:
REMARK  status: ('A' for Active; 'I' for Inactive)
REMARK    1  A    between atoms: C_6  and  C_17
REMARK    2  A    between atoms: C_9  and  C_21
REMARK    3  A    between atoms: C_17  and  O_19
REMARK    4  A    between atoms: C_21  and  C_22
REMARK    5  A    between atoms: C_22  and  O_23
REMARK    6  A    between atoms: O_23  and  P_24
REMARK    7  A    between atoms: P_24  and  O_26
REMARK    8  A    between atoms: P_24  and  O_28
REMARK    9  A    between atoms: O_28  and  P_29
REMARK   10  A    between atoms: P_29  and  O_31
REMARK   11  A    between atoms: P_29  and  O_33
REMARK                            x       y       z     vdW  Elec       q    Type
REMARK                         _______ _______ _______ _____ _____    ______ ____
ROOT
ATOM      1  S   UNL     1      34.931 -15.995 -21.443  0.00  0.00    -0.079 S 
ATOM      2  N   UNL     1      33.818 -15.612 -23.801  0.00  0.00    -0.285 N 
ATOM      3  N   UNL     1      34.324 -13.591 -22.549  0.00  0.00    -0.286 N 
ATOM      4  N   UNL     1      34.474 -11.516 -23.663  0.00  0.00    -0.340 NA
ATOM      5  N   UNL     1      33.786 -11.275 -25.957  0.00  0.00    -0.186 NA
ATOM      6  C   UNL     1      33.820 -14.948 -22.490  0.00  0.00    +0.188 C 
ATOM      7  C   UNL     1      33.261 -14.876 -24.929  0.00  0.00    +0.125 C 
ATOM      8  C   UNL     1      34.430 -16.869 -23.834  0.00  0.00    +0.029 C 
ATOM      9  C   UNL     1      35.049 -17.231 -22.690  0.00  0.00    +0.018 C 
ATOM     10  C   UNL     1      33.643 -13.421 -24.860  0.00  0.00    +0.062 C 
ATOM     11  C   UNL     1      34.145 -12.830 -23.698  0.00  0.00    +0.192 C 
ATOM     12  C   UNL     1      34.351 -17.696 -25.081  0.00  0.00    +0.047 C 
ATOM     13  C   UNL     1      33.475 -12.586 -25.956  0.00  0.00    +0.111 C 
ATOM     14  C   UNL     1      34.275 -10.814 -24.796  0.00  0.00    +0.066 C 
ATOM     15  C   UNL     1      34.636  -9.368 -24.753  0.00  0.00    +0.129 C 
ATOM     16  H   UNL     1      34.795 -13.208 -21.774  0.00  0.00    +0.151 HD
ENDROOT
BRANCH   6  17
ATOM     17  C   UNL     1      32.421 -14.964 -21.869  0.00  0.00    +0.155 C 
ATOM     18  C   UNL     1      32.115 -13.662 -21.153  0.00  0.00    +0.036 C 
BRANCH  17  19
ATOM     19  O   UNL     1      32.338 -16.045 -20.951  0.00  0.00    -0.380 OA
ATOM     20  H   UNL     1      32.252 -16.878 -21.439  0.00  0.00    +0.211 HD
ENDBRANCH  17  19
ENDBRANCH   6  17
BRANCH   9  21
ATOM     21  C   UNL     1      35.808 -18.479 -22.383  0.00  0.00    +0.066 C 
BRANCH  21  22
ATOM     22  C   UNL     1      35.025 -19.427 -21.483  0.00  0.00    +0.159 C 
BRANCH  22  23
ATOM     23  O   UNL     1      35.745 -19.644 -20.276  0.00  0.00    -0.273 OA
BRANCH  23  24
ATOM     24  P   UNL     1      35.825 -21.129 -19.643  0.00  0.00    +0.484 P 
ATOM     25  O   UNL     1      36.340 -22.181 -20.581  0.00  0.00    -0.227 OA
BRANCH  24  26
ATOM     26  O   UNL     1      36.704 -20.950 -18.297  0.00  0.00    -0.302 OA
ATOM     27  H   UNL     1      36.629 -21.750 -17.752  0.00  0.00    +0.222 HD
ENDBRANCH  24  26
BRANCH  24  28
ATOM     28  O   UNL     1      34.337 -21.414 -19.079  0.00  0.00    -0.186 OA
BRANCH  28  29
ATOM     29  P   UNL     1      33.686 -22.740 -18.425  0.00  0.00    +0.481 P 
ATOM     30  O   UNL     1      32.255 -22.591 -18.002  0.00  0.00    -0.227 OA
BRANCH  29  31
ATOM     31  O   UNL     1      33.963 -23.879 -19.538  0.00  0.00    -0.302 OA
ATOM     32  H   UNL     1      33.826 -23.507 -20.423  0.00  0.00    +0.222 HD
ENDBRANCH  29  31
BRANCH  29  33
ATOM     33  O   UNL     1      34.720 -23.110 -17.239  0.00  0.00    -0.302 OA
ATOM     34  H   UNL     1      35.512 -23.524 -17.618  0.00  0.00    +0.222 HD
ENDBRANCH  29  33
ENDBRANCH  28  29
ENDBRANCH  24  28
ENDBRANCH  23  24
ENDBRANCH  22  23
ENDBRANCH  21  22
ENDBRANCH   9  21
TORSDOF 11
ENDMDL
MODEL 3
REMARK VINA RESULT:      -8.5     14.766     17.449
REMARK  Name = 447750
REMARK  11 active torsions:
REMARK  status: ('A' for Active; 'I' for Inactive)
REMARK    1  A    between atoms: C_6  and  C_17
REMARK    2  A    between atoms: C_9  and  C_21
REMARK    3  A    between atoms: C_17  and  O_19
REMARK    4  A    between atoms: C_21  and  C_22
REMARK    5  A    between atoms: C_22  and  O_23
REMARK    6  A    between atoms: O_23  and  P_24
REMARK    7  A    between atoms: P_24  and  O_26
REMARK    8  A    between atoms: P_24  and  O_28
REMARK    9  A    between atoms: O_28  and  P_29
REMARK   10  A    between atoms: P_29  and  O_31
REMARK   11  A    between atoms: P_29  and  O_33
REMARK                            x       y       z     vdW  Elec       q    Type
REMARK                         _______ _______ _______ _____ _____    ______ ____
ROOT
ATOM      1  S   UNL     1      34.339 -24.688 -14.654  0.00  0.00    -0.079 S 
ATOM      2  N   UNL     1      36.496 -23.358 -15.377  0.00  0.00    -0.285 N 
ATOM      3  N   UNL     1      36.898 -25.329 -14.013  0.00  0.00    -0.286 N 
ATOM      4  N   UNL     1      39.035 -26.330 -13.983  0.00  0.00    -0.340 NA
ATOM      5  N   UNL     1      40.938 -25.248 -14.985  0.00  0.00    -0.186 NA
ATOM      6  C   UNL     1      36.063 -24.164 -14.228  0.00  0.00    +0.188 C 
ATOM      7  C   UNL     1      37.913 -23.033 -15.477  0.00  0.00    +0.125 C 
ATOM      8  C   UNL     1      35.493 -23.050 -16.302  0.00  0.00    +0.029 C 
ATOM      9  C   UNL     1      34.304 -23.648 -16.073  0.00  0.00    +0.018 C 
ATOM     10  C   UNL     1      38.762 -24.205 -15.060  0.00  0.00    +0.062 C 
ATOM     11  C   UNL     1      38.246 -25.292 -14.350  0.00  0.00    +0.192 C 
ATOM     12  C   UNL     1      35.792 -22.108 -17.428  0.00  0.00    +0.047 C 
ATOM     13  C   UNL     1      40.121 -24.237 -15.339  0.00  0.00    +0.111 C 
ATOM     14  C   UNL     1      40.337 -26.248 -14.322  0.00  0.00    +0.066 C 
ATOM     15  C   UNL     1      41.203 -27.391 -13.913  0.00  0.00    +0.129 C 
ATOM     16  H   UNL     1      36.510 -26.148 -13.628  0.00  0.00    +0.151 HD
ENDROOT
BRANCH   6  17
ATOM     17  C   UNL     1      36.006 -23.315 -12.956  0.00  0.00    +0.155 C 
ATOM     18  C   UNL     1      37.042 -23.761 -11.942  0.00  0.00    +0.036 C 
BRANCH  17  19
ATOM     19  O   UNL     1      34.707 -23.424 -12.390  0.00  0.00    -0.380 OA
ATOM     20  H   UNL     1      34.499 -24.357 -12.233  0.00  0.00    +0.211 HD
ENDBRANCH  17  19
ENDBRANCH   6  17
BRANCH   9  21
ATOM     21  C   UNL     1      33.039 -23.560 -16.858  0.00  0.00    +0.066 C 
BRANCH  21  22
ATOM     22  C   UNL     1      31.866 -23.077 -16.014  0.00  0.00    +0.159 C 
BRANCH  22  23
ATOM     23  O   UNL     1      30.746 -23.929 -16.221  0.00  0.00    -0.273 OA
BRANCH  23  24
ATOM     24  P   UNL     1      29.840 -24.385 -14.962  0.00  0.00    +0.484 P 
ATOM     25  O   UNL     1      29.694 -25.871 -14.803  0.00  0.00    -0.227 OA
BRANCH  24  26
ATOM     26  O   UNL     1      30.508 -23.642 -13.690  0.00  0.00    -0.302 OA
ATOM     27  H   UNL     1      31.240 -23.080 -13.992  0.00  0.00    +0.222 HD
ENDBRANCH  24  26
BRANCH  24  28
ATOM     28  O   UNL     1      28.441 -23.599 -15.158  0.00  0.00    -0.186 OA
BRANCH  28  29
ATOM     29  P   UNL     1      27.782 -22.918 -16.466  0.00  0.00    +0.481 P 
ATOM     30  O   UNL     1      26.439 -22.289 -16.235  0.00  0.00    -0.227 OA
BRANCH  29  31
ATOM     31  O   UNL     1      28.936 -21.913 -16.985  0.00  0.00    -0.302 OA
ATOM     32  H   UNL     1      28.527 -21.134 -17.393  0.00  0.00    +0.222 HD
ENDBRANCH  29  31
BRANCH  29  33
ATOM     33  O   UNL     1      27.804 -24.114 -17.554  0.00  0.00    -0.302 OA
ATOM     34  H   UNL     1      27.074 -24.728 -17.374  0.00  0.00    +0.222 HD
ENDBRANCH  29  33
ENDBRANCH  28  29
ENDBRANCH  24  28
ENDBRANCH  23  24
ENDBRANCH  22  23
ENDBRANCH  21  22
ENDBRANCH   9  21
TORSDOF 11
ENDMDL
MODEL 4
REMARK VINA RESULT:      -8.5      0.899      1.487
REMARK  Name = 447750
REMARK  11 active torsions:
REMARK  status: ('A' for Active; 'I' for Inactive)
REMARK    1  A    between atoms: C_6  and  C_17
REMARK    2  A    between atoms: C_9  and  C_21
REMARK    3  A    between atoms: C_17  and  O_19
REMARK    4  A    between atoms: C_21  and  C_22
REMARK    5  A    between atoms: C_22  and  O_23
REMARK    6  A    between atoms: O_23  and  P_24
REMARK    7  A    between atoms: P_24  and  O_26
REMARK    8  A    between atoms: P_24  and  O_28
REMARK    9  A    between atoms: O_28  and  P_29
REMARK   10  A    between atoms: P_29  and  O_31
REMARK   11  A    between atoms: P_29  and  O_33
REMARK                            x       y       z     vdW  Elec       q    Type
REMARK                         _______ _______ _______ _____ _____    ______ ____
ROOT
ATOM      1  S   UNL     1      32.228 -10.247 -23.477  0.00  0.00    -0.079 S 
ATOM      2  N   UNL     1      32.302  -8.253 -21.755  0.00  0.00    -0.285 N 
ATOM      3  N   UNL     1      32.107  -7.605 -24.089  0.00  0.00    -0.286 N 
ATOM      4  N   UNL     1      31.324  -5.453 -24.658  0.00  0.00    -0.340 NA
ATOM      5  N   UNL     1      31.047  -3.741 -22.988  0.00  0.00    -0.186 NA
ATOM      6  C   UNL     1      32.734  -8.499 -23.137  0.00  0.00    +0.188 C 
ATOM      7  C   UNL     1      32.301  -6.874 -21.283  0.00  0.00    +0.125 C 
ATOM      8  C   UNL     1      31.859  -9.383 -21.059  0.00  0.00    +0.029 C 
ATOM      9  C   UNL     1      31.770 -10.509 -21.798  0.00  0.00    +0.018 C 
ATOM     10  C   UNL     1      31.826  -5.939 -22.364  0.00  0.00    +0.062 C 
ATOM     11  C   UNL     1      31.750  -6.317 -23.706  0.00  0.00    +0.192 C 
ATOM     12  C   UNL     1      31.539  -9.271 -19.599  0.00  0.00    +0.047 C 
ATOM     13  C   UNL     1      31.470  -4.630 -22.069  0.00  0.00    +0.111 C 
ATOM     14  C   UNL     1      30.997  -4.213 -24.243  0.00  0.00    +0.066 C 
ATOM     15  C   UNL     1      30.531  -3.263 -25.294  0.00  0.00    +0.129 C 
ATOM     16  H   UNL     1      31.933  -7.910 -25.009  0.00  0.00    +0.151 HD
ENDROOT
BRANCH   6  17
ATOM     17  C   UNL     1      34.258  -8.410 -23.256  0.00  0.00    +0.155 C 
ATOM     18  C   UNL     1      34.680  -7.280 -24.176  0.00  0.00    +0.036 C 
BRANCH  17  19
ATOM     19  O   UNL     1      34.752  -9.643 -23.758  0.00  0.00    -0.380 OA
ATOM     20  H   UNL     1      34.893  -9.571 -24.714  0.00  0.00    +0.211 HD
ENDBRANCH  17  19
ENDBRANCH   6  17
BRANCH   9  21
ATOM     21  C   UNL     1      31.323 -11.872 -21.388  0.00  0.00    +0.066 C 
BRANCH  21  22
ATOM     22  C   UNL     1      32.470 -12.874 -21.361  0.00  0.00    +0.159 C 
BRANCH  22  23
ATOM     23  O   UNL     1      32.328 -13.793 -22.437  0.00  0.00    -0.273 OA
BRANCH  23  24
ATOM     24  P   UNL     1      33.620 -14.208 -23.315  0.00  0.00    +0.484 P 
ATOM     25  O   UNL     1      33.317 -15.076 -24.502  0.00  0.00    -0.227 OA
BRANCH  24  26
ATOM     26  O   UNL     1      34.330 -12.802 -23.682  0.00  0.00    -0.302 OA
ATOM     27  H   UNL     1      35.157 -12.716 -23.181  0.00  0.00    +0.222 HD
ENDBRANCH  24  26
BRANCH  24  28
ATOM     28  O   UNL     1      34.641 -14.872 -22.252  0.00  0.00    -0.186 OA
BRANCH  28  29
ATOM     29  P   UNL     1      34.517 -16.210 -21.356  0.00  0.00    +0.481 P 
ATOM     30  O   UNL     1      35.209 -17.412 -21.927  0.00  0.00    -0.227 OA
BRANCH  29  31
ATOM     31  O   UNL     1      35.041 -15.736 -19.902  0.00  0.00    -0.302 OA
ATOM     32  H   UNL     1      35.665 -15.000 -20.008  0.00  0.00    +0.222 HD
ENDBRANCH  29  31
BRANCH  29  33
ATOM     33  O   UNL     1      32.922 -16.368 -21.150  0.00  0.00    -0.302 OA
ATOM     34  H   UNL     1      32.748 -17.021 -20.453  0.00  0.00    +0.222 HD
ENDBRANCH  29  33
ENDBRANCH  28  29
ENDBRANCH  24  28
ENDBRANCH  23  24
ENDBRANCH  22  23
ENDBRANCH  21  22
ENDBRANCH   9  21
TORSDOF 11
ENDMDL
MODEL 5
REMARK VINA RESULT:      -8.4     15.236     16.197
REMARK  Name = 447750
REMARK  11 active torsions:
REMARK  status: ('A' for Active; 'I' for Inactive)
REMARK    1  A    between atoms: C_6  and  C_17
REMARK    2  A    between atoms: C_9  and  C_21
REMARK    3  A    between atoms: C_17  and  O_19
REMARK    4  A    between atoms: C_21  and  C_22
REMARK    5  A    between atoms: C_22  and  O_23
REMARK    6  A    between atoms: O_23  and  P_24
REMARK    7  A    between atoms: P_24  and  O_26
REMARK    8  A    between atoms: P_24  and  O_28
REMARK    9  A    between atoms: O_28  and  P_29
REMARK   10  A    between atoms: P_29  and  O_31
REMARK   11  A    between atoms: P_29  and  O_33
REMARK                            x       y       z     vdW  Elec       q    Type
REMARK                         _______ _______ _______ _____ _____    ______ ____
ROOT
ATOM      1  S   UNL     1      32.995 -22.784 -13.949  0.00  0.00    -0.079 S 
ATOM      2  N   UNL     1      31.832 -23.761 -16.103  0.00  0.00    -0.285 N 
ATOM      3  N   UNL     1      30.324 -22.854 -14.427  0.00  0.00    -0.286 N 
ATOM      4  N   UNL     1      28.120 -22.254 -15.021  0.00  0.00    -0.340 NA
ATOM      5  N   UNL     1      27.196 -22.847 -17.163  0.00  0.00    -0.186 NA
ATOM      6  C   UNL     1      31.519 -23.635 -14.673  0.00  0.00    +0.188 C 
ATOM      7  C   UNL     1      30.747 -24.135 -17.001  0.00  0.00    +0.125 C 
ATOM      8  C   UNL     1      33.144 -23.429 -16.458  0.00  0.00    +0.029 C 
ATOM      9  C   UNL     1      33.892 -22.916 -15.458  0.00  0.00    +0.018 C 
ATOM     10  C   UNL     1      29.464 -23.455 -16.603  0.00  0.00    +0.062 C 
ATOM     11  C   UNL     1      29.288 -22.853 -15.354  0.00  0.00    +0.192 C 
ATOM     12  C   UNL     1      33.611 -23.666 -17.861  0.00  0.00    +0.047 C 
ATOM     13  C   UNL     1      28.374 -23.428 -17.461  0.00  0.00    +0.111 C 
ATOM     14  C   UNL     1      27.140 -22.285 -15.945  0.00  0.00    +0.066 C 
ATOM     15  C   UNL     1      25.855 -21.626 -15.573  0.00  0.00    +0.129 C 
ATOM     16  H   UNL     1      30.245 -22.322 -13.602  0.00  0.00    +0.151 HD
ENDROOT
BRANCH   6  17
ATOM     17  C   UNL     1      31.391 -25.013 -14.019  0.00  0.00    +0.155 C 
ATOM     18  C   UNL     1      30.214 -25.070 -13.063  0.00  0.00    +0.036 C 
BRANCH  17  19
ATOM     19  O   UNL     1      32.591 -25.300 -13.315  0.00  0.00    -0.380 OA
ATOM     20  H   UNL     1      33.347 -25.218 -13.917  0.00  0.00    +0.211 HD
ENDBRANCH  17  19
ENDBRANCH   6  17
BRANCH   9  21
ATOM     21  C   UNL     1      35.306 -22.443 -15.486  0.00  0.00    +0.066 C 
BRANCH  21  22
ATOM     22  C   UNL     1      36.237 -23.350 -14.692  0.00  0.00    +0.159 C 
BRANCH  22  23
ATOM     23  O   UNL     1      36.414 -24.579 -15.386  0.00  0.00    -0.273 OA
BRANCH  23  24
ATOM     24  P   UNL     1      36.813 -25.914 -14.567  0.00  0.00    +0.484 P 
ATOM     25  O   UNL     1      36.628 -25.814 -13.081  0.00  0.00    -0.227 OA
BRANCH  24  26
ATOM     26  O   UNL     1      35.952 -27.091 -15.267  0.00  0.00    -0.302 OA
ATOM     27  H   UNL     1      35.010 -26.962 -15.073  0.00  0.00    +0.222 HD
ENDBRANCH  24  26
BRANCH  24  28
ATOM     28  O   UNL     1      38.328 -26.239 -15.026  0.00  0.00    -0.186 OA
BRANCH  28  29
ATOM     29  P   UNL     1      39.703 -25.420 -14.803  0.00  0.00    +0.481 P 
ATOM     30  O   UNL     1      40.951 -26.220 -15.034  0.00  0.00    -0.227 OA
BRANCH  29  31
ATOM     31  O   UNL     1      39.525 -24.126 -15.755  0.00  0.00    -0.302 OA
ATOM     32  H   UNL     1      39.965 -24.286 -16.604  0.00  0.00    +0.222 HD
ENDBRANCH  29  31
BRANCH  29  33
ATOM     33  O   UNL     1      39.535 -24.820 -13.312  0.00  0.00    -0.302 OA
ATOM     34  H   UNL     1      39.284 -23.884 -13.367  0.00  0.00    +0.222 HD
ENDBRANCH  29  33
ENDBRANCH  28  29
ENDBRANCH  24  28
ENDBRANCH  23  24
ENDBRANCH  22  23
ENDBRANCH  21  22
ENDBRANCH   9  21
TORSDOF 11
ENDMDL
MODEL 6
REMARK VINA RESULT:      -8.2     15.373     16.332
REMARK  Name = 447750
REMARK  11 active torsions:
REMARK  status: ('A' for Active; 'I' for Inactive)
REMARK    1  A    between atoms: C_6  and  C_17
REMARK    2  A    between atoms: C_9  and  C_21
REMARK    3  A    between atoms: C_17  and  O_19
REMARK    4  A    between atoms: C_21  and  C_22
REMARK    5  A    between atoms: C_22  and  O_23
REMARK    6  A    between atoms: O_23  and  P_24
REMARK    7  A    between atoms: P_24  and  O_26
REMARK    8  A    between atoms: P_24  and  O_28
REMARK    9  A    between atoms: O_28  and  P_29
REMARK   10  A    between atoms: P_29  and  O_31
REMARK   11  A    between atoms: P_29  and  O_33
REMARK                            x       y       z     vdW  Elec       q    Type
REMARK                         _______ _______ _______ _____ _____    ______ ____
ROOT
ATOM      1  S   UNL     1      32.901 -22.821 -13.855  0.00  0.00    -0.079 S 
ATOM      2  N   UNL     1      31.785 -23.799 -16.032  0.00  0.00    -0.285 N 
ATOM      3  N   UNL     1      30.244 -22.856 -14.407  0.00  0.00    -0.286 N 
ATOM      4  N   UNL     1      28.066 -22.229 -15.067  0.00  0.00    -0.340 NA
ATOM      5  N   UNL     1      27.194 -22.827 -17.230  0.00  0.00    -0.186 NA
ATOM      6  C   UNL     1      31.433 -23.656 -14.613  0.00  0.00    +0.188 C 
ATOM      7  C   UNL     1      30.720 -24.165 -16.957  0.00  0.00    +0.125 C 
ATOM      8  C   UNL     1      33.111 -23.489 -16.353  0.00  0.00    +0.029 C 
ATOM      9  C   UNL     1      33.838 -22.978 -15.337  0.00  0.00    +0.018 C 
ATOM     10  C   UNL     1      29.436 -23.463 -16.601  0.00  0.00    +0.062 C 
ATOM     11  C   UNL     1      29.234 -22.848 -15.363  0.00  0.00    +0.192 C 
ATOM     12  C   UNL     1      33.613 -23.745 -17.741  0.00  0.00    +0.047 C 
ATOM     13  C   UNL     1      28.371 -23.428 -17.490  0.00  0.00    +0.111 C 
ATOM     14  C   UNL     1      27.112 -22.255 -16.019  0.00  0.00    +0.066 C 
ATOM     15  C   UNL     1      25.827 -21.574 -15.688  0.00  0.00    +0.129 C 
ATOM     16  H   UNL     1      30.150 -22.316 -13.589  0.00  0.00    +0.151 HD
ENDROOT
BRANCH   6  17
ATOM     17  C   UNL     1      31.268 -25.027 -13.952  0.00  0.00    +0.155 C 
ATOM     18  C   UNL     1      30.176 -25.009 -12.899  0.00  0.00    +0.036 C 
BRANCH  17  19
ATOM     19  O   UNL     1      32.501 -25.400 -13.354  0.00  0.00    -0.380 OA
ATOM     20  H   UNL     1      32.685 -24.818 -12.601  0.00  0.00    +0.211 HD
ENDBRANCH  17  19
ENDBRANCH   6  17
BRANCH   9  21
ATOM     21  C   UNL     1      35.259 -22.525 -15.329  0.00  0.00    +0.066 C 
BRANCH  21  22
ATOM     22  C   UNL     1      36.237 -23.682 -15.489  0.00  0.00    +0.159 C 
BRANCH  22  23
ATOM     23  O   UNL     1      36.080 -24.594 -14.408  0.00  0.00    -0.273 OA
BRANCH  23  24
ATOM     24  P   UNL     1      37.381 -25.289 -13.747  0.00  0.00    +0.484 P 
ATOM     25  O   UNL     1      37.558 -26.739 -14.093  0.00  0.00    -0.227 OA
BRANCH  24  26
ATOM     26  O   UNL     1      38.616 -24.343 -14.190  0.00  0.00    -0.302 OA
ATOM     27  H   UNL     1      38.507 -24.083 -15.119  0.00  0.00    +0.222 HD
ENDBRANCH  24  26
BRANCH  24  28
ATOM     28  O   UNL     1      37.240 -24.998 -12.163  0.00  0.00    -0.186 OA
BRANCH  28  29
ATOM     29  P   UNL     1      36.102 -24.214 -11.326  0.00  0.00    +0.481 P 
ATOM     30  O   UNL     1      36.348 -24.147  -9.848  0.00  0.00    -0.227 OA
BRANCH  29  31
ATOM     31  O   UNL     1      36.007 -22.785 -12.076  0.00  0.00    -0.302 OA
ATOM     32  H   UNL     1      35.357 -22.225 -11.623  0.00  0.00    +0.222 HD
ENDBRANCH  29  31
BRANCH  29  33
ATOM     33  O   UNL     1      34.740 -24.964 -11.765  0.00  0.00    -0.302 OA
ATOM     34  H   UNL     1      34.164 -24.340 -12.236  0.00  0.00    +0.222 HD
ENDBRANCH  29  33
ENDBRANCH  28  29
ENDBRANCH  24  28
ENDBRANCH  23  24
ENDBRANCH  22  23
ENDBRANCH  21  22
ENDBRANCH   9  21
TORSDOF 11
ENDMDL
MODEL 7
REMARK VINA RESULT:      -8.0      5.378      9.665
REMARK  Name = 447750
REMARK  11 active torsions:
REMARK  status: ('A' for Active; 'I' for Inactive)
REMARK    1  A    between atoms: C_6  and  C_17
REMARK    2  A    between atoms: C_9  and  C_21
REMARK    3  A    between atoms: C_17  and  O_19
REMARK    4  A    between atoms: C_21  and  C_22
REMARK    5  A    between atoms: C_22  and  O_23
REMARK    6  A    between atoms: O_23  and  P_24
REMARK    7  A    between atoms: P_24  and  O_26
REMARK    8  A    between atoms: P_24  and  O_28
REMARK    9  A    between atoms: O_28  and  P_29
REMARK   10  A    between atoms: P_29  and  O_31
REMARK   11  A    between atoms: P_29  and  O_33
REMARK                            x       y       z     vdW  Elec       q    Type
REMARK                         _______ _______ _______ _____ _____    ______ ____
ROOT
ATOM      1  S   UNL     1      34.491 -11.297 -24.826  0.00  0.00    -0.079 S 
ATOM      2  N   UNL     1      32.660 -12.387 -23.275  0.00  0.00    -0.285 N 
ATOM      3  N   UNL     1      34.541 -13.823 -23.831  0.00  0.00    -0.286 N 
ATOM      4  N   UNL     1      35.012 -15.719 -22.508  0.00  0.00    -0.340 NA
ATOM      5  N   UNL     1      33.470 -16.486 -20.826  0.00  0.00    -0.186 NA
ATOM      6  C   UNL     1      33.597 -12.836 -24.314  0.00  0.00    +0.188 C 
ATOM      7  C   UNL     1      32.008 -13.410 -22.468  0.00  0.00    +0.125 C 
ATOM      8  C   UNL     1      32.555 -11.000 -23.124  0.00  0.00    +0.029 C 
ATOM      9  C   UNL     1      33.426 -10.280 -23.864  0.00  0.00    +0.018 C 
ATOM     10  C   UNL     1      32.965 -14.526 -22.141  0.00  0.00    +0.062 C 
ATOM     11  C   UNL     1      34.173 -14.703 -22.819  0.00  0.00    +0.192 C 
ATOM     12  C   UNL     1      31.521 -10.434 -22.200  0.00  0.00    +0.047 C 
ATOM     13  C   UNL     1      32.664 -15.459 -21.159  0.00  0.00    +0.111 C 
ATOM     14  C   UNL     1      34.611 -16.553 -21.528  0.00  0.00    +0.066 C 
ATOM     15  C   UNL     1      35.537 -17.673 -21.190  0.00  0.00    +0.129 C 
ATOM     16  H   UNL     1      35.444 -13.870 -24.219  0.00  0.00    +0.151 HD
ENDROOT
BRANCH   6  17
ATOM     17  C   UNL     1      32.842 -13.379 -25.530  0.00  0.00    +0.155 C 
ATOM     18  C   UNL     1      33.145 -14.847 -25.763  0.00  0.00    +0.036 C 
BRANCH  17  19
ATOM     19  O   UNL     1      33.216 -12.627 -26.676  0.00  0.00    -0.380 OA
ATOM     20  H   UNL     1      33.515 -13.228 -27.375  0.00  0.00    +0.211 HD
ENDBRANCH  17  19
ENDBRANCH   6  17
BRANCH   9  21
ATOM     21  C   UNL     1      33.603  -8.800 -23.935  0.00  0.00    +0.066 C 
BRANCH  21  22
ATOM     22  C   UNL     1      33.542  -8.142 -22.562  0.00  0.00    +0.159 C 
BRANCH  22  23
ATOM     23  O   UNL     1      33.358  -6.740 -22.711  0.00  0.00    -0.273 OA
BRANCH  23  24
ATOM     24  P   UNL     1      31.879  -6.103 -22.564  0.00  0.00    +0.484 P 
ATOM     25  O   UNL     1      30.759  -7.037 -22.919  0.00  0.00    -0.227 OA
BRANCH  24  26
ATOM     26  O   UNL     1      31.826  -5.546 -21.047  0.00  0.00    -0.302 OA
ATOM     27  H   UNL     1      31.189  -6.068 -20.532  0.00  0.00    +0.222 HD
ENDBRANCH  24  26
BRANCH  24  28
ATOM     28  O   UNL     1      31.924  -4.754 -23.454  0.00  0.00    -0.186 OA
BRANCH  28  29
ATOM     29  P   UNL     1      31.067  -3.389 -23.354  0.00  0.00    +0.481 P 
ATOM     30  O   UNL     1      30.358  -3.003 -24.619  0.00  0.00    -0.227 OA
BRANCH  29  31
ATOM     31  O   UNL     1      30.112  -3.641 -22.075  0.00  0.00    -0.302 OA
ATOM     32  H   UNL     1      30.447  -4.394 -21.564  0.00  0.00    +0.222 HD
ENDBRANCH  29  31
BRANCH  29  33
ATOM     33  O   UNL     1      32.147  -2.315 -22.815  0.00  0.00    -0.302 OA
ATOM     34  H   UNL     1      32.465  -2.588 -21.939  0.00  0.00    +0.222 HD
ENDBRANCH  29  33
ENDBRANCH  28  29
ENDBRANCH  24  28
ENDBRANCH  23  24
ENDBRANCH  22  23
ENDBRANCH  21  22
ENDBRANCH   9  21
TORSDOF 11
ENDMDL
MODEL 8
REMARK VINA RESULT:      -7.5      5.356      9.135
REMARK  Name = 447750
REMARK  11 active torsions:
REMARK  status: ('A' for Active; 'I' for Inactive)
REMARK    1  A    between atoms: C_6  and  C_17
REMARK    2  A    between atoms: C_9  and  C_21
REMARK    3  A    between atoms: C_17  and  O_19
REMARK    4  A    between atoms: C_21  and  C_22
REMARK    5  A    between atoms: C_22  and  O_23
REMARK    6  A    between atoms: O_23  and  P_24
REMARK    7  A    between atoms: P_24  and  O_26
REMARK    8  A    between atoms: P_24  and  O_28
REMARK    9  A    between atoms: O_28  and  P_29
REMARK   10  A    between atoms: P_29  and  O_31
REMARK   11  A    between atoms: P_29  and  O_33
REMARK                            x       y       z     vdW  Elec       q    Type
REMARK                         _______ _______ _______ _____ _____    ______ ____
ROOT
ATOM      1  S   UNL     1      34.188 -12.094 -24.523  0.00  0.00    -0.079 S 
ATOM      2  N   UNL     1      32.734 -13.540 -22.868  0.00  0.00    -0.285 N 
ATOM      3  N   UNL     1      34.679 -14.663 -23.796  0.00  0.00    -0.286 N 
ATOM      4  N   UNL     1      35.554 -16.582 -22.738  0.00  0.00    -0.340 NA
ATOM      5  N   UNL     1      34.363 -17.682 -20.958  0.00  0.00    -0.186 NA
ATOM      6  C   UNL     1      33.565 -13.774 -24.057  0.00  0.00    +0.188 C 
ATOM      7  C   UNL     1      32.327 -14.703 -22.090  0.00  0.00    +0.125 C 
ATOM      8  C   UNL     1      32.484 -12.196 -22.569  0.00  0.00    +0.029 C 
ATOM      9  C   UNL     1      33.151 -11.309 -23.338  0.00  0.00    +0.018 C 
ATOM     10  C   UNL     1      33.448 -15.705 -21.998  0.00  0.00    +0.062 C 
ATOM     11  C   UNL     1      34.563 -15.664 -22.839  0.00  0.00    +0.192 C 
ATOM     12  C   UNL     1      31.526 -11.851 -21.471  0.00  0.00    +0.047 C 
ATOM     13  C   UNL     1      33.401 -16.747 -21.084  0.00  0.00    +0.111 C 
ATOM     14  C   UNL     1      35.396 -17.539 -21.802  0.00  0.00    +0.066 C 
ATOM     15  C   UNL     1      36.488 -18.550 -21.696  0.00  0.00    +0.129 C 
ATOM     16  H   UNL     1      35.519 -14.559 -24.299  0.00  0.00    +0.151 HD
ENDROOT
BRANCH   6  17
ATOM     17  C   UNL     1      32.721 -14.311 -25.215  0.00  0.00    +0.155 C 
ATOM     18  C   UNL     1      33.283 -15.612 -25.758  0.00  0.00    +0.036 C 
BRANCH  17  19
ATOM     19  O   UNL     1      32.688 -13.338 -26.249  0.00  0.00    -0.380 OA
ATOM     20  H   UNL     1      31.969 -13.544 -26.865  0.00  0.00    +0.211 HD
ENDBRANCH  17  19
ENDBRANCH   6  17
BRANCH   9  21
ATOM     21  C   UNL     1      33.136  -9.818 -23.284  0.00  0.00    +0.066 C 
BRANCH  21  22
ATOM     22  C   UNL     1      32.117  -9.213 -24.241  0.00  0.00    +0.159 C 
BRANCH  22  23
ATOM     23  O   UNL     1      31.701  -7.943 -23.757  0.00  0.00    -0.273 OA
BRANCH  23  24
ATOM     24  P   UNL     1      32.798  -6.787 -23.483  0.00  0.00    +0.484 P 
ATOM     25  O   UNL     1      33.956  -6.787 -24.438  0.00  0.00    -0.227 OA
BRANCH  24  26
ATOM     26  O   UNL     1      31.945  -5.413 -23.471  0.00  0.00    -0.302 OA
ATOM     27  H   UNL     1      31.121  -5.539 -23.968  0.00  0.00    +0.222 HD
ENDBRANCH  24  26
BRANCH  24  28
ATOM     28  O   UNL     1      33.216  -6.979 -21.934  0.00  0.00    -0.186 OA
BRANCH  28  29
ATOM     29  P   UNL     1      32.314  -7.171 -20.608  0.00  0.00    +0.481 P 
ATOM     30  O   UNL     1      31.608  -8.492 -20.518  0.00  0.00    -0.227 OA
BRANCH  29  31
ATOM     31  O   UNL     1      33.347  -6.856 -19.405  0.00  0.00    -0.302 OA
ATOM     32  H   UNL     1      33.471  -5.897 -19.328  0.00  0.00    +0.222 HD
ENDBRANCH  29  31
BRANCH  29  33
ATOM     33  O   UNL     1      31.350  -5.874 -20.628  0.00  0.00    -0.302 OA
ATOM     34  H   UNL     1      31.509  -5.365 -21.439  0.00  0.00    +0.222 HD
ENDBRANCH  29  33
ENDBRANCH  28  29
ENDBRANCH  24  28
ENDBRANCH  23  24
ENDBRANCH  22  23
ENDBRANCH  21  22
ENDBRANCH   9  21
TORSDOF 11
ENDMDL
MODEL 9
REMARK VINA RESULT:      -7.4     15.092     16.172
REMARK  Name = 447750
REMARK  11 active torsions:
REMARK  status: ('A' for Active; 'I' for Inactive)
REMARK    1  A    between atoms: C_6  and  C_17
REMARK    2  A    between atoms: C_9  and  C_21
REMARK    3  A    between atoms: C_17  and  O_19
REMARK    4  A    between atoms: C_21  and  C_22
REMARK    5  A    between atoms: C_22  and  O_23
REMARK    6  A    between atoms: O_23  and  P_24
REMARK    7  A    between atoms: P_24  and  O_26
REMARK    8  A    between atoms: P_24  and  O_28
REMARK    9  A    between atoms: O_28  and  P_29
REMARK   10  A    between atoms: P_29  and  O_31
REMARK   11  A    between atoms: P_29  and  O_33
REMARK                            x       y       z     vdW  Elec       q    Type
REMARK                         _______ _______ _______ _____ _____    ______ ____
ROOT
ATOM      1  S   UNL     1      33.413 -22.594 -14.190  0.00  0.00    -0.079 S 
ATOM      2  N   UNL     1      32.146 -23.718 -16.210  0.00  0.00    -0.285 N 
ATOM      3  N   UNL     1      30.719 -22.767 -14.488  0.00  0.00    -0.286 N 
ATOM      4  N   UNL     1      28.464 -22.265 -14.965  0.00  0.00    -0.340 NA
ATOM      5  N   UNL     1      27.424 -22.997 -17.009  0.00  0.00    -0.186 NA
ATOM      6  C   UNL     1      31.921 -23.525 -14.771  0.00  0.00    +0.188 C 
ATOM      7  C   UNL     1      31.019 -24.170 -17.015  0.00  0.00    +0.125 C 
ATOM      8  C   UNL     1      33.421 -23.366 -16.667  0.00  0.00    +0.029 C 
ATOM      9  C   UNL     1      34.214 -22.779 -15.746  0.00  0.00    +0.018 C 
ATOM     10  C   UNL     1      29.742 -23.508 -16.568  0.00  0.00    +0.062 C 
ATOM     11  C   UNL     1      29.627 -22.846 -15.343  0.00  0.00    +0.192 C 
ATOM     12  C   UNL     1      33.804 -23.664 -18.084  0.00  0.00    +0.047 C 
ATOM     13  C   UNL     1      28.599 -23.558 -17.354  0.00  0.00    +0.111 C 
ATOM     14  C   UNL     1      27.428 -22.374 -15.820  0.00  0.00    +0.066 C 
ATOM     15  C   UNL     1      26.149 -21.734 -15.399  0.00  0.00    +0.129 C 
ATOM     16  H   UNL     1      30.677 -22.195 -13.687  0.00  0.00    +0.151 HD
ENDROOT
BRANCH   6  17
ATOM     17  C   UNL     1      31.881 -24.870 -14.041  0.00  0.00    +0.155 C 
ATOM     18  C   UNL     1      30.663 -24.980 -13.144  0.00  0.00    +0.036 C 
BRANCH  17  19
ATOM     19  O   UNL     1      33.061 -25.005 -13.262  0.00  0.00    -0.380 OA
ATOM     20  H   UNL     1      33.666 -24.275 -13.462  0.00  0.00    +0.211 HD
ENDBRANCH  17  19
ENDBRANCH   6  17
BRANCH   9  21
ATOM     21  C   UNL     1      35.608 -22.267 -15.891  0.00  0.00    +0.066 C 
BRANCH  21  22
ATOM     22  C   UNL     1      36.624 -23.134 -15.158  0.00  0.00    +0.159 C 
BRANCH  22  23
ATOM     23  O   UNL     1      36.920 -22.557 -13.893  0.00  0.00    -0.273 OA
BRANCH  23  24
ATOM     24  P   UNL     1      37.306 -23.510 -12.645  0.00  0.00    +0.484 P 
ATOM     25  O   UNL     1      38.203 -22.871 -11.625  0.00  0.00    -0.227 OA
BRANCH  24  26
ATOM     26  O   UNL     1      35.883 -24.010 -12.061  0.00  0.00    -0.302 OA
ATOM     27  H   UNL     1      35.164 -23.551 -12.524  0.00  0.00    +0.222 HD
ENDBRANCH  24  26
BRANCH  24  28
ATOM     28  O   UNL     1      37.919 -24.843 -13.323  0.00  0.00    -0.186 OA
BRANCH  28  29
ATOM     29  P   UNL     1      37.268 -26.300 -13.574  0.00  0.00    +0.481 P 
ATOM     30  O   UNL     1      38.103 -27.222 -14.413  0.00  0.00    -0.227 OA
BRANCH  29  31
ATOM     31  O   UNL     1      36.945 -26.827 -12.080  0.00  0.00    -0.302 OA
ATOM     32  H   UNL     1      37.095 -27.784 -12.035  0.00  0.00    +0.222 HD
ENDBRANCH  29  31
BRANCH  29  33
ATOM     33  O   UNL     1      35.809 -25.953 -14.176  0.00  0.00    -0.302 OA
ATOM     34  H   UNL     1      35.139 -26.503 -13.740  0.00  0.00    +0.222 HD
ENDBRANCH  29  33
ENDBRANCH  28  29
ENDBRANCH  24  28
ENDBRANCH  23  24
ENDBRANCH  22  23
ENDBRANCH  21  22
ENDBRANCH   9  21
TORSDOF 11
ENDMDL
