MODEL 1
REMARK VINA RESULT:      -9.9      0.000      0.000
REMARK  Name = 6102762
REMARK  8 active torsions:
REMARK  status: ('A' for Active; 'I' for Inactive)
REMARK    1  A    between atoms: C_1  and  S_20
REMARK    2  A    between atoms: C_2  and  N_9
REMARK    3  A    between atoms: C_10  and  C_12
REMARK    4  A    between atoms: C_12  and  C_17
REMARK    5  A    between atoms: C_12  and  O_18
REMARK    6  A    between atoms: S_20  and  N_23
REMARK    7  A    between atoms: N_23  and  C_24
REMARK    8  A    between atoms: N_23  and  C_30
REMARK                            x       y       z     vdW  Elec       q    Type
REMARK                         _______ _______ _______ _____ _____    ______ ____
ROOT
ATOM      1  C   UNL     1      32.206 -12.536 -21.966  0.00  0.00    +0.125 C 
ATOM      2  C   UNL     1      33.329 -15.069 -22.029  0.00  0.00    +0.046 C 
ATOM      3  C   UNL     1      33.139 -14.381 -23.217  0.00  0.00    -0.007 C 
ATOM      4  C   UNL     1      32.573 -13.106 -23.185  0.00  0.00    +0.017 C 
ATOM      5  C   UNL     1      32.404 -13.240 -20.779  0.00  0.00    +0.021 C 
ATOM      6  C   UNL     1      32.970 -14.515 -20.810  0.00  0.00    +0.016 C 
ATOM      7  C   UNL     1      33.523 -14.967 -24.536  0.00  0.00    +0.032 C 
ENDROOT
BRANCH   2   9
ATOM      8  O   UNL     1      35.229 -16.361 -20.114  0.00  0.00    -0.272 OA
ATOM      9  N   UNL     1      33.900 -16.364 -22.040  0.00  0.00    -0.282 N 
ATOM     10  C   UNL     1      34.784 -16.912 -21.118  0.00  0.00    +0.259 C 
ATOM     11  H   UNL     1      33.641 -16.945 -22.791  0.00  0.00    +0.155 HD
BRANCH  10  12
ATOM     12  C   UNL     1      35.188 -18.356 -21.466  0.00  0.00    +0.245 C 
ATOM     13  C   UNL     1      35.694 -18.462 -22.905  0.00  0.00    +0.048 C 
BRANCH  12  17
ATOM     14  F   UNL     1      33.010 -18.749 -20.579  0.00  0.00    -0.167 F 
ATOM     15  F   UNL     1      34.472 -20.354 -20.408  0.00  0.00    -0.167 F 
ATOM     16  F   UNL     1      33.597 -19.882 -22.349  0.00  0.00    -0.167 F 
ATOM     17  C   UNL     1      34.055 -19.337 -21.200  0.00  0.00    +0.427 C 
ENDBRANCH  12  17
BRANCH  12  18
ATOM     18  O   UNL     1      36.261 -18.715 -20.595  0.00  0.00    -0.372 OA
ATOM     19  H   UNL     1      36.986 -19.094 -21.116  0.00  0.00    +0.211 HD
ENDBRANCH  12  18
ENDBRANCH  10  12
ENDBRANCH   2   9
BRANCH   1  20
ATOM     20  S   UNL     1      31.496 -10.941 -21.926  0.00  0.00    +0.077 S 
ATOM     21  O   UNL     1      30.126 -11.046 -22.418  0.00  0.00    -0.150 OA
ATOM     22  O   UNL     1      31.709 -10.386 -20.593  0.00  0.00    -0.150 OA
BRANCH  20  23
ATOM     23  N   UNL     1      32.432 -10.036 -23.079  0.00  0.00    -0.191 N 
BRANCH  23  24
ATOM     24  C   UNL     1      32.170  -8.612 -23.125  0.00  0.00    +0.069 C 
ATOM     25  C   UNL     1      32.857  -7.771 -22.267  0.00  0.00    +0.016 C 
ATOM     26  C   UNL     1      31.241  -8.125 -24.027  0.00  0.00    +0.016 C 
ATOM     27  C   UNL     1      32.606  -6.399 -22.312  0.00  0.00    +0.001 C 
ATOM     28  C   UNL     1      30.989  -6.753 -24.072  0.00  0.00    +0.001 C 
ATOM     29  C   UNL     1      31.672  -5.890 -23.214  0.00  0.00    +0.000 C 
ENDBRANCH  23  24
BRANCH  23  30
ATOM     30  C   UNL     1      33.845 -10.452 -23.280  0.00  0.00    +0.116 C 
ATOM     31  C   UNL     1      34.234 -10.259 -24.732  0.00  0.00    +0.025 C 
ENDBRANCH  23  30
ENDBRANCH  20  23
ENDBRANCH   1  20
TORSDOF 8
ENDMDL
MODEL 2
REMARK VINA RESULT:      -9.9      7.551     10.936
REMARK  Name = 6102762
REMARK  8 active torsions:
REMARK  status: ('A' for Active; 'I' for Inactive)
REMARK    1  A    between atoms: C_1  and  S_20
REMARK    2  A    between atoms: C_2  and  N_9
REMARK    3  A    between atoms: C_10  and  C_12
REMARK    4  A    between atoms: C_12  and  C_17
REMARK    5  A    between atoms: C_12  and  O_18
REMARK    6  A    between atoms: S_20  and  N_23
REMARK    7  A    between atoms: N_23  and  C_24
REMARK    8  A    between atoms: N_23  and  C_30
REMARK                            x       y       z     vdW  Elec       q    Type
REMARK                         _______ _______ _______ _____ _____    ______ ____
ROOT
ATOM      1  C   UNL     1      36.100 -21.585 -18.543  0.00  0.00    +0.125 C 
ATOM      2  C   UNL     1      35.860 -22.621 -15.984  0.00  0.00    +0.046 C 
ATOM      3  C   UNL     1      34.838 -22.824 -16.897  0.00  0.00    -0.007 C 
ATOM      4  C   UNL     1      34.958 -22.301 -18.186  0.00  0.00    +0.017 C 
ATOM      5  C   UNL     1      37.121 -21.390 -17.614  0.00  0.00    +0.021 C 
ATOM      6  C   UNL     1      37.001 -21.911 -16.326  0.00  0.00    +0.016 C 
ATOM      7  C   UNL     1      33.604 -23.588 -16.541  0.00  0.00    +0.032 C 
ENDROOT
BRANCH   2   9
ATOM      8  O   UNL     1      37.500 -24.701 -14.594  0.00  0.00    -0.272 OA
ATOM      9  N   UNL     1      35.756 -23.142 -14.672  0.00  0.00    -0.282 N 
ATOM     10  C   UNL     1      36.551 -24.115 -14.077  0.00  0.00    +0.259 C 
ATOM     11  H   UNL     1      35.035 -22.771 -14.115  0.00  0.00    +0.155 HD
BRANCH  10  12
ATOM     12  C   UNL     1      36.131 -24.423 -12.629  0.00  0.00    +0.245 C 
ATOM     13  C   UNL     1      34.657 -24.093 -12.393  0.00  0.00    +0.048 C 
BRANCH  12  17
ATOM     14  F   UNL     1      37.272 -22.436 -11.969  0.00  0.00    -0.167 F 
ATOM     15  F   UNL     1      38.226 -24.340 -11.519  0.00  0.00    -0.167 F 
ATOM     16  F   UNL     1      36.471 -23.710 -10.390  0.00  0.00    -0.167 F 
ATOM     17  C   UNL     1      37.028 -23.717 -11.621  0.00  0.00    +0.427 C 
ENDBRANCH  12  17
BRANCH  12  18
ATOM     18  O   UNL     1      36.306 -25.825 -12.428  0.00  0.00    -0.372 OA
ATOM     19  H   UNL     1      35.770 -26.313 -13.072  0.00  0.00    +0.211 HD
ENDBRANCH  12  18
ENDBRANCH  10  12
ENDBRANCH   2   9
BRANCH   1  20
ATOM     20  S   UNL     1      36.250 -20.929 -20.155  0.00  0.00    +0.077 S 
ATOM     21  O   UNL     1      37.411 -20.045 -20.175  0.00  0.00    -0.150 OA
ATOM     22  O   UNL     1      36.214 -22.042 -21.100  0.00  0.00    -0.150 OA
BRANCH  20  23
ATOM     23  N   UNL     1      34.816 -19.965 -20.350  0.00  0.00    -0.191 N 
BRANCH  23  24
ATOM     24  C   UNL     1      34.877 -18.945 -21.378  0.00  0.00    +0.069 C 
ATOM     25  C   UNL     1      34.975 -17.616 -21.005  0.00  0.00    +0.016 C 
ATOM     26  C   UNL     1      34.839 -19.323 -22.709  0.00  0.00    +0.016 C 
ATOM     27  C   UNL     1      35.036 -16.634 -21.994  0.00  0.00    +0.001 C 
ATOM     28  C   UNL     1      34.900 -18.341 -23.698  0.00  0.00    +0.001 C 
ATOM     29  C   UNL     1      34.998 -16.996 -23.340  0.00  0.00    +0.000 C 
ENDBRANCH  23  24
BRANCH  23  30
ATOM     30  C   UNL     1      33.509 -20.655 -20.186  0.00  0.00    +0.116 C 
ATOM     31  C   UNL     1      32.380 -19.686 -20.476  0.00  0.00    +0.025 C 
ENDBRANCH  23  30
ENDBRANCH  20  23
ENDBRANCH   1  20
TORSDOF 8
ENDMDL
MODEL 3
REMARK VINA RESULT:      -9.8      5.890     11.416
REMARK  Name = 6102762
REMARK  8 active torsions:
REMARK  status: ('A' for Active; 'I' for Inactive)
REMARK    1  A    between atoms: C_1  and  S_20
REMARK    2  A    between atoms: C_2  and  N_9
REMARK    3  A    between atoms: C_10  and  C_12
REMARK    4  A    between atoms: C_12  and  C_17
REMARK    5  A    between atoms: C_12  and  O_18
REMARK    6  A    between atoms: S_20  and  N_23
REMARK    7  A    between atoms: N_23  and  C_24
REMARK    8  A    between atoms: N_23  and  C_30
REMARK                            x       y       z     vdW  Elec       q    Type
REMARK                         _______ _______ _______ _____ _____    ______ ____
ROOT
ATOM      1  C   UNL     1      33.815 -21.384 -19.455  0.00  0.00    +0.125 C 
ATOM      2  C   UNL     1      34.104 -19.131 -21.043  0.00  0.00    +0.046 C 
ATOM      3  C   UNL     1      35.234 -19.800 -20.602  0.00  0.00    -0.007 C 
ATOM      4  C   UNL     1      35.089 -20.934 -19.802  0.00  0.00    +0.017 C 
ATOM      5  C   UNL     1      32.687 -20.701 -19.907  0.00  0.00    +0.021 C 
ATOM      6  C   UNL     1      32.831 -19.567 -20.707  0.00  0.00    +0.016 C 
ATOM      7  C   UNL     1      36.610 -19.340 -20.959  0.00  0.00    +0.032 C 
ENDROOT
BRANCH   2   9
ATOM      8  O   UNL     1      34.634 -18.880 -23.976  0.00  0.00    -0.272 OA
ATOM      9  N   UNL     1      34.230 -17.978 -21.855  0.00  0.00    -0.282 N 
ATOM     10  C   UNL     1      34.480 -17.922 -23.221  0.00  0.00    +0.259 C 
ATOM     11  H   UNL     1      34.130 -17.113 -21.396  0.00  0.00    +0.155 HD
BRANCH  10  12
ATOM     12  C   UNL     1      34.550 -16.481 -23.755  0.00  0.00    +0.245 C 
ATOM     13  C   UNL     1      33.624 -15.549 -22.971  0.00  0.00    +0.048 C 
BRANCH  12  17
ATOM     14  F   UNL     1      33.316 -17.302 -25.622  0.00  0.00    -0.167 F 
ATOM     15  F   UNL     1      35.380 -16.702 -25.965  0.00  0.00    -0.167 F 
ATOM     16  F   UNL     1      33.851 -15.188 -25.620  0.00  0.00    -0.167 F 
ATOM     17  C   UNL     1      34.267 -16.419 -25.250  0.00  0.00    +0.427 C 
ENDBRANCH  12  17
BRANCH  12  18
ATOM     18  O   UNL     1      35.890 -16.027 -23.569  0.00  0.00    -0.372 OA
ATOM     19  H   UNL     1      36.507 -16.739 -23.798  0.00  0.00    +0.211 HD
ENDBRANCH  12  18
ENDBRANCH  10  12
ENDBRANCH   2   9
BRANCH   1  20
ATOM     20  S   UNL     1      33.633 -22.801 -18.451  0.00  0.00    +0.077 S 
ATOM     21  O   UNL     1      32.291 -22.778 -17.878  0.00  0.00    -0.150 OA
ATOM     22  O   UNL     1      34.026 -23.966 -19.240  0.00  0.00    -0.150 OA
BRANCH  20  23
ATOM     23  N   UNL     1      34.786 -22.560 -17.172  0.00  0.00    -0.191 N 
BRANCH  23  24
ATOM     24  C   UNL     1      34.483 -23.221 -15.918  0.00  0.00    +0.069 C 
ATOM     25  C   UNL     1      33.255 -23.001 -15.319  0.00  0.00    +0.016 C 
ATOM     26  C   UNL     1      35.428 -24.058 -15.350  0.00  0.00    +0.016 C 
ATOM     27  C   UNL     1      32.963 -23.637 -14.112  0.00  0.00    +0.001 C 
ATOM     28  C   UNL     1      35.135 -24.694 -14.143  0.00  0.00    +0.001 C 
ATOM     29  C   UNL     1      33.903 -24.483 -13.524  0.00  0.00    +0.000 C 
ENDBRANCH  23  24
BRANCH  23  30
ATOM     30  C   UNL     1      36.222 -22.504 -17.556  0.00  0.00    +0.116 C 
ATOM     31  C   UNL     1      36.920 -21.417 -16.765  0.00  0.00    +0.025 C 
ENDBRANCH  23  30
ENDBRANCH  20  23
ENDBRANCH   1  20
TORSDOF 8
ENDMDL
MODEL 4
REMARK VINA RESULT:      -9.5      1.653      2.305
REMARK  Name = 6102762
REMARK  8 active torsions:
REMARK  status: ('A' for Active; 'I' for Inactive)
REMARK    1  A    between atoms: C_1  and  S_20
REMARK    2  A    between atoms: C_2  and  N_9
REMARK    3  A    between atoms: C_10  and  C_12
REMARK    4  A    between atoms: C_12  and  C_17
REMARK    5  A    between atoms: C_12  and  O_18
REMARK    6  A    between atoms: S_20  and  N_23
REMARK    7  A    between atoms: N_23  and  C_24
REMARK    8  A    between atoms: N_23  and  C_30
REMARK                            x       y       z     vdW  Elec       q    Type
REMARK                         _______ _______ _______ _____ _____    ______ ____
ROOT
ATOM      1  C   UNL     1      33.750 -12.697 -23.567  0.00  0.00    +0.125 C 
ATOM      2  C   UNL     1      34.103 -15.377 -22.955  0.00  0.00    +0.046 C 
ATOM      3  C   UNL     1      33.851 -15.008 -24.266  0.00  0.00    -0.007 C 
ATOM      4  C   UNL     1      33.673 -13.659 -24.575  0.00  0.00    +0.017 C 
ATOM      5  C   UNL     1      34.004 -13.083 -22.252  0.00  0.00    +0.021 C 
ATOM      6  C   UNL     1      34.182 -14.432 -21.942  0.00  0.00    +0.016 C 
ATOM      7  C   UNL     1      33.765 -16.017 -25.364  0.00  0.00    +0.032 C 
ENDROOT
BRANCH   2   9
ATOM      8  O   UNL     1      35.123 -16.632 -20.439  0.00  0.00    -0.272 OA
ATOM      9  N   UNL     1      34.285 -16.740 -22.621  0.00  0.00    -0.282 N 
ATOM     10  C   UNL     1      34.767 -17.267 -21.428  0.00  0.00    +0.259 C 
ATOM     11  H   UNL     1      34.042 -17.393 -23.317  0.00  0.00    +0.155 HD
BRANCH  10  12
ATOM     12  C   UNL     1      34.824 -18.805 -21.437  0.00  0.00    +0.245 C 
ATOM     13  C   UNL     1      35.124 -19.345 -22.837  0.00  0.00    +0.048 C 
BRANCH  12  17
ATOM     14  F   UNL     1      33.801 -20.153 -19.758  0.00  0.00    -0.167 F 
ATOM     15  F   UNL     1      32.962 -20.237 -21.765  0.00  0.00    -0.167 F 
ATOM     16  F   UNL     1      32.655 -18.466 -20.532  0.00  0.00    -0.167 F 
ATOM     17  C   UNL     1      33.554 -19.419 -20.864  0.00  0.00    +0.427 C 
ENDBRANCH  12  17
BRANCH  12  18
ATOM     18  O   UNL     1      35.896 -19.193 -20.578  0.00  0.00    -0.372 OA
ATOM     19  H   UNL     1      36.738 -18.900 -20.960  0.00  0.00    +0.211 HD
ENDBRANCH  12  18
ENDBRANCH  10  12
ENDBRANCH   2   9
BRANCH   1  20
ATOM     20  S   UNL     1      33.524 -11.009 -23.952  0.00  0.00    +0.077 S 
ATOM     21  O   UNL     1      34.805 -10.332 -23.780  0.00  0.00    -0.150 OA
ATOM     22  O   UNL     1      32.871 -10.927 -25.256  0.00  0.00    -0.150 OA
BRANCH  20  23
ATOM     23  N   UNL     1      32.428 -10.442 -22.727  0.00  0.00    -0.191 N 
BRANCH  23  24
ATOM     24  C   UNL     1      32.189  -9.012 -22.708  0.00  0.00    +0.069 C 
ATOM     25  C   UNL     1      31.288  -8.467 -23.606  0.00  0.00    +0.016 C 
ATOM     26  C   UNL     1      32.864  -8.227 -21.791  0.00  0.00    +0.016 C 
ATOM     27  C   UNL     1      31.056  -7.091 -23.587  0.00  0.00    +0.001 C 
ATOM     28  C   UNL     1      32.632  -6.851 -21.772  0.00  0.00    +0.001 C 
ATOM     29  C   UNL     1      31.728  -6.283 -22.670  0.00  0.00    +0.000 C 
ENDBRANCH  23  24
BRANCH  23  30
ATOM     30  C   UNL     1      31.263 -11.308 -22.406  0.00  0.00    +0.116 C 
ATOM     31  C   UNL     1      31.062 -11.359 -20.905  0.00  0.00    +0.025 C 
ENDBRANCH  23  30
ENDBRANCH  20  23
ENDBRANCH   1  20
TORSDOF 8
ENDMDL
MODEL 5
REMARK VINA RESULT:      -9.4      2.043      2.775
REMARK  Name = 6102762
REMARK  8 active torsions:
REMARK  status: ('A' for Active; 'I' for Inactive)
REMARK    1  A    between atoms: C_1  and  S_20
REMARK    2  A    between atoms: C_2  and  N_9
REMARK    3  A    between atoms: C_10  and  C_12
REMARK    4  A    between atoms: C_12  and  C_17
REMARK    5  A    between atoms: C_12  and  O_18
REMARK    6  A    between atoms: S_20  and  N_23
REMARK    7  A    between atoms: N_23  and  C_24
REMARK    8  A    between atoms: N_23  and  C_30
REMARK                            x       y       z     vdW  Elec       q    Type
REMARK                         _______ _______ _______ _____ _____    ______ ____
ROOT
ATOM      1  C   UNL     1      32.143 -10.098 -22.803  0.00  0.00    +0.125 C 
ATOM      2  C   UNL     1      33.086 -12.656 -23.299  0.00  0.00    +0.046 C 
ATOM      3  C   UNL     1      33.436 -11.625 -24.156  0.00  0.00    -0.007 C 
ATOM      4  C   UNL     1      32.961 -10.337 -23.907  0.00  0.00    +0.017 C 
ATOM      5  C   UNL     1      31.799 -11.144 -21.949  0.00  0.00    +0.021 C 
ATOM      6  C   UNL     1      32.274 -12.433 -22.198  0.00  0.00    +0.016 C 
ATOM      7  C   UNL     1      34.311 -11.854 -25.345  0.00  0.00    +0.032 C 
ENDROOT
BRANCH   2   9
ATOM      8  O   UNL     1      34.786 -14.436 -21.600  0.00  0.00    -0.272 OA
ATOM      9  N   UNL     1      33.557 -13.969 -23.536  0.00  0.00    -0.282 N 
ATOM     10  C   UNL     1      34.350 -14.752 -22.704  0.00  0.00    +0.259 C 
ATOM     11  H   UNL     1      33.291 -14.378 -24.391  0.00  0.00    +0.155 HD
BRANCH  10  12
ATOM     12  C   UNL     1      34.659 -16.135 -23.305  0.00  0.00    +0.245 C 
ATOM     13  C   UNL     1      33.856 -16.381 -24.583  0.00  0.00    +0.048 C 
BRANCH  12  17
ATOM     14  F   UNL     1      33.401 -17.002 -21.476  0.00  0.00    -0.167 F 
ATOM     15  F   UNL     1      35.540 -17.403 -21.505  0.00  0.00    -0.167 F 
ATOM     16  F   UNL     1      34.223 -18.433 -22.903  0.00  0.00    -0.167 F 
ATOM     17  C   UNL     1      34.448 -17.250 -22.291  0.00  0.00    +0.427 C 
ENDBRANCH  12  17
BRANCH  12  18
ATOM     18  O   UNL     1      36.045 -16.144 -23.649  0.00  0.00    -0.372 OA
ATOM     19  H   UNL     1      36.546 -16.605 -22.958  0.00  0.00    +0.211 HD
ENDBRANCH  12  18
ENDBRANCH  10  12
ENDBRANCH   2   9
BRANCH   1  20
ATOM     20  S   UNL     1      31.546  -8.486 -22.492  0.00  0.00    +0.077 S 
ATOM     21  O   UNL     1      30.292  -8.322 -23.220  0.00  0.00    -0.150 OA
ATOM     22  O   UNL     1      31.537  -8.280 -21.047  0.00  0.00    -0.150 OA
BRANCH  20  23
ATOM     23  N   UNL     1      32.743  -7.450 -23.211  0.00  0.00    -0.191 N 
BRANCH  23  24
ATOM     24  C   UNL     1      32.272  -6.151 -23.648  0.00  0.00    +0.069 C 
ATOM     25  C   UNL     1      31.764  -5.267 -22.713  0.00  0.00    +0.016 C 
ATOM     26  C   UNL     1      32.343  -5.824 -24.991  0.00  0.00    +0.016 C 
ATOM     27  C   UNL     1      31.312  -4.016 -23.133  0.00  0.00    +0.001 C 
ATOM     28  C   UNL     1      31.890  -4.573 -25.412  0.00  0.00    +0.001 C 
ATOM     29  C   UNL     1      31.374  -3.669 -24.482  0.00  0.00    +0.000 C 
ENDBRANCH  23  24
BRANCH  23  30
ATOM     30  C   UNL     1      34.112  -7.492 -22.631  0.00  0.00    +0.116 C 
ATOM     31  C   UNL     1      35.139  -7.471 -23.745  0.00  0.00    +0.025 C 
ENDBRANCH  23  30
ENDBRANCH  20  23
ENDBRANCH   1  20
TORSDOF 8
ENDMDL
MODEL 6
REMARK VINA RESULT:      -9.4      7.571     10.882
REMARK  Name = 6102762
REMARK  8 active torsions:
REMARK  status: ('A' for Active; 'I' for Inactive)
REMARK    1  A    between atoms: C_1  and  S_20
REMARK    2  A    between atoms: C_2  and  N_9
REMARK    3  A    between atoms: C_10  and  C_12
REMARK    4  A    between atoms: C_12  and  C_17
REMARK    5  A    between atoms: C_12  and  O_18
REMARK    6  A    between atoms: S_20  and  N_23
REMARK    7  A    between atoms: N_23  and  C_24
REMARK    8  A    between atoms: N_23  and  C_30
REMARK                            x       y       z     vdW  Elec       q    Type
REMARK                         _______ _______ _______ _____ _____    ______ ____
ROOT
ATOM      1  C   UNL     1      36.103 -21.498 -18.637  0.00  0.00    +0.125 C 
ATOM      2  C   UNL     1      35.964 -22.358 -16.006  0.00  0.00    +0.046 C 
ATOM      3  C   UNL     1      34.953 -22.704 -16.887  0.00  0.00    -0.007 C 
ATOM      4  C   UNL     1      35.022 -22.270 -18.212  0.00  0.00    +0.017 C 
ATOM      5  C   UNL     1      37.114 -21.159 -17.739  0.00  0.00    +0.021 C 
ATOM      6  C   UNL     1      37.045 -21.591 -16.414  0.00  0.00    +0.016 C 
ATOM      7  C   UNL     1      33.784 -23.530 -16.459  0.00  0.00    +0.032 C 
ENDROOT
BRANCH   2   9
ATOM      8  O   UNL     1      38.066 -23.627 -14.297  0.00  0.00    -0.272 OA
ATOM      9  N   UNL     1      35.912 -22.787 -14.658  0.00  0.00    -0.282 N 
ATOM     10  C   UNL     1      36.926 -23.375 -13.912  0.00  0.00    +0.259 C 
ATOM     11  H   UNL     1      35.054 -22.654 -14.194  0.00  0.00    +0.155 HD
BRANCH  10  12
ATOM     12  C   UNL     1      36.492 -23.706 -12.473  0.00  0.00    +0.245 C 
ATOM     13  C   UNL     1      37.231 -22.838 -11.453  0.00  0.00    +0.048 C 
BRANCH  12  17
ATOM     14  F   UNL     1      36.362 -25.962 -13.231  0.00  0.00    -0.167 F 
ATOM     15  F   UNL     1      35.825 -25.564 -11.159  0.00  0.00    -0.167 F 
ATOM     16  F   UNL     1      37.914 -25.475 -11.777  0.00  0.00    -0.167 F 
ATOM     17  C   UNL     1      36.651 -25.188 -12.163  0.00  0.00    +0.427 C 
ENDBRANCH  12  17
BRANCH  12  18
ATOM     18  O   UNL     1      35.099 -23.410 -12.375  0.00  0.00    -0.372 OA
ATOM     19  H   UNL     1      34.927 -22.939 -11.545  0.00  0.00    +0.211 HD
ENDBRANCH  12  18
ENDBRANCH  10  12
ENDBRANCH   2   9
BRANCH   1  20
ATOM     20  S   UNL     1      36.189 -20.953 -20.294  0.00  0.00    +0.077 S 
ATOM     21  O   UNL     1      37.369 -20.105 -20.428  0.00  0.00    -0.150 OA
ATOM     22  O   UNL     1      36.079 -22.124 -21.160  0.00  0.00    -0.150 OA
BRANCH  20  23
ATOM     23  N   UNL     1      34.771 -19.965 -20.484  0.00  0.00    -0.191 N 
BRANCH  23  24
ATOM     24  C   UNL     1      34.848 -18.943 -21.509  0.00  0.00    +0.069 C 
ATOM     25  C   UNL     1      34.818 -19.318 -22.841  0.00  0.00    +0.016 C 
ATOM     26  C   UNL     1      34.946 -17.615 -21.132  0.00  0.00    +0.016 C 
ATOM     27  C   UNL     1      34.891 -18.334 -23.827  0.00  0.00    +0.001 C 
ATOM     28  C   UNL     1      35.019 -16.631 -22.119  0.00  0.00    +0.001 C 
ATOM     29  C   UNL     1      34.991 -16.991 -23.466  0.00  0.00    +0.000 C 
ENDBRANCH  23  24
BRANCH  23  30
ATOM     30  C   UNL     1      33.453 -20.633 -20.320  0.00  0.00    +0.116 C 
ATOM     31  C   UNL     1      32.340 -19.624 -20.518  0.00  0.00    +0.025 C 
ENDBRANCH  23  30
ENDBRANCH  20  23
ENDBRANCH   1  20
TORSDOF 8
ENDMDL
MODEL 7
REMARK VINA RESULT:      -9.3      5.017      9.557
REMARK  Name = 6102762
REMARK  8 active torsions:
REMARK  status: ('A' for Active; 'I' for Inactive)
REMARK    1  A    between atoms: C_1  and  S_20
REMARK    2  A    between atoms: C_2  and  N_9
REMARK    3  A    between atoms: C_10  and  C_12
REMARK    4  A    between atoms: C_12  and  C_17
REMARK    5  A    between atoms: C_12  and  O_18
REMARK    6  A    between atoms: S_20  and  N_23
REMARK    7  A    between atoms: N_23  and  C_24
REMARK    8  A    between atoms: N_23  and  C_30
REMARK                            x       y       z     vdW  Elec       q    Type
REMARK                         _______ _______ _______ _____ _____    ______ ____
ROOT
ATOM      1  C   UNL     1      33.151 -12.390 -22.900  0.00  0.00    +0.125 C 
ATOM      2  C   UNL     1      32.847  -9.680 -23.392  0.00  0.00    +0.046 C 
ATOM      3  C   UNL     1      33.914 -10.357 -23.959  0.00  0.00    -0.007 C 
ATOM      4  C   UNL     1      34.068 -11.722 -23.711  0.00  0.00    +0.017 C 
ATOM      5  C   UNL     1      32.082 -11.696 -22.336  0.00  0.00    +0.021 C 
ATOM      6  C   UNL     1      31.928 -10.331 -22.583  0.00  0.00    +0.016 C 
ATOM      7  C   UNL     1      34.909  -9.666 -24.833  0.00  0.00    +0.032 C 
ENDROOT
BRANCH   2   9
ATOM      8  O   UNL     1      30.348  -8.077 -23.751  0.00  0.00    -0.272 OA
ATOM      9  N   UNL     1      32.674  -8.296 -23.630  0.00  0.00    -0.282 N 
ATOM     10  C   UNL     1      31.480  -7.602 -23.791  0.00  0.00    +0.259 C 
ATOM     11  H   UNL     1      33.498  -7.760 -23.690  0.00  0.00    +0.155 HD
BRANCH  10  12
ATOM     12  C   UNL     1      31.694  -6.097 -24.036  0.00  0.00    +0.245 C 
ATOM     13  C   UNL     1      33.026  -5.829 -24.737  0.00  0.00    +0.048 C 
BRANCH  12  17
ATOM     14  F   UNL     1      32.412  -5.740 -21.790  0.00  0.00    -0.167 F 
ATOM     15  F   UNL     1      30.315  -5.373 -22.247  0.00  0.00    -0.167 F 
ATOM     16  F   UNL     1      31.841  -3.987 -22.957  0.00  0.00    -0.167 F 
ATOM     17  C   UNL     1      31.570  -5.295 -22.748  0.00  0.00    +0.427 C 
ENDBRANCH  12  17
BRANCH  12  18
ATOM     18  O   UNL     1      30.646  -5.658 -24.899  0.00  0.00    -0.372 OA
ATOM     19  H   UNL     1      30.966  -4.925 -25.448  0.00  0.00    +0.211 HD
ENDBRANCH  12  18
ENDBRANCH  10  12
ENDBRANCH   2   9
BRANCH   1  20
ATOM     20  S   UNL     1      33.345 -14.097 -22.587  0.00  0.00    +0.077 S 
ATOM     21  O   UNL     1      34.533 -14.271 -21.757  0.00  0.00    -0.150 OA
ATOM     22  O   UNL     1      32.073 -14.611 -22.087  0.00  0.00    -0.150 OA
BRANCH  20  23
ATOM     23  N   UNL     1      33.660 -14.778 -24.156  0.00  0.00    -0.191 N 
BRANCH  23  24
ATOM     24  C   UNL     1      34.191 -16.127 -24.163  0.00  0.00    +0.069 C 
ATOM     25  C   UNL     1      34.939 -16.563 -23.084  0.00  0.00    +0.016 C 
ATOM     26  C   UNL     1      33.934 -16.948 -25.247  0.00  0.00    +0.016 C 
ATOM     27  C   UNL     1      35.449 -17.862 -23.090  0.00  0.00    +0.001 C 
ATOM     28  C   UNL     1      34.443 -18.246 -25.253  0.00  0.00    +0.001 C 
ATOM     29  C   UNL     1      35.201 -18.704 -24.174  0.00  0.00    +0.000 C 
ENDBRANCH  23  24
BRANCH  23  30
ATOM     30  C   UNL     1      32.705 -14.441 -25.245  0.00  0.00    +0.116 C 
ATOM     31  C   UNL     1      33.448 -13.781 -26.389  0.00  0.00    +0.025 C 
ENDBRANCH  23  30
ENDBRANCH  20  23
ENDBRANCH   1  20
TORSDOF 8
ENDMDL
MODEL 8
REMARK VINA RESULT:      -9.3      0.991      1.894
REMARK  Name = 6102762
REMARK  8 active torsions:
REMARK  status: ('A' for Active; 'I' for Inactive)
REMARK    1  A    between atoms: C_1  and  S_20
REMARK    2  A    between atoms: C_2  and  N_9
REMARK    3  A    between atoms: C_10  and  C_12
REMARK    4  A    between atoms: C_12  and  C_17
REMARK    5  A    between atoms: C_12  and  O_18
REMARK    6  A    between atoms: S_20  and  N_23
REMARK    7  A    between atoms: N_23  and  C_24
REMARK    8  A    between atoms: N_23  and  C_30
REMARK                            x       y       z     vdW  Elec       q    Type
REMARK                         _______ _______ _______ _____ _____    ______ ____
ROOT
ATOM      1  C   UNL     1      32.290 -12.017 -22.322  0.00  0.00    +0.125 C 
ATOM      2  C   UNL     1      33.358 -14.545 -22.709  0.00  0.00    +0.046 C 
ATOM      3  C   UNL     1      32.563 -14.307 -21.600  0.00  0.00    -0.007 C 
ATOM      4  C   UNL     1      32.026 -13.034 -21.404  0.00  0.00    +0.017 C 
ATOM      5  C   UNL     1      33.091 -12.272 -23.434  0.00  0.00    +0.021 C 
ATOM      6  C   UNL     1      33.629 -13.545 -23.630  0.00  0.00    +0.016 C 
ATOM      7  C   UNL     1      32.263 -15.378 -20.602  0.00  0.00    +0.032 C 
ENDROOT
BRANCH   2   9
ATOM      8  O   UNL     1      35.342 -16.090 -21.090  0.00  0.00    -0.272 OA
ATOM      9  N   UNL     1      33.913 -15.829 -22.925  0.00  0.00    -0.282 N 
ATOM     10  C   UNL     1      34.839 -16.500 -22.134  0.00  0.00    +0.259 C 
ATOM     11  H   UNL     1      33.609 -16.303 -23.732  0.00  0.00    +0.155 HD
BRANCH  10  12
ATOM     12  C   UNL     1      35.208 -17.885 -22.694  0.00  0.00    +0.245 C 
ATOM     13  C   UNL     1      34.679 -18.071 -24.117  0.00  0.00    +0.048 C 
BRANCH  12  17
ATOM     14  F   UNL     1      34.484 -20.144 -22.454  0.00  0.00    -0.167 F 
ATOM     15  F   UNL     1      33.607 -18.660 -21.124  0.00  0.00    -0.167 F 
ATOM     16  F   UNL     1      35.674 -19.291 -20.838  0.00  0.00    -0.167 F 
ATOM     17  C   UNL     1      34.743 -19.006 -21.775  0.00  0.00    +0.427 C 
ENDBRANCH  12  17
BRANCH  12  18
ATOM     18  O   UNL     1      36.633 -17.954 -22.742  0.00  0.00    -0.372 OA
ATOM     19  H   UNL     1      37.008 -17.379 -22.057  0.00  0.00    +0.211 HD
ENDBRANCH  12  18
ENDBRANCH  10  12
ENDBRANCH   2   9
BRANCH   1  20
ATOM     20  S   UNL     1      31.620 -10.424 -22.076  0.00  0.00    +0.077 S 
ATOM     21  O   UNL     1      30.238 -10.439 -22.545  0.00  0.00    -0.150 OA
ATOM     22  O   UNL     1      31.874 -10.037 -20.691  0.00  0.00    -0.150 OA
BRANCH  20  23
ATOM     23  N   UNL     1      32.554  -9.408 -23.134  0.00  0.00    -0.191 N 
BRANCH  23  24
ATOM     24  C   UNL     1      32.139  -8.021 -23.206  0.00  0.00    +0.069 C 
ATOM     25  C   UNL     1      31.337  -7.610 -24.256  0.00  0.00    +0.016 C 
ATOM     26  C   UNL     1      32.551  -7.141 -22.221  0.00  0.00    +0.016 C 
ATOM     27  C   UNL     1      30.936  -6.276 -24.325  0.00  0.00    +0.001 C 
ATOM     28  C   UNL     1      32.149  -5.807 -22.289  0.00  0.00    +0.001 C 
ATOM     29  C   UNL     1      31.342  -5.374 -23.342  0.00  0.00    +0.000 C 
ENDBRANCH  23  24
BRANCH  23  30
ATOM     30  C   UNL     1      34.018  -9.660 -23.197  0.00  0.00    +0.116 C 
ATOM     31  C   UNL     1      34.585  -9.064 -24.469  0.00  0.00    +0.025 C 
ENDBRANCH  23  30
ENDBRANCH  20  23
ENDBRANCH   1  20
TORSDOF 8
ENDMDL
MODEL 9
REMARK VINA RESULT:      -8.8      5.013      7.424
REMARK  Name = 6102762
REMARK  8 active torsions:
REMARK  status: ('A' for Active; 'I' for Inactive)
REMARK    1  A    between atoms: C_1  and  S_20
REMARK    2  A    between atoms: C_2  and  N_9
REMARK    3  A    between atoms: C_10  and  C_12
REMARK    4  A    between atoms: C_12  and  C_17
REMARK    5  A    between atoms: C_12  and  O_18
REMARK    6  A    between atoms: S_20  and  N_23
REMARK    7  A    between atoms: N_23  and  C_24
REMARK    8  A    between atoms: N_23  and  C_30
REMARK                            x       y       z     vdW  Elec       q    Type
REMARK                         _______ _______ _______ _____ _____    ______ ____
ROOT
ATOM      1  C   UNL     1      34.535 -19.206 -22.011  0.00  0.00    +0.125 C 
ATOM      2  C   UNL     1      34.036 -20.809 -19.806  0.00  0.00    +0.046 C 
ATOM      3  C   UNL     1      35.346 -20.549 -20.174  0.00  0.00    -0.007 C 
ATOM      4  C   UNL     1      35.598 -19.743 -21.285  0.00  0.00    +0.017 C 
ATOM      5  C   UNL     1      33.221 -19.475 -21.628  0.00  0.00    +0.021 C 
ATOM      6  C   UNL     1      32.969 -20.282 -20.518  0.00  0.00    +0.016 C 
ATOM      7  C   UNL     1      36.503 -21.111 -19.414  0.00  0.00    +0.032 C 
ENDROOT
BRANCH   2   9
ATOM      8  O   UNL     1      34.088 -23.786 -19.522  0.00  0.00    -0.272 OA
ATOM      9  N   UNL     1      33.760 -21.626 -18.684  0.00  0.00    -0.282 N 
ATOM     10  C   UNL     1      33.799 -23.014 -18.611  0.00  0.00    +0.259 C 
ATOM     11  H   UNL     1      33.510 -21.155 -17.856  0.00  0.00    +0.155 HD
BRANCH  10  12
ATOM     12  C   UNL     1      33.435 -23.547 -17.214  0.00  0.00    +0.245 C 
ATOM     13  C   UNL     1      32.100 -22.979 -16.730  0.00  0.00    +0.048 C 
BRANCH  12  17
ATOM     14  F   UNL     1      34.137 -22.511 -15.185  0.00  0.00    -0.167 F 
ATOM     15  F   UNL     1      35.598 -22.669 -16.791  0.00  0.00    -0.167 F 
ATOM     16  F   UNL     1      35.007 -24.449 -15.680  0.00  0.00    -0.167 F 
ATOM     17  C   UNL     1      34.547 -23.292 -16.206  0.00  0.00    +0.427 C 
ENDBRANCH  12  17
BRANCH  12  18
ATOM     18  O   UNL     1      33.296 -24.963 -17.327  0.00  0.00    -0.372 OA
ATOM     19  H   UNL     1      34.167 -25.363 -17.475  0.00  0.00    +0.211 HD
ENDBRANCH  12  18
ENDBRANCH  10  12
ENDBRANCH   2   9
BRANCH   1  20
ATOM     20  S   UNL     1      34.849 -18.198 -23.402  0.00  0.00    +0.077 S 
ATOM     21  O   UNL     1      36.281 -18.244 -23.677  0.00  0.00    -0.150 OA
ATOM     22  O   UNL     1      33.930 -18.596 -24.464  0.00  0.00    -0.150 OA
BRANCH  20  23
ATOM     23  N   UNL     1      34.439 -16.597 -22.861  0.00  0.00    -0.191 N 
BRANCH  23  24
ATOM     24  C   UNL     1      33.976 -15.684 -23.888  0.00  0.00    +0.069 C 
ATOM     25  C   UNL     1      33.699 -14.371 -23.549  0.00  0.00    +0.016 C 
ATOM     26  C   UNL     1      33.825 -16.146 -25.183  0.00  0.00    +0.016 C 
ATOM     27  C   UNL     1      33.255 -13.492 -24.537  0.00  0.00    +0.001 C 
ATOM     28  C   UNL     1      33.380 -15.267 -26.172  0.00  0.00    +0.001 C 
ATOM     29  C   UNL     1      33.096 -13.940 -25.848  0.00  0.00    +0.000 C 
ENDBRANCH  23  24
BRANCH  23  30
ATOM     30  C   UNL     1      33.785 -16.478 -21.531  0.00  0.00    +0.116 C 
ATOM     31  C   UNL     1      34.736 -15.823 -20.551  0.00  0.00    +0.025 C 
ENDBRANCH  23  30
ENDBRANCH  20  23
ENDBRANCH   1  20
TORSDOF 8
ENDMDL
