MODEL 1
REMARK VINA RESULT:     -12.1      0.000      0.000
REMARK  Name = 16750094
REMARK  4 active torsions:
REMARK  status: ('A' for Active; 'I' for Inactive)
REMARK    1  A    between atoms: C_4  and  C_22
REMARK    2  A    between atoms: C_7  and  C_12
REMARK    3  A    between atoms: C_14  and  C_19
REMARK    4  A    between atoms: C_23  and  O_28
REMARK                            x       y       z     vdW  Elec       q    Type
REMARK                         _______ _______ _______ _____ _____    ______ ____
ROOT
ATOM      1  N   UNL     1      33.567 -15.239 -26.028  0.00  0.00    -0.297 N 
ATOM      2  N   UNL     1      34.561 -17.366 -25.487  0.00  0.00    -0.229 NA
ATOM      3  C   UNL     1      33.794 -15.705 -23.855  0.00  0.00    +0.033 C 
ATOM      4  C   UNL     1      33.197 -14.423 -23.991  0.00  0.00    +0.020 C 
ATOM      5  C   UNL     1      34.013 -16.186 -25.143  0.00  0.00    +0.132 C 
ATOM      6  C   UNL     1      34.182 -16.525 -22.784  0.00  0.00    +0.004 C 
ATOM      7  C   UNL     1      34.756 -17.759 -23.084  0.00  0.00    +0.021 C 
ATOM      8  C   UNL     1      33.070 -14.163 -25.338  0.00  0.00    +0.063 C 
ATOM      9  C   UNL     1      34.915 -18.116 -24.416  0.00  0.00    +0.100 C 
ATOM     10  H   UNL     1      33.600 -15.319 -27.008  0.00  0.00    +0.154 HD
ENDROOT
BRANCH   7  12
ATOM     11  N   UNL     1      36.941 -19.453 -20.583  0.00  0.00    -0.242 NA
ATOM     12  C   UNL     1      35.176 -18.650 -22.027  0.00  0.00    +0.021 C 
ATOM     13  C   UNL     1      34.281 -19.538 -21.439  0.00  0.00    +0.008 C 
ATOM     14  C   UNL     1      34.715 -20.383 -20.424  0.00  0.00    +0.073 C 
ATOM     15  C   UNL     1      36.483 -18.647 -21.567  0.00  0.00    +0.099 C 
ATOM     16  C   UNL     1      36.042 -20.303 -20.035  0.00  0.00    +0.103 C 
BRANCH  14  19
ATOM     17  O   UNL     1      32.649 -21.372 -20.233  0.00  0.00    -0.270 OA
ATOM     18  N   UNL     1      34.270 -22.102 -18.715  0.00  0.00    -0.273 N 
ATOM     19  C   UNL     1      33.806 -21.322 -19.790  0.00  0.00    +0.251 C 
ATOM     20  C   UNL     1      33.414 -23.052 -18.019  0.00  0.00    +0.115 C 
ATOM     21  C   UNL     1      35.643 -22.011 -18.224  0.00  0.00    +0.115 C 
ENDBRANCH  14  19
ENDBRANCH   7  12
BRANCH   4  22
ATOM     22  C   UNL     1      32.770 -13.494 -22.985  0.00  0.00    +0.035 C 
ATOM     23  C   UNL     1      32.785 -12.120 -23.227  0.00  0.00    +0.139 C 
ATOM     24  C   UNL     1      32.335 -13.980 -21.752  0.00  0.00    +0.003 C 
ATOM     25  C   UNL     1      32.367 -11.233 -22.235  0.00  0.00    +0.037 C 
ATOM     26  C   UNL     1      31.916 -13.092 -20.761  0.00  0.00    +0.000 C 
ATOM     27  C   UNL     1      31.932 -11.719 -21.002  0.00  0.00    +0.003 C 
BRANCH  23  28
ATOM     28  O   UNL     1      33.207 -11.616 -24.422  0.00  0.00    -0.471 OA
ATOM     29  C   UNL     1      34.200 -10.594 -24.378  0.00  0.00    +0.252 C 
ENDBRANCH  23  28
ENDBRANCH   4  22
TORSDOF 4
ENDMDL
MODEL 2
REMARK VINA RESULT:     -12.0      2.112      3.681
REMARK  Name = 16750094
REMARK  4 active torsions:
REMARK  status: ('A' for Active; 'I' for Inactive)
REMARK    1  A    between atoms: C_4  and  C_22
REMARK    2  A    between atoms: C_7  and  C_12
REMARK    3  A    between atoms: C_14  and  C_19
REMARK    4  A    between atoms: C_23  and  O_28
REMARK                            x       y       z     vdW  Elec       q    Type
REMARK                         _______ _______ _______ _____ _____    ______ ____
ROOT
ATOM      1  N   UNL     1      31.821 -12.022 -21.565  0.00  0.00    -0.297 N 
ATOM      2  N   UNL     1      32.094 -14.177 -20.524  0.00  0.00    -0.229 NA
ATOM      3  C   UNL     1      33.185 -13.457 -22.597  0.00  0.00    +0.033 C 
ATOM      4  C   UNL     1      33.141 -12.248 -23.343  0.00  0.00    +0.020 C 
ATOM      5  C   UNL     1      32.351 -13.283 -21.497  0.00  0.00    +0.132 C 
ATOM      6  C   UNL     1      33.839 -14.694 -22.725  0.00  0.00    +0.004 C 
ATOM      7  C   UNL     1      33.607 -15.655 -21.744  0.00  0.00    +0.021 C 
ATOM      8  C   UNL     1      32.293 -11.385 -22.683  0.00  0.00    +0.063 C 
ATOM      9  C   UNL     1      32.750 -15.349 -20.696  0.00  0.00    +0.100 C 
ATOM     10  H   UNL     1      31.195 -11.634 -20.913  0.00  0.00    +0.154 HD
ENDROOT
BRANCH   7  12
ATOM     11  N   UNL     1      36.026 -18.323 -22.710  0.00  0.00    -0.242 NA
ATOM     12  C   UNL     1      34.250 -16.948 -21.817  0.00  0.00    +0.021 C 
ATOM     13  C   UNL     1      33.755 -18.036 -21.106  0.00  0.00    +0.008 C 
ATOM     14  C   UNL     1      34.395 -19.267 -21.196  0.00  0.00    +0.073 C 
ATOM     15  C   UNL     1      35.378 -17.142 -22.598  0.00  0.00    +0.099 C 
ATOM     16  C   UNL     1      35.516 -19.358 -22.004  0.00  0.00    +0.103 C 
BRANCH  14  19
ATOM     17  O   UNL     1      32.695 -20.680 -20.567  0.00  0.00    -0.270 OA
ATOM     18  N   UNL     1      34.804 -21.170 -19.684  0.00  0.00    -0.273 N 
ATOM     19  C   UNL     1      33.903 -20.423 -20.466  0.00  0.00    +0.251 C 
ATOM     20  C   UNL     1      34.383 -22.330 -18.911  0.00  0.00    +0.115 C 
ATOM     21  C   UNL     1      36.222 -20.831 -19.594  0.00  0.00    +0.115 C 
ENDBRANCH  14  19
ENDBRANCH   7  12
BRANCH   4  22
ATOM     22  C   UNL     1      33.810 -11.890 -24.559  0.00  0.00    +0.035 C 
ATOM     23  C   UNL     1      33.589 -12.608 -25.735  0.00  0.00    +0.139 C 
ATOM     24  C   UNL     1      34.691 -10.808 -24.558  0.00  0.00    +0.003 C 
ATOM     25  C   UNL     1      34.251 -12.245 -26.908  0.00  0.00    +0.037 C 
ATOM     26  C   UNL     1      35.351 -10.445 -25.731  0.00  0.00    +0.000 C 
ATOM     27  C   UNL     1      35.132 -11.163 -26.907  0.00  0.00    +0.003 C 
BRANCH  23  28
ATOM     28  O   UNL     1      32.736 -13.671 -25.767  0.00  0.00    -0.471 OA
ATOM     29  C   UNL     1      33.207 -14.861 -26.394  0.00  0.00    +0.252 C 
ENDBRANCH  23  28
ENDBRANCH   4  22
TORSDOF 4
ENDMDL
MODEL 3
REMARK VINA RESULT:     -11.9      8.978     11.900
REMARK  Name = 16750094
REMARK  4 active torsions:
REMARK  status: ('A' for Active; 'I' for Inactive)
REMARK    1  A    between atoms: C_4  and  C_22
REMARK    2  A    between atoms: C_7  and  C_12
REMARK    3  A    between atoms: C_14  and  C_19
REMARK    4  A    between atoms: C_23  and  O_28
REMARK                            x       y       z     vdW  Elec       q    Type
REMARK                         _______ _______ _______ _____ _____    ______ ____
ROOT
ATOM      1  N   UNL     1      36.702 -22.180 -17.351  0.00  0.00    -0.297 N 
ATOM      2  N   UNL     1      34.385 -22.413 -17.966  0.00  0.00    -0.229 NA
ATOM      3  C   UNL     1      35.379 -23.196 -15.867  0.00  0.00    +0.033 C 
ATOM      4  C   UNL     1      36.701 -23.146 -15.346  0.00  0.00    +0.020 C 
ATOM      5  C   UNL     1      35.415 -22.587 -17.117  0.00  0.00    +0.132 C 
ATOM      6  C   UNL     1      34.142 -23.692 -15.423  0.00  0.00    +0.004 C 
ATOM      7  C   UNL     1      33.042 -23.538 -16.264  0.00  0.00    +0.021 C 
ATOM      8  C   UNL     1      37.492 -22.516 -16.282  0.00  0.00    +0.063 C 
ATOM      9  C   UNL     1      33.218 -22.908 -17.488  0.00  0.00    +0.100 C 
ATOM     10  H   UNL     1      37.012 -21.719 -18.163  0.00  0.00    +0.154 HD
ENDROOT
BRANCH   7  12
ATOM     11  N   UNL     1      30.426 -25.503 -14.476  0.00  0.00    -0.242 NA
ATOM     12  C   UNL     1      31.741 -24.026 -15.867  0.00  0.00    +0.021 C 
ATOM     13  C   UNL     1      30.580 -23.530 -16.450  0.00  0.00    +0.008 C 
ATOM     14  C   UNL     1      29.342 -24.018 -16.047  0.00  0.00    +0.073 C 
ATOM     15  C   UNL     1      31.611 -25.004 -14.893  0.00  0.00    +0.099 C 
ATOM     16  C   UNL     1      29.319 -24.996 -15.066  0.00  0.00    +0.103 C 
BRANCH  14  19
ATOM     17  O   UNL     1      27.716 -24.079 -17.670  0.00  0.00    -0.270 OA
ATOM     18  N   UNL     1      27.450 -22.440 -16.024  0.00  0.00    -0.273 N 
ATOM     19  C   UNL     1      28.112 -23.521 -16.636  0.00  0.00    +0.251 C 
ATOM     20  C   UNL     1      26.221 -21.876 -16.565  0.00  0.00    +0.115 C 
ATOM     21  C   UNL     1      27.951 -21.811 -14.805  0.00  0.00    +0.115 C 
ENDBRANCH  14  19
ENDBRANCH   7  12
BRANCH   4  22
ATOM     22  C   UNL     1      37.219 -23.629 -14.100  0.00  0.00    +0.035 C 
ATOM     23  C   UNL     1      37.766 -24.908 -13.999  0.00  0.00    +0.139 C 
ATOM     24  C   UNL     1      37.172 -22.801 -12.978  0.00  0.00    +0.003 C 
ATOM     25  C   UNL     1      38.264 -25.360 -12.777  0.00  0.00    +0.037 C 
ATOM     26  C   UNL     1      37.671 -23.253 -11.757  0.00  0.00    +0.000 C 
ATOM     27  C   UNL     1      38.217 -24.532 -11.655  0.00  0.00    +0.003 C 
BRANCH  23  28
ATOM     28  O   UNL     1      37.824 -25.740 -15.078  0.00  0.00    -0.471 OA
ATOM     29  C   UNL     1      36.830 -26.758 -15.164  0.00  0.00    +0.252 C 
ENDBRANCH  23  28
ENDBRANCH   4  22
TORSDOF 4
ENDMDL
MODEL 4
REMARK VINA RESULT:     -11.9      1.003      1.780
REMARK  Name = 16750094
REMARK  4 active torsions:
REMARK  status: ('A' for Active; 'I' for Inactive)
REMARK    1  A    between atoms: C_4  and  C_22
REMARK    2  A    between atoms: C_7  and  C_12
REMARK    3  A    between atoms: C_14  and  C_19
REMARK    4  A    between atoms: C_23  and  O_28
REMARK                            x       y       z     vdW  Elec       q    Type
REMARK                         _______ _______ _______ _____ _____    ______ ____
ROOT
ATOM      1  N   UNL     1      33.446 -15.055 -26.369  0.00  0.00    -0.297 N 
ATOM      2  N   UNL     1      34.427 -17.182 -25.806  0.00  0.00    -0.229 NA
ATOM      3  C   UNL     1      33.750 -15.463 -24.195  0.00  0.00    +0.033 C 
ATOM      4  C   UNL     1      33.168 -14.176 -24.344  0.00  0.00    +0.020 C 
ATOM      5  C   UNL     1      33.911 -15.984 -25.475  0.00  0.00    +0.132 C 
ATOM      6  C   UNL     1      34.167 -16.260 -23.116  0.00  0.00    +0.004 C 
ATOM      7  C   UNL     1      34.710 -17.510 -23.403  0.00  0.00    +0.021 C 
ATOM      8  C   UNL     1      32.992 -13.953 -25.693  0.00  0.00    +0.063 C 
ATOM      9  C   UNL     1      34.811 -17.907 -24.729  0.00  0.00    +0.100 C 
ATOM     10  H   UNL     1      33.439 -15.164 -27.347  0.00  0.00    +0.154 HD
ENDROOT
BRANCH   7  12
ATOM     11  N   UNL     1      36.968 -19.182 -20.953  0.00  0.00    -0.242 NA
ATOM     12  C   UNL     1      35.157 -18.378 -22.337  0.00  0.00    +0.021 C 
ATOM     13  C   UNL     1      34.269 -19.221 -21.678  0.00  0.00    +0.008 C 
ATOM     14  C   UNL     1      34.729 -20.045 -20.656  0.00  0.00    +0.073 C 
ATOM     15  C   UNL     1      36.485 -18.396 -21.940  0.00  0.00    +0.099 C 
ATOM     16  C   UNL     1      36.076 -19.989 -20.335  0.00  0.00    +0.103 C 
BRANCH  14  19
ATOM     17  O   UNL     1      32.621 -20.847 -20.218  0.00  0.00    -0.270 OA
ATOM     18  N   UNL     1      34.357 -21.830 -19.000  0.00  0.00    -0.273 N 
ATOM     19  C   UNL     1      33.827 -20.936 -19.949  0.00  0.00    +0.251 C 
ATOM     20  C   UNL     1      33.515 -22.743 -18.239  0.00  0.00    +0.115 C 
ATOM     21  C   UNL     1      35.788 -21.903 -18.713  0.00  0.00    +0.115 C 
ENDBRANCH  14  19
ENDBRANCH   7  12
BRANCH   4  22
ATOM     22  C   UNL     1      32.795 -13.212 -23.350  0.00  0.00    +0.035 C 
ATOM     23  C   UNL     1      32.271 -13.617 -22.122  0.00  0.00    +0.139 C 
ATOM     24  C   UNL     1      32.961 -11.854 -23.623  0.00  0.00    +0.003 C 
ATOM     25  C   UNL     1      31.912 -12.664 -21.169  0.00  0.00    +0.037 C 
ATOM     26  C   UNL     1      32.603 -10.902 -22.669  0.00  0.00    +0.000 C 
ATOM     27  C   UNL     1      32.079 -11.306 -21.442  0.00  0.00    +0.003 C 
BRANCH  23  28
ATOM     28  O   UNL     1      32.095 -14.937 -21.827  0.00  0.00    -0.471 OA
ATOM     29  C   UNL     1      32.363 -15.342 -20.487  0.00  0.00    +0.252 C 
ENDBRANCH  23  28
ENDBRANCH   4  22
TORSDOF 4
ENDMDL
MODEL 5
REMARK VINA RESULT:     -11.7      2.138      3.600
REMARK  Name = 16750094
REMARK  4 active torsions:
REMARK  status: ('A' for Active; 'I' for Inactive)
REMARK    1  A    between atoms: C_4  and  C_22
REMARK    2  A    between atoms: C_7  and  C_12
REMARK    3  A    between atoms: C_14  and  C_19
REMARK    4  A    between atoms: C_23  and  O_28
REMARK                            x       y       z     vdW  Elec       q    Type
REMARK                         _______ _______ _______ _____ _____    ______ ____
ROOT
ATOM      1  N   UNL     1      31.898 -11.912 -21.762  0.00  0.00    -0.297 N 
ATOM      2  N   UNL     1      32.144 -14.050 -20.681  0.00  0.00    -0.229 NA
ATOM      3  C   UNL     1      33.231 -13.389 -22.776  0.00  0.00    +0.033 C 
ATOM      4  C   UNL     1      33.201 -12.194 -23.544  0.00  0.00    +0.020 C 
ATOM      5  C   UNL     1      32.409 -13.180 -21.673  0.00  0.00    +0.132 C 
ATOM      6  C   UNL     1      33.864 -14.638 -22.883  0.00  0.00    +0.004 C 
ATOM      7  C   UNL     1      33.624 -15.577 -21.882  0.00  0.00    +0.021 C 
ATOM      8  C   UNL     1      32.372 -11.304 -22.896  0.00  0.00    +0.063 C 
ATOM      9  C   UNL     1      32.779 -15.236 -20.835  0.00  0.00    +0.100 C 
ATOM     10  H   UNL     1      31.284 -11.501 -21.113  0.00  0.00    +0.154 HD
ENDROOT
BRANCH   7  12
ATOM     11  N   UNL     1      35.983 -18.306 -22.823  0.00  0.00    -0.242 NA
ATOM     12  C   UNL     1      34.244 -16.881 -21.935  0.00  0.00    +0.021 C 
ATOM     13  C   UNL     1      33.745 -17.944 -21.189  0.00  0.00    +0.008 C 
ATOM     14  C   UNL     1      34.363 -19.187 -21.260  0.00  0.00    +0.073 C 
ATOM     15  C   UNL     1      35.356 -17.112 -22.729  0.00  0.00    +0.099 C 
ATOM     16  C   UNL     1      35.469 -19.315 -22.084  0.00  0.00    +0.103 C 
BRANCH  14  19
ATOM     17  O   UNL     1      32.645 -20.527 -20.529  0.00  0.00    -0.270 OA
ATOM     18  N   UNL     1      34.776 -21.092 -19.752  0.00  0.00    -0.273 N 
ATOM     19  C   UNL     1      33.866 -20.316 -20.494  0.00  0.00    +0.251 C 
ATOM     20  C   UNL     1      34.351 -22.229 -18.948  0.00  0.00    +0.115 C 
ATOM     21  C   UNL     1      36.209 -20.809 -19.739  0.00  0.00    +0.115 C 
ENDBRANCH  14  19
ENDBRANCH   7  12
BRANCH   4  22
ATOM     22  C   UNL     1      33.867 -11.871 -24.772  0.00  0.00    +0.035 C 
ATOM     23  C   UNL     1      34.730 -10.779 -24.853  0.00  0.00    +0.139 C 
ATOM     24  C   UNL     1      33.641 -12.666 -25.897  0.00  0.00    +0.003 C 
ATOM     25  C   UNL     1      35.367 -10.480 -26.058  0.00  0.00    +0.037 C 
ATOM     26  C   UNL     1      34.279 -12.368 -27.100  0.00  0.00    +0.000 C 
ATOM     27  C   UNL     1      35.142 -11.275 -27.182  0.00  0.00    +0.003 C 
BRANCH  23  28
ATOM     28  O   UNL     1      34.968  -9.983 -23.772  0.00  0.00    -0.471 OA
ATOM     29  C   UNL     1      34.763  -8.582 -23.941  0.00  0.00    +0.252 C 
ENDBRANCH  23  28
ENDBRANCH   4  22
TORSDOF 4
ENDMDL
MODEL 6
REMARK VINA RESULT:     -11.5      3.433      6.476
REMARK  Name = 16750094
REMARK  4 active torsions:
REMARK  status: ('A' for Active; 'I' for Inactive)
REMARK    1  A    between atoms: C_4  and  C_22
REMARK    2  A    between atoms: C_7  and  C_12
REMARK    3  A    between atoms: C_14  and  C_19
REMARK    4  A    between atoms: C_23  and  O_28
REMARK                            x       y       z     vdW  Elec       q    Type
REMARK                         _______ _______ _______ _____ _____    ______ ____
ROOT
ATOM      1  N   UNL     1      31.601  -9.704 -20.353  0.00  0.00    -0.297 N 
ATOM      2  N   UNL     1      31.672 -12.081 -20.735  0.00  0.00    -0.229 NA
ATOM      3  C   UNL     1      32.476 -10.371 -22.296  0.00  0.00    +0.033 C 
ATOM      4  C   UNL     1      32.512  -8.951 -22.239  0.00  0.00    +0.020 C 
ATOM      5  C   UNL     1      31.902 -10.808 -21.107  0.00  0.00    +0.132 C 
ATOM      6  C   UNL     1      32.864 -11.350 -23.225  0.00  0.00    +0.004 C 
ATOM      7  C   UNL     1      32.648 -12.685 -22.891  0.00  0.00    +0.021 C 
ATOM      8  C   UNL     1      31.967  -8.570 -21.032  0.00  0.00    +0.063 C 
ATOM      9  C   UNL     1      32.065 -12.982 -21.667  0.00  0.00    +0.100 C 
ATOM     10  H   UNL     1      31.185  -9.722 -19.461  0.00  0.00    +0.154 HD
ENDROOT
BRANCH   7  12
ATOM     11  N   UNL     1      33.051 -14.608 -26.060  0.00  0.00    -0.242 NA
ATOM     12  C   UNL     1      33.025 -13.740 -23.804  0.00  0.00    +0.021 C 
ATOM     13  C   UNL     1      33.699 -14.871 -23.353  0.00  0.00    +0.008 C 
ATOM     14  C   UNL     1      34.049 -15.870 -24.255  0.00  0.00    +0.073 C 
ATOM     15  C   UNL     1      32.727 -13.658 -25.154  0.00  0.00    +0.099 C 
ATOM     16  C   UNL     1      33.705 -15.692 -25.585  0.00  0.00    +0.103 C 
BRANCH  14  19
ATOM     17  O   UNL     1      34.999 -17.919 -24.678  0.00  0.00    -0.270 OA
ATOM     18  N   UNL     1      35.098 -17.191 -22.459  0.00  0.00    -0.273 N 
ATOM     19  C   UNL     1      34.752 -17.063 -23.817  0.00  0.00    +0.251 C 
ATOM     20  C   UNL     1      35.788 -18.364 -21.941  0.00  0.00    +0.115 C 
ATOM     21  C   UNL     1      34.788 -16.155 -21.476  0.00  0.00    +0.115 C 
ENDBRANCH  14  19
ENDBRANCH   7  12
BRANCH   4  22
ATOM     22  C   UNL     1      33.000  -8.002 -23.196  0.00  0.00    +0.035 C 
ATOM     23  C   UNL     1      32.166  -7.009 -23.709  0.00  0.00    +0.139 C 
ATOM     24  C   UNL     1      34.328  -8.081 -23.615  0.00  0.00    +0.003 C 
ATOM     25  C   UNL     1      32.659  -6.096 -24.640  0.00  0.00    +0.037 C 
ATOM     26  C   UNL     1      34.821  -7.168 -24.547  0.00  0.00    +0.000 C 
ATOM     27  C   UNL     1      33.987  -6.174 -25.059  0.00  0.00    +0.003 C 
BRANCH  23  28
ATOM     28  O   UNL     1      30.863  -6.908 -23.319  0.00  0.00    -0.471 OA
ATOM     29  C   UNL     1      30.517  -5.796 -22.497  0.00  0.00    +0.252 C 
ENDBRANCH  23  28
ENDBRANCH   4  22
TORSDOF 4
ENDMDL
MODEL 7
REMARK VINA RESULT:     -11.3      3.789      9.101
REMARK  Name = 16750094
REMARK  4 active torsions:
REMARK  status: ('A' for Active; 'I' for Inactive)
REMARK    1  A    between atoms: C_4  and  C_22
REMARK    2  A    between atoms: C_7  and  C_12
REMARK    3  A    between atoms: C_14  and  C_19
REMARK    4  A    between atoms: C_23  and  O_28
REMARK                            x       y       z     vdW  Elec       q    Type
REMARK                         _______ _______ _______ _____ _____    ______ ____
ROOT
ATOM      1  N   UNL     1      33.107 -15.258 -26.567  0.00  0.00    -0.297 N 
ATOM      2  N   UNL     1      33.031 -12.873 -26.897  0.00  0.00    -0.229 NA
ATOM      3  C   UNL     1      33.671 -13.995 -24.813  0.00  0.00    +0.033 C 
ATOM      4  C   UNL     1      33.770 -15.363 -24.445  0.00  0.00    +0.020 C 
ATOM      5  C   UNL     1      33.255 -13.964 -26.141  0.00  0.00    +0.132 C 
ATOM      6  C   UNL     1      33.886 -12.763 -24.174  0.00  0.00    +0.004 C 
ATOM      7  C   UNL     1      33.668 -11.601 -24.911  0.00  0.00    +0.021 C 
ATOM      8  C   UNL     1      33.417 -16.116 -25.544  0.00  0.00    +0.063 C 
ATOM      9  C   UNL     1      33.253 -11.715 -26.231  0.00  0.00    +0.100 C 
ATOM     10  H   UNL     1      32.821 -15.529 -27.468  0.00  0.00    +0.154 HD
ENDROOT
BRANCH   7  12
ATOM     11  N   UNL     1      35.343  -8.433 -23.882  0.00  0.00    -0.242 NA
ATOM     12  C   UNL     1      33.871 -10.302 -24.311  0.00  0.00    +0.021 C 
ATOM     13  C   UNL     1      32.851  -9.670 -23.607  0.00  0.00    +0.008 C 
ATOM     14  C   UNL     1      33.076  -8.420 -23.041  0.00  0.00    +0.073 C 
ATOM     15  C   UNL     1      35.087  -9.647 -24.418  0.00  0.00    +0.099 C 
ATOM     16  C   UNL     1      34.328  -7.850 -23.205  0.00  0.00    +0.103 C 
BRANCH  14  19
ATOM     17  O   UNL     1      31.703  -8.222 -21.209  0.00  0.00    -0.270 OA
ATOM     18  N   UNL     1      31.449  -6.580 -22.853  0.00  0.00    -0.273 N 
ATOM     19  C   UNL     1      32.033  -7.734 -22.300  0.00  0.00    +0.251 C 
ATOM     20  C   UNL     1      30.386  -5.848 -22.178  0.00  0.00    +0.115 C 
ATOM     21  C   UNL     1      31.868  -6.038 -24.143  0.00  0.00    +0.115 C 
ENDBRANCH  14  19
ENDBRANCH   7  12
BRANCH   4  22
ATOM     22  C   UNL     1      34.154 -15.957 -23.197  0.00  0.00    +0.035 C 
ATOM     23  C   UNL     1      33.454 -15.674 -22.024  0.00  0.00    +0.139 C 
ATOM     24  C   UNL     1      35.244 -16.828 -23.166  0.00  0.00    +0.003 C 
ATOM     25  C   UNL     1      33.844 -16.260 -20.821  0.00  0.00    +0.037 C 
ATOM     26  C   UNL     1      35.632 -17.414 -21.962  0.00  0.00    +0.000 C 
ATOM     27  C   UNL     1      34.933 -17.131 -20.789  0.00  0.00    +0.003 C 
BRANCH  23  28
ATOM     28  O   UNL     1      32.386 -14.825 -22.025  0.00  0.00    -0.471 OA
ATOM     29  C   UNL     1      32.416 -13.749 -21.091  0.00  0.00    +0.252 C 
ENDBRANCH  23  28
ENDBRANCH   4  22
TORSDOF 4
ENDMDL
MODEL 8
REMARK VINA RESULT:     -11.2      5.792      9.124
REMARK  Name = 16750094
REMARK  4 active torsions:
REMARK  status: ('A' for Active; 'I' for Inactive)
REMARK    1  A    between atoms: C_4  and  C_22
REMARK    2  A    between atoms: C_7  and  C_12
REMARK    3  A    between atoms: C_14  and  C_19
REMARK    4  A    between atoms: C_23  and  O_28
REMARK                            x       y       z     vdW  Elec       q    Type
REMARK                         _______ _______ _______ _____ _____    ______ ____
ROOT
ATOM      1  N   UNL     1      37.059 -22.421 -17.249  0.00  0.00    -0.297 N 
ATOM      2  N   UNL     1      35.841 -23.690 -15.604  0.00  0.00    -0.229 NA
ATOM      3  C   UNL     1      34.835 -22.441 -17.458  0.00  0.00    +0.033 C 
ATOM      4  C   UNL     1      35.388 -21.651 -18.502  0.00  0.00    +0.020 C 
ATOM      5  C   UNL     1      35.903 -22.904 -16.695  0.00  0.00    +0.132 C 
ATOM      6  C   UNL     1      33.543 -22.822 -17.062  0.00  0.00    +0.004 C 
ATOM      7  C   UNL     1      33.422 -23.636 -15.937  0.00  0.00    +0.021 C 
ATOM      8  C   UNL     1      36.758 -21.657 -18.347  0.00  0.00    +0.063 C 
ATOM      9  C   UNL     1      34.573 -24.027 -15.268  0.00  0.00    +0.100 C 
ATOM     10  H   UNL     1      37.966 -22.594 -16.910  0.00  0.00    +0.154 HD
ENDROOT
BRANCH   7  12
ATOM     11  N   UNL     1      30.800 -25.295 -13.871  0.00  0.00    -0.242 NA
ATOM     12  C   UNL     1      32.120 -24.063 -15.478  0.00  0.00    +0.021 C 
ATOM     13  C   UNL     1      30.963 -23.687 -16.151  0.00  0.00    +0.008 C 
ATOM     14  C   UNL     1      29.724 -24.114 -15.685  0.00  0.00    +0.073 C 
ATOM     15  C   UNL     1      31.986 -24.861 -14.353  0.00  0.00    +0.099 C 
ATOM     16  C   UNL     1      29.697 -24.910 -14.551  0.00  0.00    +0.103 C 
BRANCH  14  19
ATOM     17  O   UNL     1      28.129 -24.462 -17.303  0.00  0.00    -0.270 OA
ATOM     18  N   UNL     1      27.809 -22.586 -15.945  0.00  0.00    -0.273 N 
ATOM     19  C   UNL     1      28.497 -23.739 -16.366  0.00  0.00    +0.251 C 
ATOM     20  C   UNL     1      26.582 -22.137 -16.588  0.00  0.00    +0.115 C 
ATOM     21  C   UNL     1      28.278 -21.761 -14.834  0.00  0.00    +0.115 C 
ENDBRANCH  14  19
ENDBRANCH   7  12
BRANCH   4  22
ATOM     22  C   UNL     1      34.737 -20.940 -19.564  0.00  0.00    +0.035 C 
ATOM     23  C   UNL     1      35.464 -20.127 -20.433  0.00  0.00    +0.139 C 
ATOM     24  C   UNL     1      33.357 -21.071 -19.722  0.00  0.00    +0.003 C 
ATOM     25  C   UNL     1      34.812 -19.443 -21.458  0.00  0.00    +0.037 C 
ATOM     26  C   UNL     1      32.706 -20.387 -20.748  0.00  0.00    +0.000 C 
ATOM     27  C   UNL     1      33.432 -19.573 -21.617  0.00  0.00    +0.003 C 
BRANCH  23  28
ATOM     28  O   UNL     1      36.814 -19.979 -20.301  0.00  0.00    -0.471 OA
ATOM     29  C   UNL     1      37.466 -19.130 -21.242  0.00  0.00    +0.252 C 
ENDBRANCH  23  28
ENDBRANCH   4  22
TORSDOF 4
ENDMDL
MODEL 9
REMARK VINA RESULT:     -11.2      3.519     10.758
REMARK  Name = 16750094
REMARK  4 active torsions:
REMARK  status: ('A' for Active; 'I' for Inactive)
REMARK    1  A    between atoms: C_4  and  C_22
REMARK    2  A    between atoms: C_7  and  C_12
REMARK    3  A    between atoms: C_14  and  C_19
REMARK    4  A    between atoms: C_23  and  O_28
REMARK                            x       y       z     vdW  Elec       q    Type
REMARK                         _______ _______ _______ _____ _____    ______ ____
ROOT
ATOM      1  N   UNL     1      32.214 -23.987 -15.934  0.00  0.00    -0.297 N 
ATOM      2  N   UNL     1      32.242 -22.711 -17.977  0.00  0.00    -0.229 NA
ATOM      3  C   UNL     1      34.185 -23.133 -16.544  0.00  0.00    +0.033 C 
ATOM      4  C   UNL     1      34.351 -23.848 -15.328  0.00  0.00    +0.020 C 
ATOM      5  C   UNL     1      32.843 -23.239 -16.894  0.00  0.00    +0.132 C 
ATOM      6  C   UNL     1      35.022 -22.400 -17.402  0.00  0.00    +0.004 C 
ATOM      7  C   UNL     1      34.450 -21.832 -18.538  0.00  0.00    +0.021 C 
ATOM      8  C   UNL     1      33.121 -24.362 -14.977  0.00  0.00    +0.063 C 
ATOM      9  C   UNL     1      33.093 -22.016 -18.768  0.00  0.00    +0.100 C 
ATOM     10  H   UNL     1      31.258 -24.218 -15.931  0.00  0.00    +0.154 HD
ENDROOT
BRANCH   7  12
ATOM     11  N   UNL     1      37.450 -20.364 -20.194  0.00  0.00    -0.242 NA
ATOM     12  C   UNL     1      35.257 -21.065 -19.460  0.00  0.00    +0.021 C 
ATOM     13  C   UNL     1      34.670 -20.312 -20.471  0.00  0.00    +0.008 C 
ATOM     14  C   UNL     1      35.471 -19.585 -21.344  0.00  0.00    +0.073 C 
ATOM     15  C   UNL     1      36.639 -21.058 -19.365  0.00  0.00    +0.099 C 
ATOM     16  C   UNL     1      36.844 -19.643 -21.165  0.00  0.00    +0.103 C 
BRANCH  14  19
ATOM     17  O   UNL     1      34.629 -19.371 -23.471  0.00  0.00    -0.270 OA
ATOM     18  N   UNL     1      34.668 -17.415 -22.192  0.00  0.00    -0.273 N 
ATOM     19  C   UNL     1      34.889 -18.788 -22.409  0.00  0.00    +0.251 C 
ATOM     20  C   UNL     1      34.103 -16.548 -23.217  0.00  0.00    +0.115 C 
ATOM     21  C   UNL     1      34.989 -16.767 -20.923  0.00  0.00    +0.115 C 
ENDBRANCH  14  19
ENDBRANCH   7  12
BRANCH   4  22
ATOM     22  C   UNL     1      35.526 -24.057 -14.534  0.00  0.00    +0.035 C 
ATOM     23  C   UNL     1      36.353 -25.159 -14.754  0.00  0.00    +0.139 C 
ATOM     24  C   UNL     1      35.840 -23.140 -13.530  0.00  0.00    +0.003 C 
ATOM     25  C   UNL     1      37.491 -25.345 -13.971  0.00  0.00    +0.037 C 
ATOM     26  C   UNL     1      36.979 -23.327 -12.747  0.00  0.00    +0.000 C 
ATOM     27  C   UNL     1      37.805 -24.428 -12.967  0.00  0.00    +0.003 C 
BRANCH  23  28
ATOM     28  O   UNL     1      36.070 -26.072 -15.727  0.00  0.00    -0.471 OA
ATOM     29  C   UNL     1      36.835 -27.275 -15.726  0.00  0.00    +0.252 C 
ENDBRANCH  23  28
ENDBRANCH   4  22
TORSDOF 4
ENDMDL
