MODEL 1
REMARK VINA RESULT:      -7.6      0.000      0.000
REMARK  Name = 2119
REMARK  9 active torsions:
REMARK  status: ('A' for Active; 'I' for Inactive)
REMARK    1  A    between atoms: C_1  and  O_2
REMARK    2  A    between atoms: C_1  and  C_12
REMARK    3  A    between atoms: O_2  and  C_3
REMARK    4  A    between atoms: C_4  and  C_9
REMARK    5  A    between atoms: C_9  and  C_10
REMARK    6  A    between atoms: C_12  and  O_13
REMARK    7  A    between atoms: C_12  and  C_15
REMARK    8  A    between atoms: C_15  and  N_16
REMARK    9  A    between atoms: N_16  and  C_19
REMARK                            x       y       z     vdW  Elec       q    Type
REMARK                         _______ _______ _______ _____ _____    ______ ____
ROOT
ATOM      1  C   UNL     1      34.222 -14.864 -21.659  0.00  0.00    +0.232 C 
ENDROOT
BRANCH   1   2
ATOM      2  O   UNL     1      34.835 -16.144 -21.553  0.00  0.00    -0.473 OA
BRANCH   2   3
ATOM      3  C   UNL     1      34.776 -16.948 -22.660  0.00  0.00    +0.135 C 
ATOM      4  C   UNL     1      34.702 -18.331 -22.526  0.00  0.00    +0.016 C 
ATOM      5  C   UNL     1      34.790 -16.361 -23.921  0.00  0.00    +0.037 C 
ATOM      6  C   UNL     1      34.642 -19.135 -23.665  0.00  0.00    -0.001 C 
ATOM      7  C   UNL     1      34.730 -17.164 -25.061  0.00  0.00    +0.003 C 
ATOM      8  C   UNL     1      34.656 -18.551 -24.932  0.00  0.00    -0.000 C 
BRANCH   4   9
ATOM      9  C   UNL     1      34.686 -18.973 -21.178  0.00  0.00    +0.055 C 
BRANCH   9  10
ATOM     10  C   UNL     1      33.367 -19.619 -20.849  0.00  0.00    -0.021 C 
ATOM     11  C   UNL     1      33.228 -20.672 -20.036  0.00  0.00    -0.005 C 
ENDBRANCH   9  10
ENDBRANCH   4   9
ENDBRANCH   2   3
ENDBRANCH   1   2
BRANCH   1  12
ATOM     12  C   UNL     1      33.038 -14.803 -20.696  0.00  0.00    +0.133 C 
BRANCH  12  13
ATOM     13  O   UNL     1      32.051 -15.745 -21.128  0.00  0.00    -0.383 OA
ATOM     14  H   UNL     1      32.426 -16.638 -21.109  0.00  0.00    +0.210 HD
ENDBRANCH  12  13
BRANCH  12  15
ATOM     15  C   UNL     1      32.384 -13.422 -20.625  0.00  0.00    -0.048 C 
BRANCH  15  16
ATOM     16  N   UNL     1      31.905 -12.975 -21.926  0.00  0.00    +0.387 N 
ATOM     17  H   UNL     1      31.202 -13.631 -22.266  0.00  0.00    -0.084 HD
ATOM     18  H   UNL     1      32.697 -12.937 -22.568  0.00  0.00    -0.084 HD
BRANCH  16  19
ATOM     19  C   UNL     1      31.314 -11.647 -21.836  0.00  0.00    -0.062 C 
ATOM     20  C   UNL     1      31.195 -11.245 -20.370  0.00  0.00    -0.023 C 
ATOM     21  C   UNL     1      32.154 -10.639 -22.615  0.00  0.00    -0.023 C 
ENDBRANCH  16  19
ENDBRANCH  15  16
ENDBRANCH  12  15
ENDBRANCH   1  12
TORSDOF 9
ENDMDL
MODEL 2
REMARK VINA RESULT:      -7.6      2.969      6.394
REMARK  Name = 2119
REMARK  9 active torsions:
REMARK  status: ('A' for Active; 'I' for Inactive)
REMARK    1  A    between atoms: C_1  and  O_2
REMARK    2  A    between atoms: C_1  and  C_12
REMARK    3  A    between atoms: O_2  and  C_3
REMARK    4  A    between atoms: C_4  and  C_9
REMARK    5  A    between atoms: C_9  and  C_10
REMARK    6  A    between atoms: C_12  and  O_13
REMARK    7  A    between atoms: C_12  and  C_15
REMARK    8  A    between atoms: C_15  and  N_16
REMARK    9  A    between atoms: N_16  and  C_19
REMARK                            x       y       z     vdW  Elec       q    Type
REMARK                         _______ _______ _______ _____ _____    ______ ____
ROOT
ATOM      1  C   UNL     1      34.573 -18.375 -22.674  0.00  0.00    +0.232 C 
ENDROOT
BRANCH   1   2
ATOM      2  O   UNL     1      35.233 -17.140 -22.929  0.00  0.00    -0.473 OA
BRANCH   2   3
ATOM      3  C   UNL     1      34.548 -16.218 -23.674  0.00  0.00    +0.135 C 
ATOM      4  C   UNL     1      34.167 -15.001 -23.117  0.00  0.00    +0.016 C 
ATOM      5  C   UNL     1      34.238 -16.516 -24.998  0.00  0.00    +0.037 C 
ATOM      6  C   UNL     1      33.469 -14.073 -23.891  0.00  0.00    -0.001 C 
ATOM      7  C   UNL     1      33.539 -15.589 -25.772  0.00  0.00    +0.003 C 
ATOM      8  C   UNL     1      33.155 -14.367 -25.218  0.00  0.00    -0.000 C 
BRANCH   4   9
ATOM      9  C   UNL     1      34.494 -14.670 -21.699  0.00  0.00    +0.055 C 
BRANCH   9  10
ATOM     10  C   UNL     1      33.295 -14.730 -20.789  0.00  0.00    -0.021 C 
ATOM     11  C   UNL     1      32.436 -15.753 -20.745  0.00  0.00    -0.005 C 
ENDBRANCH   9  10
ENDBRANCH   4   9
ENDBRANCH   2   3
ENDBRANCH   1   2
BRANCH   1  12
ATOM     12  C   UNL     1      34.743 -18.729 -21.199  0.00  0.00    +0.133 C 
BRANCH  12  13
ATOM     13  O   UNL     1      35.683 -17.820 -20.617  0.00  0.00    -0.383 OA
ATOM     14  H   UNL     1      35.862 -17.099 -21.240  0.00  0.00    +0.210 HD
ENDBRANCH  12  13
BRANCH  12  15
ATOM     15  C   UNL     1      35.254 -20.154 -20.972  0.00  0.00    -0.048 C 
BRANCH  15  16
ATOM     16  N   UNL     1      36.132 -20.244 -19.814  0.00  0.00    +0.387 N 
ATOM     17  H   UNL     1      35.840 -19.556 -19.120  0.00  0.00    -0.084 HD
ATOM     18  H   UNL     1      37.089 -20.061 -20.117  0.00  0.00    -0.084 HD
BRANCH  16  19
ATOM     19  C   UNL     1      36.078 -21.573 -19.221  0.00  0.00    -0.062 C 
ATOM     20  C   UNL     1      36.757 -21.548 -17.856  0.00  0.00    -0.023 C 
ATOM     21  C   UNL     1      34.631 -22.043 -19.105  0.00  0.00    -0.023 C 
ENDBRANCH  16  19
ENDBRANCH  15  16
ENDBRANCH  12  15
ENDBRANCH   1  12
TORSDOF 9
ENDMDL
MODEL 3
REMARK VINA RESULT:      -7.6      2.144      3.618
REMARK  Name = 2119
REMARK  9 active torsions:
REMARK  status: ('A' for Active; 'I' for Inactive)
REMARK    1  A    between atoms: C_1  and  O_2
REMARK    2  A    between atoms: C_1  and  C_12
REMARK    3  A    between atoms: O_2  and  C_3
REMARK    4  A    between atoms: C_4  and  C_9
REMARK    5  A    between atoms: C_9  and  C_10
REMARK    6  A    between atoms: C_12  and  O_13
REMARK    7  A    between atoms: C_12  and  C_15
REMARK    8  A    between atoms: C_15  and  N_16
REMARK    9  A    between atoms: N_16  and  C_19
REMARK                            x       y       z     vdW  Elec       q    Type
REMARK                         _______ _______ _______ _____ _____    ______ ____
ROOT
ATOM      1  C   UNL     1      34.012 -16.177 -25.386  0.00  0.00    +0.232 C 
ENDROOT
BRANCH   1   2
ATOM      2  O   UNL     1      34.506 -15.886 -24.082  0.00  0.00    -0.473 OA
BRANCH   2   3
ATOM      3  C   UNL     1      34.705 -16.953 -23.248  0.00  0.00    +0.135 C 
ATOM      4  C   UNL     1      34.828 -16.763 -21.875  0.00  0.00    +0.016 C 
ATOM      5  C   UNL     1      34.781 -18.231 -23.793  0.00  0.00    +0.037 C 
ATOM      6  C   UNL     1      35.031 -17.862 -21.039  0.00  0.00    -0.001 C 
ATOM      7  C   UNL     1      34.984 -19.330 -22.958  0.00  0.00    +0.003 C 
ATOM      8  C   UNL     1      35.109 -19.145 -21.580  0.00  0.00    -0.000 C 
BRANCH   4   9
ATOM      9  C   UNL     1      34.749 -15.397 -21.278  0.00  0.00    +0.055 C 
BRANCH   9  10
ATOM     10  C   UNL     1      33.502 -15.183 -20.460  0.00  0.00    -0.021 C 
ATOM     11  C   UNL     1      32.297 -15.659 -20.790  0.00  0.00    -0.005 C 
ENDBRANCH   9  10
ENDBRANCH   4   9
ENDBRANCH   2   3
ENDBRANCH   1   2
BRANCH   1  12
ATOM     12  C   UNL     1      33.166 -15.001 -25.867  0.00  0.00    +0.133 C 
BRANCH  12  13
ATOM     13  O   UNL     1      33.491 -14.734 -27.235  0.00  0.00    -0.383 OA
ATOM     14  H   UNL     1      33.229 -15.490 -27.782  0.00  0.00    +0.210 HD
ENDBRANCH  12  13
BRANCH  12  15
ATOM     15  C   UNL     1      33.396 -13.720 -25.062  0.00  0.00    -0.048 C 
BRANCH  15  16
ATOM     16  N   UNL     1      32.610 -13.695 -23.835  0.00  0.00    +0.387 N 
ATOM     17  H   UNL     1      32.754 -14.569 -23.330  0.00  0.00    -0.084 HD
ATOM     18  H   UNL     1      31.627 -13.582 -24.081  0.00  0.00    -0.084 HD
BRANCH  16  19
ATOM     19  C   UNL     1      33.008 -12.582 -22.984  0.00  0.00    -0.062 C 
ATOM     20  C   UNL     1      33.496 -11.429 -23.854  0.00  0.00    -0.023 C 
ATOM     21  C   UNL     1      31.842 -12.148 -22.100  0.00  0.00    -0.023 C 
ENDBRANCH  16  19
ENDBRANCH  15  16
ENDBRANCH  12  15
ENDBRANCH   1  12
TORSDOF 9
ENDMDL
MODEL 4
REMARK VINA RESULT:      -7.5      7.607     11.717
REMARK  Name = 2119
REMARK  9 active torsions:
REMARK  status: ('A' for Active; 'I' for Inactive)
REMARK    1  A    between atoms: C_1  and  O_2
REMARK    2  A    between atoms: C_1  and  C_12
REMARK    3  A    between atoms: O_2  and  C_3
REMARK    4  A    between atoms: C_4  and  C_9
REMARK    5  A    between atoms: C_9  and  C_10
REMARK    6  A    between atoms: C_12  and  O_13
REMARK    7  A    between atoms: C_12  and  C_15
REMARK    8  A    between atoms: C_15  and  N_16
REMARK    9  A    between atoms: N_16  and  C_19
REMARK                            x       y       z     vdW  Elec       q    Type
REMARK                         _______ _______ _______ _____ _____    ______ ____
ROOT
ATOM      1  C   UNL     1      36.289 -22.529 -16.183  0.00  0.00    +0.232 C 
ENDROOT
BRANCH   1   2
ATOM      2  O   UNL     1      35.428 -23.636 -16.430  0.00  0.00    -0.473 OA
BRANCH   2   3
ATOM      3  C   UNL     1      34.089 -23.429 -16.232  0.00  0.00    +0.135 C 
ATOM      4  C   UNL     1      33.249 -23.160 -17.308  0.00  0.00    +0.016 C 
ATOM      5  C   UNL     1      33.580 -23.492 -14.939  0.00  0.00    +0.037 C 
ATOM      6  C   UNL     1      31.887 -22.952 -17.090  0.00  0.00    -0.001 C 
ATOM      7  C   UNL     1      32.218 -23.283 -14.719  0.00  0.00    +0.003 C 
ATOM      8  C   UNL     1      31.371 -23.013 -15.794  0.00  0.00    -0.000 C 
BRANCH   4   9
ATOM      9  C   UNL     1      33.783 -23.089 -18.701  0.00  0.00    +0.055 C 
BRANCH   9  10
ATOM     10  C   UNL     1      34.139 -21.689 -19.125  0.00  0.00    -0.021 C 
ATOM     11  C   UNL     1      33.354 -20.909 -19.876  0.00  0.00    -0.005 C 
ENDBRANCH   9  10
ENDBRANCH   4   9
ENDBRANCH   2   3
ENDBRANCH   1   2
BRANCH   1  12
ATOM     12  C   UNL     1      37.447 -22.993 -15.302  0.00  0.00    +0.133 C 
BRANCH  12  13
ATOM     13  O   UNL     1      38.607 -23.158 -16.124  0.00  0.00    -0.383 OA
ATOM     14  H   UNL     1      39.276 -22.502 -15.874  0.00  0.00    +0.210 HD
ENDBRANCH  12  13
BRANCH  12  15
ATOM     15  C   UNL     1      37.173 -24.319 -14.589  0.00  0.00    -0.048 C 
BRANCH  15  16
ATOM     16  N   UNL     1      37.872 -25.433 -15.217  0.00  0.00    +0.387 N 
ATOM     17  H   UNL     1      38.463 -25.075 -15.967  0.00  0.00    -0.084 HD
ATOM     18  H   UNL     1      37.179 -26.083 -15.587  0.00  0.00    -0.084 HD
BRANCH  16  19
ATOM     19  C   UNL     1      38.702 -26.137 -14.250  0.00  0.00    -0.062 C 
ATOM     20  C   UNL     1      40.166 -25.786 -14.487  0.00  0.00    -0.023 C 
ATOM     21  C   UNL     1      38.276 -25.783 -12.828  0.00  0.00    -0.023 C 
ENDBRANCH  16  19
ENDBRANCH  15  16
ENDBRANCH  12  15
ENDBRANCH   1  12
TORSDOF 9
ENDMDL
MODEL 5
REMARK VINA RESULT:      -7.5      2.033      3.308
REMARK  Name = 2119
REMARK  9 active torsions:
REMARK  status: ('A' for Active; 'I' for Inactive)
REMARK    1  A    between atoms: C_1  and  O_2
REMARK    2  A    between atoms: C_1  and  C_12
REMARK    3  A    between atoms: O_2  and  C_3
REMARK    4  A    between atoms: C_4  and  C_9
REMARK    5  A    between atoms: C_9  and  C_10
REMARK    6  A    between atoms: C_12  and  O_13
REMARK    7  A    between atoms: C_12  and  C_15
REMARK    8  A    between atoms: C_15  and  N_16
REMARK    9  A    between atoms: N_16  and  C_19
REMARK                            x       y       z     vdW  Elec       q    Type
REMARK                         _______ _______ _______ _____ _____    ______ ____
ROOT
ATOM      1  C   UNL     1      33.807 -14.848 -24.264  0.00  0.00    +0.232 C 
ENDROOT
BRANCH   1   2
ATOM      2  O   UNL     1      34.952 -15.345 -23.578  0.00  0.00    -0.473 OA
BRANCH   2   3
ATOM      3  C   UNL     1      34.894 -16.642 -23.143  0.00  0.00    +0.135 C 
ATOM      4  C   UNL     1      34.687 -16.927 -21.797  0.00  0.00    +0.016 C 
ATOM      5  C   UNL     1      35.043 -17.671 -24.067  0.00  0.00    +0.037 C 
ATOM      6  C   UNL     1      34.630 -18.254 -21.370  0.00  0.00    -0.001 C 
ATOM      7  C   UNL     1      34.986 -18.999 -23.642  0.00  0.00    +0.003 C 
ATOM      8  C   UNL     1      34.780 -19.290 -22.293  0.00  0.00    -0.000 C 
BRANCH   4   9
ATOM      9  C   UNL     1      34.526 -15.832 -20.795  0.00  0.00    +0.055 C 
BRANCH   9  10
ATOM     10  C   UNL     1      33.086 -15.461 -20.554  0.00  0.00    -0.021 C 
ATOM     11  C   UNL     1      32.671 -14.233 -20.224  0.00  0.00    -0.005 C 
ENDBRANCH   9  10
ENDBRANCH   4   9
ENDBRANCH   2   3
ENDBRANCH   1   2
BRANCH   1  12
ATOM     12  C   UNL     1      33.453 -13.475 -23.699  0.00  0.00    +0.133 C 
BRANCH  12  13
ATOM     13  O   UNL     1      32.049 -13.444 -23.423  0.00  0.00    -0.383 OA
ATOM     14  H   UNL     1      31.655 -14.299 -23.656  0.00  0.00    +0.210 HD
ENDBRANCH  12  13
BRANCH  12  15
ATOM     15  C   UNL     1      33.777 -12.324 -24.655  0.00  0.00    -0.048 C 
BRANCH  15  16
ATOM     16  N   UNL     1      34.484 -11.240 -23.987  0.00  0.00    +0.387 N 
ATOM     17  H   UNL     1      35.413 -11.144 -24.398  0.00  0.00    -0.084 HD
ATOM     18  H   UNL     1      34.556 -11.462 -22.994  0.00  0.00    -0.084 HD
BRANCH  16  19
ATOM     19  C   UNL     1      33.766  -9.982 -24.132  0.00  0.00    -0.062 C 
ATOM     20  C   UNL     1      32.695  -9.882 -23.051  0.00  0.00    -0.023 C 
ATOM     21  C   UNL     1      34.735  -8.806 -24.055  0.00  0.00    -0.023 C 
ENDBRANCH  16  19
ENDBRANCH  15  16
ENDBRANCH  12  15
ENDBRANCH   1  12
TORSDOF 9
ENDMDL
MODEL 6
REMARK VINA RESULT:      -7.5      7.204     10.624
REMARK  Name = 2119
REMARK  9 active torsions:
REMARK  status: ('A' for Active; 'I' for Inactive)
REMARK    1  A    between atoms: C_1  and  O_2
REMARK    2  A    between atoms: C_1  and  C_12
REMARK    3  A    between atoms: O_2  and  C_3
REMARK    4  A    between atoms: C_4  and  C_9
REMARK    5  A    between atoms: C_9  and  C_10
REMARK    6  A    between atoms: C_12  and  O_13
REMARK    7  A    between atoms: C_12  and  C_15
REMARK    8  A    between atoms: C_15  and  N_16
REMARK    9  A    between atoms: N_16  and  C_19
REMARK                            x       y       z     vdW  Elec       q    Type
REMARK                         _______ _______ _______ _____ _____    ______ ____
ROOT
ATOM      1  C   UNL     1      36.782 -21.953 -16.451  0.00  0.00    +0.232 C 
ENDROOT
BRANCH   1   2
ATOM      2  O   UNL     1      36.248 -22.729 -17.519  0.00  0.00    -0.473 OA
BRANCH   2   3
ATOM      3  C   UNL     1      35.460 -22.069 -18.424  0.00  0.00    +0.135 C 
ATOM      4  C   UNL     1      34.088 -22.294 -18.462  0.00  0.00    +0.016 C 
ATOM      5  C   UNL     1      36.052 -21.170 -19.305  0.00  0.00    +0.037 C 
ATOM      6  C   UNL     1      33.299 -21.614 -19.391  0.00  0.00    -0.001 C 
ATOM      7  C   UNL     1      35.265 -20.489 -20.234  0.00  0.00    +0.003 C 
ATOM      8  C   UNL     1      33.888 -20.711 -20.277  0.00  0.00    -0.000 C 
BRANCH   4   9
ATOM      9  C   UNL     1      33.440 -23.257 -17.522  0.00  0.00    +0.055 C 
BRANCH   9  10
ATOM     10  C   UNL     1      32.070 -22.817 -17.079  0.00  0.00    -0.021 C 
ATOM     11  C   UNL     1      31.491 -23.201 -15.937  0.00  0.00    -0.005 C 
ENDBRANCH   9  10
ENDBRANCH   4   9
ENDBRANCH   2   3
ENDBRANCH   1   2
BRANCH   1  12
ATOM     12  C   UNL     1      37.499 -22.884 -15.476  0.00  0.00    +0.133 C 
BRANCH  12  13
ATOM     13  O   UNL     1      38.711 -23.338 -16.087  0.00  0.00    -0.383 OA
ATOM     14  H   UNL     1      38.878 -24.258 -15.829  0.00  0.00    +0.210 HD
ENDBRANCH  12  13
BRANCH  12  15
ATOM     15  C   UNL     1      36.670 -24.111 -15.089  0.00  0.00    -0.048 C 
BRANCH  15  16
ATOM     16  N   UNL     1      37.428 -25.348 -15.221  0.00  0.00    +0.387 N 
ATOM     17  H   UNL     1      38.320 -25.146 -15.672  0.00  0.00    -0.084 HD
ATOM     18  H   UNL     1      36.884 -26.004 -15.781  0.00  0.00    -0.084 HD
BRANCH  16  19
ATOM     19  C   UNL     1      37.679 -25.946 -13.917  0.00  0.00    -0.062 C 
ATOM     20  C   UNL     1      39.078 -25.567 -13.445  0.00  0.00    -0.023 C 
ATOM     21  C   UNL     1      36.620 -25.494 -12.914  0.00  0.00    -0.023 C 
ENDBRANCH  16  19
ENDBRANCH  15  16
ENDBRANCH  12  15
ENDBRANCH   1  12
TORSDOF 9
ENDMDL
MODEL 7
REMARK VINA RESULT:      -7.4      2.848      6.514
REMARK  Name = 2119
REMARK  9 active torsions:
REMARK  status: ('A' for Active; 'I' for Inactive)
REMARK    1  A    between atoms: C_1  and  O_2
REMARK    2  A    between atoms: C_1  and  C_12
REMARK    3  A    between atoms: O_2  and  C_3
REMARK    4  A    between atoms: C_4  and  C_9
REMARK    5  A    between atoms: C_9  and  C_10
REMARK    6  A    between atoms: C_12  and  O_13
REMARK    7  A    between atoms: C_12  and  C_15
REMARK    8  A    between atoms: C_15  and  N_16
REMARK    9  A    between atoms: N_16  and  C_19
REMARK                            x       y       z     vdW  Elec       q    Type
REMARK                         _______ _______ _______ _____ _____    ______ ____
ROOT
ATOM      1  C   UNL     1      33.270 -15.181 -22.402  0.00  0.00    +0.232 C 
ENDROOT
BRANCH   1   2
ATOM      2  O   UNL     1      33.936 -14.062 -22.979  0.00  0.00    -0.473 OA
BRANCH   2   3
ATOM      3  C   UNL     1      33.686 -13.812 -24.302  0.00  0.00    +0.135 C 
ATOM      4  C   UNL     1      33.737 -12.513 -24.797  0.00  0.00    +0.016 C 
ATOM      5  C   UNL     1      33.381 -14.877 -25.144  0.00  0.00    +0.037 C 
ATOM      6  C   UNL     1      33.480 -12.276 -26.148  0.00  0.00    -0.001 C 
ATOM      7  C   UNL     1      33.123 -14.641 -26.494  0.00  0.00    +0.003 C 
ATOM      8  C   UNL     1      33.173 -13.340 -26.996  0.00  0.00    -0.000 C 
BRANCH   4   9
ATOM      9  C   UNL     1      34.063 -11.362 -23.904  0.00  0.00    +0.055 C 
BRANCH   9  10
ATOM     10  C   UNL     1      34.701 -10.210 -24.636  0.00  0.00    -0.021 C 
ATOM     11  C   UNL     1      34.791  -8.968 -24.149  0.00  0.00    -0.005 C 
ENDBRANCH   9  10
ENDBRANCH   4   9
ENDBRANCH   2   3
ENDBRANCH   1   2
BRANCH   1  12
ATOM     12  C   UNL     1      34.089 -15.685 -21.217  0.00  0.00    +0.133 C 
BRANCH  12  13
ATOM     13  O   UNL     1      34.874 -14.601 -20.710  0.00  0.00    -0.383 OA
ATOM     14  H   UNL     1      35.102 -14.001 -21.437  0.00  0.00    +0.210 HD
ENDBRANCH  12  13
BRANCH  12  15
ATOM     15  C   UNL     1      35.036 -16.832 -21.579  0.00  0.00    -0.048 C 
BRANCH  15  16
ATOM     16  N   UNL     1      35.376 -16.836 -22.995  0.00  0.00    +0.387 N 
ATOM     17  H   UNL     1      36.307 -16.438 -23.115  0.00  0.00    -0.084 HD
ATOM     18  H   UNL     1      34.683 -16.281 -23.497  0.00  0.00    -0.084 HD
BRANCH  16  19
ATOM     19  C   UNL     1      35.363 -18.190 -23.530  0.00  0.00    -0.062 C 
ATOM     20  C   UNL     1      34.824 -19.148 -22.473  0.00  0.00    -0.023 C 
ATOM     21  C   UNL     1      34.524 -18.249 -24.804  0.00  0.00    -0.023 C 
ENDBRANCH  16  19
ENDBRANCH  15  16
ENDBRANCH  12  15
ENDBRANCH   1  12
TORSDOF 9
ENDMDL
MODEL 8
REMARK VINA RESULT:      -7.3      2.566      7.045
REMARK  Name = 2119
REMARK  9 active torsions:
REMARK  status: ('A' for Active; 'I' for Inactive)
REMARK    1  A    between atoms: C_1  and  O_2
REMARK    2  A    between atoms: C_1  and  C_12
REMARK    3  A    between atoms: O_2  and  C_3
REMARK    4  A    between atoms: C_4  and  C_9
REMARK    5  A    between atoms: C_9  and  C_10
REMARK    6  A    between atoms: C_12  and  O_13
REMARK    7  A    between atoms: C_12  and  C_15
REMARK    8  A    between atoms: C_15  and  N_16
REMARK    9  A    between atoms: N_16  and  C_19
REMARK                            x       y       z     vdW  Elec       q    Type
REMARK                         _______ _______ _______ _____ _____    ______ ____
ROOT
ATOM      1  C   UNL     1      34.581 -16.360 -23.359  0.00  0.00    +0.232 C 
ENDROOT
BRANCH   1   2
ATOM      2  O   UNL     1      34.907 -14.993 -23.128  0.00  0.00    -0.473 OA
BRANCH   2   3
ATOM      3  C   UNL     1      33.933 -14.216 -22.561  0.00  0.00    +0.135 C 
ATOM      4  C   UNL     1      33.414 -13.122 -23.246  0.00  0.00    +0.016 C 
ATOM      5  C   UNL     1      33.469 -14.536 -21.290  0.00  0.00    +0.037 C 
ATOM      6  C   UNL     1      32.422 -12.340 -22.654  0.00  0.00    -0.001 C 
ATOM      7  C   UNL     1      32.477 -13.755 -20.696  0.00  0.00    +0.003 C 
ATOM      8  C   UNL     1      31.954 -12.656 -21.378  0.00  0.00    -0.000 C 
BRANCH   4   9
ATOM      9  C   UNL     1      33.904 -12.767 -24.612  0.00  0.00    +0.055 C 
BRANCH   9  10
ATOM     10  C   UNL     1      33.837 -11.290 -24.896  0.00  0.00    -0.021 C 
ATOM     11  C   UNL     1      34.908 -10.512 -25.086  0.00  0.00    -0.005 C 
ENDBRANCH   9  10
ENDBRANCH   4   9
ENDBRANCH   2   3
ENDBRANCH   1   2
BRANCH   1  12
ATOM     12  C   UNL     1      35.441 -17.233 -22.448  0.00  0.00    +0.133 C 
BRANCH  12  13
ATOM     13  O   UNL     1      36.176 -18.154 -23.260  0.00  0.00    -0.383 OA
ATOM     14  H   UNL     1      37.115 -18.115 -23.022  0.00  0.00    +0.210 HD
ENDBRANCH  12  13
BRANCH  12  15
ATOM     15  C   UNL     1      34.626 -18.036 -21.432  0.00  0.00    -0.048 C 
BRANCH  15  16
ATOM     16  N   UNL     1      35.456 -18.964 -20.676  0.00  0.00    +0.387 N 
ATOM     17  H   UNL     1      35.534 -18.635 -19.714  0.00  0.00    -0.084 HD
ATOM     18  H   UNL     1      36.376 -19.008 -21.114  0.00  0.00    -0.084 HD
BRANCH  16  19
ATOM     19  C   UNL     1      34.876 -20.300 -20.676  0.00  0.00    -0.062 C 
ATOM     20  C   UNL     1      35.560 -21.150 -19.611  0.00  0.00    -0.023 C 
ATOM     21  C   UNL     1      33.371 -20.224 -20.435  0.00  0.00    -0.023 C 
ENDBRANCH  16  19
ENDBRANCH  15  16
ENDBRANCH  12  15
ENDBRANCH   1  12
TORSDOF 9
ENDMDL
MODEL 9
REMARK VINA RESULT:      -7.3      1.467      1.859
REMARK  Name = 2119
REMARK  9 active torsions:
REMARK  status: ('A' for Active; 'I' for Inactive)
REMARK    1  A    between atoms: C_1  and  O_2
REMARK    2  A    between atoms: C_1  and  C_12
REMARK    3  A    between atoms: O_2  and  C_3
REMARK    4  A    between atoms: C_4  and  C_9
REMARK    5  A    between atoms: C_9  and  C_10
REMARK    6  A    between atoms: C_12  and  O_13
REMARK    7  A    between atoms: C_12  and  C_15
REMARK    8  A    between atoms: C_15  and  N_16
REMARK    9  A    between atoms: N_16  and  C_19
REMARK                            x       y       z     vdW  Elec       q    Type
REMARK                         _______ _______ _______ _____ _____    ______ ____
ROOT
ATOM      1  C   UNL     1      34.613 -15.138 -21.344  0.00  0.00    +0.232 C 
ENDROOT
BRANCH   1   2
ATOM      2  O   UNL     1      34.644 -16.551 -21.166  0.00  0.00    -0.473 OA
BRANCH   2   3
ATOM      3  C   UNL     1      34.719 -17.312 -22.301  0.00  0.00    +0.135 C 
ATOM      4  C   UNL     1      34.946 -18.683 -22.219  0.00  0.00    +0.016 C 
ATOM      5  C   UNL     1      34.562 -16.696 -23.539  0.00  0.00    +0.037 C 
ATOM      6  C   UNL     1      35.019 -19.444 -23.386  0.00  0.00    -0.001 C 
ATOM      7  C   UNL     1      34.635 -17.456 -24.706  0.00  0.00    +0.003 C 
ATOM      8  C   UNL     1      34.864 -18.831 -24.630  0.00  0.00    -0.000 C 
BRANCH   4   9
ATOM      9  C   UNL     1      35.116 -19.356 -20.897  0.00  0.00    +0.055 C 
BRANCH   9  10
ATOM     10  C   UNL     1      33.964 -20.260 -20.545  0.00  0.00    -0.021 C 
ATOM     11  C   UNL     1      32.680 -19.887 -20.570  0.00  0.00    -0.005 C 
ENDBRANCH   9  10
ENDBRANCH   4   9
ENDBRANCH   2   3
ENDBRANCH   1   2
BRANCH   1  12
ATOM     12  C   UNL     1      33.199 -14.637 -21.061  0.00  0.00    +0.133 C 
BRANCH  12  13
ATOM     13  O   UNL     1      32.424 -15.724 -20.546  0.00  0.00    -0.383 OA
ATOM     14  H   UNL     1      32.152 -15.524 -19.637  0.00  0.00    +0.210 HD
ENDBRANCH  12  13
BRANCH  12  15
ATOM     15  C   UNL     1      32.490 -14.090 -22.302  0.00  0.00    -0.048 C 
BRANCH  15  16
ATOM     16  N   UNL     1      33.060 -12.825 -22.746  0.00  0.00    +0.387 N 
ATOM     17  H   UNL     1      33.739 -12.505 -22.056  0.00  0.00    -0.084 HD
ATOM     18  H   UNL     1      32.306 -12.146 -22.846  0.00  0.00    -0.084 HD
BRANCH  16  19
ATOM     19  C   UNL     1      33.724 -12.977 -24.034  0.00  0.00    -0.062 C 
ATOM     20  C   UNL     1      32.899 -13.900 -24.923  0.00  0.00    -0.023 C 
ATOM     21  C   UNL     1      33.922 -11.614 -24.691  0.00  0.00    -0.023 C 
ENDBRANCH  16  19
ENDBRANCH  15  16
ENDBRANCH  12  15
ENDBRANCH   1  12
TORSDOF 9
ENDMDL
