MODEL 1
REMARK VINA RESULT:      -8.6      0.000      0.000
REMARK  Name = 11302
REMARK  1 active torsions:
REMARK  status: ('A' for Active; 'I' for Inactive)
REMARK    1  A    between atoms: C_12  and  O_21
REMARK                            x       y       z     vdW  Elec       q    Type
REMARK                         _______ _______ _______ _____ _____    ______ ____
ROOT
ATOM      1  O   UNL     1      39.274 -26.927 -14.617  0.00  0.00    -0.296 OA
ATOM      2  C   UNL     1      34.646 -23.237 -15.019  0.00  0.00    +0.000 C 
ATOM      3  C   UNL     1      35.069 -24.412 -14.078  0.00  0.00    +0.000 C 
ATOM      4  C   UNL     1      33.317 -23.602 -15.690  0.00  0.00    +0.002 C 
ATOM      5  C   UNL     1      32.184 -23.841 -14.674  0.00  0.00    +0.025 C 
ATOM      6  C   UNL     1      36.451 -24.134 -13.380  0.00  0.00    +0.001 C 
ATOM      7  C   UNL     1      37.532 -23.824 -14.471  0.00  0.00    +0.007 C 
ATOM      8  C   UNL     1      33.930 -24.811 -13.102  0.00  0.00    +0.000 C 
ATOM      9  C   UNL     1      32.576 -25.038 -13.798  0.00  0.00    +0.002 C 
ATOM     10  C   UNL     1      35.734 -22.931 -16.057  0.00  0.00    +0.000 C 
ATOM     11  C   UNL     1      32.698 -22.631 -16.692  0.00  0.00    +0.003 C 
ATOM     12  C   UNL     1      31.024 -24.110 -15.652  0.00  0.00    +0.110 C 
ATOM     13  C   UNL     1      37.097 -22.689 -15.412  0.00  0.00    +0.000 C 
ATOM     14  C   UNL     1      31.222 -23.060 -16.763  0.00  0.00    +0.029 C 
ATOM     15  C   UNL     1      36.950 -25.338 -12.529  0.00  0.00    +0.008 C 
ATOM     16  C   UNL     1      31.856 -22.625 -13.770  0.00  0.00    +0.002 C 
ATOM     17  C   UNL     1      36.352 -22.934 -12.401  0.00  0.00    +0.000 C 
ATOM     18  C   UNL     1      37.931 -25.063 -15.295  0.00  0.00    +0.064 C 
ATOM     19  C   UNL     1      37.281 -26.583 -13.337  0.00  0.00    +0.065 C 
ATOM     20  C   UNL     1      38.280 -26.234 -14.410  0.00  0.00    +0.151 C 
ENDROOT
BRANCH  12  21
ATOM     21  O   UNL     1      29.743 -23.988 -15.065  0.00  0.00    -0.384 OA
ATOM     22  H   UNL     1      29.504 -23.051 -14.999  0.00  0.00    +0.210 HD
ENDBRANCH  12  21
TORSDOF 1
ENDMDL
MODEL 2
REMARK VINA RESULT:      -7.7     17.726     19.927
REMARK  Name = 11302
REMARK  1 active torsions:
REMARK  status: ('A' for Active; 'I' for Inactive)
REMARK    1  A    between atoms: C_12  and  O_21
REMARK                            x       y       z     vdW  Elec       q    Type
REMARK                         _______ _______ _______ _____ _____    ______ ____
ROOT
ATOM      1  O   UNL     1      32.640 -12.089 -23.354  0.00  0.00    -0.296 OA
ATOM      2  C   UNL     1      33.133  -6.206 -23.942  0.00  0.00    +0.000 C 
ATOM      3  C   UNL     1      32.172  -7.185 -23.191  0.00  0.00    +0.000 C 
ATOM      4  C   UNL     1      32.309  -5.374 -24.931  0.00  0.00    +0.002 C 
ATOM      5  C   UNL     1      31.214  -4.541 -24.237  0.00  0.00    +0.025 C 
ATOM      6  C   UNL     1      32.949  -8.110 -22.184  0.00  0.00    +0.001 C 
ATOM      7  C   UNL     1      34.093  -8.863 -22.945  0.00  0.00    +0.007 C 
ATOM      8  C   UNL     1      30.959  -6.442 -22.570  0.00  0.00    +0.000 C 
ATOM      9  C   UNL     1      30.237  -5.510 -23.560  0.00  0.00    +0.002 C 
ATOM     10  C   UNL     1      34.263  -6.965 -24.651  0.00  0.00    +0.000 C 
ATOM     11  C   UNL     1      33.020  -4.358 -25.821  0.00  0.00    +0.003 C 
ATOM     12  C   UNL     1      30.645  -3.805 -25.466  0.00  0.00    +0.110 C 
ATOM     13  C   UNL     1      35.016  -7.897 -23.706  0.00  0.00    +0.000 C 
ATOM     14  C   UNL     1      31.895  -3.412 -26.278  0.00  0.00    +0.029 C 
ATOM     15  C   UNL     1      32.032  -9.172 -21.509  0.00  0.00    +0.008 C 
ATOM     16  C   UNL     1      31.737  -3.521 -23.194  0.00  0.00    +0.002 C 
ATOM     17  C   UNL     1      33.563  -7.281 -21.025  0.00  0.00    +0.000 C 
ATOM     18  C   UNL     1      33.568  -9.950 -23.902  0.00  0.00    +0.064 C 
ATOM     19  C   UNL     1      31.461 -10.205 -22.466  0.00  0.00    +0.065 C 
ATOM     20  C   UNL     1      32.585 -10.868 -23.219  0.00  0.00    +0.151 C 
ENDROOT
BRANCH  12  21
ATOM     21  O   UNL     1      29.874  -2.664 -25.142  0.00  0.00    -0.384 OA
ATOM     22  H   UNL     1      30.432  -2.015 -24.685  0.00  0.00    +0.210 HD
ENDBRANCH  12  21
TORSDOF 1
ENDMDL
MODEL 3
REMARK VINA RESULT:      -7.3     11.707     14.382
REMARK  Name = 11302
REMARK  1 active torsions:
REMARK  status: ('A' for Active; 'I' for Inactive)
REMARK    1  A    between atoms: C_12  and  O_21
REMARK                            x       y       z     vdW  Elec       q    Type
REMARK                         _______ _______ _______ _____ _____    ______ ____
ROOT
ATOM      1  O   UNL     1      35.265  -9.979 -26.295  0.00  0.00    -0.296 OA
ATOM      2  C   UNL     1      33.713 -15.299 -24.176  0.00  0.00    +0.000 C 
ATOM      3  C   UNL     1      34.060 -13.903 -23.565  0.00  0.00    +0.000 C 
ATOM      4  C   UNL     1      34.713 -16.330 -23.639  0.00  0.00    +0.002 C 
ATOM      5  C   UNL     1      34.674 -16.450 -22.103  0.00  0.00    +0.025 C 
ATOM      6  C   UNL     1      33.103 -12.775 -24.102  0.00  0.00    +0.001 C 
ATOM      7  C   UNL     1      33.138 -12.766 -25.668  0.00  0.00    +0.007 C 
ATOM      8  C   UNL     1      34.173 -13.960 -22.018  0.00  0.00    +0.000 C 
ATOM      9  C   UNL     1      35.080 -15.095 -21.510  0.00  0.00    +0.002 C 
ATOM     10  C   UNL     1      33.721 -15.256 -25.710  0.00  0.00    +0.000 C 
ATOM     11  C   UNL     1      34.615 -17.778 -24.112  0.00  0.00    +0.003 C 
ATOM     12  C   UNL     1      35.710 -17.574 -21.915  0.00  0.00    +0.110 C 
ATOM     13  C   UNL     1      32.827 -14.150 -26.263  0.00  0.00    +0.000 C 
ATOM     14  C   UNL     1      35.390 -18.571 -23.045  0.00  0.00    +0.029 C 
ATOM     15  C   UNL     1      33.500 -11.356 -23.598  0.00  0.00    +0.008 C 
ATOM     16  C   UNL     1      33.302 -16.879 -21.520  0.00  0.00    +0.002 C 
ATOM     17  C   UNL     1      31.646 -13.004 -23.622  0.00  0.00    +0.000 C 
ATOM     18  C   UNL     1      34.467 -12.237 -26.240  0.00  0.00    +0.064 C 
ATOM     19  C   UNL     1      34.843 -10.862 -24.111  0.00  0.00    +0.065 C 
ATOM     20  C   UNL     1      34.858 -10.920 -25.616  0.00  0.00    +0.151 C 
ENDROOT
BRANCH  12  21
ATOM     21  O   UNL     1      35.644 -18.206 -20.651  0.00  0.00    -0.384 OA
ATOM     22  H   UNL     1      36.087 -17.654 -19.989  0.00  0.00    +0.210 HD
ENDBRANCH  12  21
TORSDOF 1
ENDMDL
MODEL 4
REMARK VINA RESULT:      -6.8     19.391     21.793
REMARK  Name = 11302
REMARK  1 active torsions:
REMARK  status: ('A' for Active; 'I' for Inactive)
REMARK    1  A    between atoms: C_12  and  O_21
REMARK                            x       y       z     vdW  Elec       q    Type
REMARK                         _______ _______ _______ _____ _____    ______ ____
ROOT
ATOM      1  O   UNL     1      33.069  -7.297 -19.513  0.00  0.00    -0.296 OA
ATOM      2  C   UNL     1      31.931  -4.704 -24.727  0.00  0.00    +0.000 C 
ATOM      3  C   UNL     1      32.739  -5.953 -24.245  0.00  0.00    +0.000 C 
ATOM      4  C   UNL     1      32.894  -3.741 -25.431  0.00  0.00    +0.002 C 
ATOM      5  C   UNL     1      33.581  -4.376 -26.655  0.00  0.00    +0.025 C 
ATOM      6  C   UNL     1      31.829  -6.976 -23.471  0.00  0.00    +0.001 C 
ATOM      7  C   UNL     1      31.107  -6.241 -22.291  0.00  0.00    +0.007 C 
ATOM      8  C   UNL     1      33.573  -6.583 -25.393  0.00  0.00    +0.000 C 
ATOM      9  C   UNL     1      34.425  -5.560 -26.165  0.00  0.00    +0.002 C 
ATOM     10  C   UNL     1      31.207  -4.021 -23.559  0.00  0.00    +0.000 C 
ATOM     11  C   UNL     1      32.359  -2.417 -25.969  0.00  0.00    +0.003 C 
ATOM     12  C   UNL     1      34.393  -3.161 -27.143  0.00  0.00    +0.110 C 
ATOM     13  C   UNL     1      30.339  -4.996 -22.767  0.00  0.00    +0.000 C 
ATOM     14  C   UNL     1      33.419  -1.976 -26.994  0.00  0.00    +0.029 C 
ATOM     15  C   UNL     1      32.632  -8.172 -22.879  0.00  0.00    +0.008 C 
ATOM     16  C   UNL     1      32.612  -4.858 -27.766  0.00  0.00    +0.002 C 
ATOM     17  C   UNL     1      30.767  -7.602 -24.412  0.00  0.00    +0.000 C 
ATOM     18  C   UNL     1      32.060  -5.860 -21.142  0.00  0.00    +0.064 C 
ATOM     19  C   UNL     1      33.621  -7.786 -21.791  0.00  0.00    +0.065 C 
ATOM     20  C   UNL     1      32.900  -7.033 -20.702  0.00  0.00    +0.151 C 
ENDROOT
BRANCH  12  21
ATOM     21  O   UNL     1      34.847  -3.277 -28.478  0.00  0.00    -0.384 OA
ATOM     22  H   UNL     1      35.644  -3.829 -28.503  0.00  0.00    +0.210 HD
ENDBRANCH  12  21
TORSDOF 1
ENDMDL
MODEL 5
REMARK VINA RESULT:      -6.3      6.302      9.059
REMARK  Name = 11302
REMARK  1 active torsions:
REMARK  status: ('A' for Active; 'I' for Inactive)
REMARK    1  A    between atoms: C_12  and  O_21
REMARK                            x       y       z     vdW  Elec       q    Type
REMARK                         _______ _______ _______ _____ _____    ______ ____
ROOT
ATOM      1  O   UNL     1      34.410 -14.656 -21.789  0.00  0.00    -0.296 OA
ATOM      2  C   UNL     1      35.714 -20.301 -20.511  0.00  0.00    +0.000 C 
ATOM      3  C   UNL     1      34.427 -19.505 -20.903  0.00  0.00    +0.000 C 
ATOM      4  C   UNL     1      35.495 -20.938 -19.134  0.00  0.00    +0.002 C 
ATOM      5  C   UNL     1      34.299 -21.910 -19.113  0.00  0.00    +0.025 C 
ATOM      6  C   UNL     1      34.586 -18.781 -22.291  0.00  0.00    +0.001 C 
ATOM      7  C   UNL     1      35.862 -17.873 -22.260  0.00  0.00    +0.007 C 
ATOM      8  C   UNL     1      33.148 -20.376 -20.781  0.00  0.00    +0.000 C 
ATOM      9  C   UNL     1      33.031 -21.110 -19.433  0.00  0.00    +0.002 C 
ATOM     10  C   UNL     1      36.955 -19.398 -20.521  0.00  0.00    +0.000 C 
ATOM     11  C   UNL     1      36.624 -21.748 -18.501  0.00  0.00    +0.003 C 
ATOM     12  C   UNL     1      34.403 -22.401 -17.657  0.00  0.00    +0.110 C 
ATOM     13  C   UNL     1      37.120 -18.655 -21.844  0.00  0.00    +0.000 C 
ATOM     14  C   UNL     1      35.915 -22.606 -17.438  0.00  0.00    +0.029 C 
ATOM     15  C   UNL     1      33.362 -17.888 -22.650  0.00  0.00    +0.008 C 
ATOM     16  C   UNL     1      34.417 -23.105 -20.094  0.00  0.00    +0.002 C 
ATOM     17  C   UNL     1      34.715 -19.809 -23.446  0.00  0.00    +0.000 C 
ATOM     18  C   UNL     1      35.699 -16.630 -21.366  0.00  0.00    +0.064 C 
ATOM     19  C   UNL     1      33.163 -16.697 -21.726  0.00  0.00    +0.065 C 
ATOM     20  C   UNL     1      34.428 -15.880 -21.679  0.00  0.00    +0.151 C 
ENDROOT
BRANCH  12  21
ATOM     21  O   UNL     1      33.691 -23.597 -17.405  0.00  0.00    -0.384 OA
ATOM     22  H   UNL     1      33.002 -23.711 -18.078  0.00  0.00    +0.210 HD
ENDBRANCH  12  21
TORSDOF 1
ENDMDL
MODEL 6
REMARK VINA RESULT:      -6.1     15.392     18.151
REMARK  Name = 11302
REMARK  1 active torsions:
REMARK  status: ('A' for Active; 'I' for Inactive)
REMARK    1  A    between atoms: C_12  and  O_21
REMARK                            x       y       z     vdW  Elec       q    Type
REMARK                         _______ _______ _______ _____ _____    ______ ____
ROOT
ATOM      1  O   UNL     1      30.467  -4.604 -24.174  0.00  0.00    -0.296 OA
ATOM      2  C   UNL     1      32.790  -9.695 -22.202  0.00  0.00    +0.000 C 
ATOM      3  C   UNL     1      32.842  -8.876 -23.533  0.00  0.00    +0.000 C 
ATOM      4  C   UNL     1      32.198 -11.077 -22.500  0.00  0.00    +0.002 C 
ATOM      5  C   UNL     1      33.030 -11.870 -23.525  0.00  0.00    +0.025 C 
ATOM      6  C   UNL     1      33.400  -7.423 -23.305  0.00  0.00    +0.001 C 
ATOM      7  C   UNL     1      32.553  -6.708 -22.198  0.00  0.00    +0.007 C 
ATOM      8  C   UNL     1      33.551  -9.661 -24.669  0.00  0.00    +0.000 C 
ATOM      9  C   UNL     1      33.021 -11.094 -24.848  0.00  0.00    +0.002 C 
ATOM     10  C   UNL     1      31.984  -8.959 -21.123  0.00  0.00    +0.000 C 
ATOM     11  C   UNL     1      32.005 -12.066 -21.354  0.00  0.00    +0.003 C 
ATOM     12  C   UNL     1      32.222 -13.182 -23.540  0.00  0.00    +0.110 C 
ATOM     13  C   UNL     1      32.480  -7.532 -20.901  0.00  0.00    +0.000 C 
ATOM     14  C   UNL     1      31.885 -13.430 -22.057  0.00  0.00    +0.029 C 
ATOM     15  C   UNL     1      33.353  -6.549 -24.593  0.00  0.00    +0.008 C 
ATOM     16  C   UNL     1      34.495 -12.145 -23.099  0.00  0.00    +0.002 C 
ATOM     17  C   UNL     1      34.888  -7.458 -22.870  0.00  0.00    +0.000 C 
ATOM     18  C   UNL     1      31.131  -6.342 -22.665  0.00  0.00    +0.064 C 
ATOM     19  C   UNL     1      31.949  -6.243 -25.092  0.00  0.00    +0.065 C 
ATOM     20  C   UNL     1      31.150  -5.609 -23.984  0.00  0.00    +0.151 C 
ENDROOT
BRANCH  12  21
ATOM     21  O   UNL     1      32.926 -14.280 -24.088  0.00  0.00    -0.384 OA
ATOM     22  H   UNL     1      32.444 -14.622 -24.858  0.00  0.00    +0.210 HD
ENDBRANCH  12  21
TORSDOF 1
ENDMDL
MODEL 7
REMARK VINA RESULT:      -5.9      3.541      6.377
REMARK  Name = 11302
REMARK  1 active torsions:
REMARK  status: ('A' for Active; 'I' for Inactive)
REMARK    1  A    between atoms: C_12  and  O_21
REMARK                            x       y       z     vdW  Elec       q    Type
REMARK                         _______ _______ _______ _____ _____    ______ ____
ROOT
ATOM      1  O   UNL     1      33.648 -18.599 -21.133  0.00  0.00    -0.296 OA
ATOM      2  C   UNL     1      35.753 -22.710 -17.409  0.00  0.00    +0.000 C 
ATOM      3  C   UNL     1      34.347 -22.312 -17.967  0.00  0.00    +0.000 C 
ATOM      4  C   UNL     1      35.730 -22.572 -15.883  0.00  0.00    +0.002 C 
ATOM      5  C   UNL     1      34.672 -23.476 -15.221  0.00  0.00    +0.025 C 
ATOM      6  C   UNL     1      34.299 -22.384 -19.538  0.00  0.00    +0.001 C 
ATOM      7  C   UNL     1      35.449 -21.504 -20.135  0.00  0.00    +0.007 C 
ATOM      8  C   UNL     1      33.202 -23.083 -17.257  0.00  0.00    +0.000 C 
ATOM      9  C   UNL     1      33.290 -23.035 -15.721  0.00  0.00    +0.002 C 
ATOM     10  C   UNL     1      36.865 -21.857 -18.034  0.00  0.00    +0.000 C 
ATOM     11  C   UNL     1      37.000 -22.871 -15.090  0.00  0.00    +0.003 C 
ATOM     12  C   UNL     1      34.957 -23.151 -13.742  0.00  0.00    +0.110 C 
ATOM     13  C   UNL     1      36.825 -21.880 -19.559  0.00  0.00    +0.000 C 
ATOM     14  C   UNL     1      36.495 -23.115 -13.657  0.00  0.00    +0.029 C 
ATOM     15  C   UNL     1      32.947 -21.881 -20.124  0.00  0.00    +0.008 C 
ATOM     16  C   UNL     1      34.857 -24.993 -15.484  0.00  0.00    +0.002 C 
ATOM     17  C   UNL     1      34.460 -23.845 -20.035  0.00  0.00    +0.000 C 
ATOM     18  C   UNL     1      35.206 -19.993 -19.964  0.00  0.00    +0.064 C 
ATOM     19  C   UNL     1      32.677 -20.402 -19.896  0.00  0.00    +0.065 C 
ATOM     20  C   UNL     1      33.829 -19.593 -20.433  0.00  0.00    +0.151 C 
ENDROOT
BRANCH  12  21
ATOM     21  O   UNL     1      34.423 -24.098 -12.836  0.00  0.00    -0.384 OA
ATOM     22  H   UNL     1      34.828 -23.975 -11.963  0.00  0.00    +0.210 HD
ENDBRANCH  12  21
TORSDOF 1
ENDMDL
MODEL 8
REMARK VINA RESULT:      -5.8     12.134     14.876
REMARK  Name = 11302
REMARK  1 active torsions:
REMARK  status: ('A' for Active; 'I' for Inactive)
REMARK    1  A    between atoms: C_12  and  O_21
REMARK                            x       y       z     vdW  Elec       q    Type
REMARK                         _______ _______ _______ _____ _____    ______ ____
ROOT
ATOM      1  O   UNL     1      32.909  -7.246 -19.883  0.00  0.00    -0.296 OA
ATOM      2  C   UNL     1      32.677 -12.579 -22.472  0.00  0.00    +0.000 C 
ATOM      3  C   UNL     1      32.428 -12.015 -21.035  0.00  0.00    +0.000 C 
ATOM      4  C   UNL     1      33.806 -13.613 -22.403  0.00  0.00    +0.002 C 
ATOM      5  C   UNL     1      33.475 -14.793 -21.470  0.00  0.00    +0.025 C 
ATOM      6  C   UNL     1      31.308 -10.911 -21.026  0.00  0.00    +0.001 C 
ATOM      7  C   UNL     1      31.676  -9.787 -22.053  0.00  0.00    +0.007 C 
ATOM      8  C   UNL     1      32.216 -13.149 -19.996  0.00  0.00    +0.000 C 
ATOM      9  C   UNL     1      33.299 -14.241 -20.050  0.00  0.00    +0.002 C 
ATOM     10  C   UNL     1      33.003 -11.456 -23.466  0.00  0.00    +0.000 C 
ATOM     11  C   UNL     1      34.271 -14.294 -23.688  0.00  0.00    +0.003 C 
ATOM     12  C   UNL     1      34.744 -15.641 -21.680  0.00  0.00    +0.110 C 
ATOM     13  C   UNL     1      31.950 -10.352 -23.457  0.00  0.00    +0.000 C 
ATOM     14  C   UNL     1      35.004 -15.555 -23.197  0.00  0.00    +0.029 C 
ATOM     15  C   UNL     1      31.122 -10.251 -19.628  0.00  0.00    +0.008 C 
ATOM     16  C   UNL     1      32.214 -15.603 -21.869  0.00  0.00    +0.002 C 
ATOM     17  C   UNL     1      29.927 -11.513 -21.398  0.00  0.00    +0.000 C 
ATOM     18  C   UNL     1      32.865  -8.918 -21.598  0.00  0.00    +0.064 C 
ATOM     19  C   UNL     1      32.322  -9.448 -19.150  0.00  0.00    +0.065 C 
ATOM     20  C   UNL     1      32.680  -8.415 -20.187  0.00  0.00    +0.151 C 
ENDROOT
BRANCH  12  21
ATOM     21  O   UNL     1      34.607 -16.988 -21.268  0.00  0.00    -0.384 OA
ATOM     22  H   UNL     1      34.331 -17.531 -22.022  0.00  0.00    +0.210 HD
ENDBRANCH  12  21
TORSDOF 1
ENDMDL
MODEL 9
REMARK VINA RESULT:      -5.6     13.429     15.835
REMARK  Name = 11302
REMARK  1 active torsions:
REMARK  status: ('A' for Active; 'I' for Inactive)
REMARK    1  A    between atoms: C_12  and  O_21
REMARK                            x       y       z     vdW  Elec       q    Type
REMARK                         _______ _______ _______ _____ _____    ______ ____
ROOT
ATOM      1  O   UNL     1      34.827 -15.874 -20.560  0.00  0.00    -0.296 OA
ATOM      2  C   UNL     1      32.346 -10.817 -22.423  0.00  0.00    +0.000 C 
ATOM      3  C   UNL     1      33.391 -11.832 -22.989  0.00  0.00    +0.000 C 
ATOM      4  C   UNL     1      33.014  -9.442 -22.303  0.00  0.00    +0.002 C 
ATOM      5  C   UNL     1      33.522  -8.910 -23.657  0.00  0.00    +0.025 C 
ATOM      6  C   UNL     1      32.795 -13.284 -23.102  0.00  0.00    +0.001 C 
ATOM      7  C   UNL     1      32.230 -13.724 -21.709  0.00  0.00    +0.007 C 
ATOM      8  C   UNL     1      34.057 -11.312 -24.292  0.00  0.00    +0.000 C 
ATOM      9  C   UNL     1      34.596  -9.876 -24.175  0.00  0.00    +0.002 C 
ATOM     10  C   UNL     1      31.783 -11.287 -21.075  0.00  0.00    +0.000 C 
ATOM     11  C   UNL     1      32.213  -8.273 -21.738  0.00  0.00    +0.003 C 
ATOM     12  C   UNL     1      34.054  -7.538 -23.201  0.00  0.00    +0.110 C 
ATOM     13  C   UNL     1      31.226 -12.707 -21.143  0.00  0.00    +0.000 C 
ATOM     14  C   UNL     1      32.981  -7.029 -22.219  0.00  0.00    +0.029 C 
ATOM     15  C   UNL     1      33.850 -14.336 -23.554  0.00  0.00    +0.008 C 
ATOM     16  C   UNL     1      32.425  -8.730 -24.737  0.00  0.00    +0.002 C 
ATOM     17  C   UNL     1      31.660 -13.341 -24.158  0.00  0.00    +0.000 C 
ATOM     18  C   UNL     1      33.334 -14.005 -20.671  0.00  0.00    +0.064 C 
ATOM     19  C   UNL     1      34.975 -14.564 -22.557  0.00  0.00    +0.065 C 
ATOM     20  C   UNL     1      34.392 -14.930 -21.217  0.00  0.00    +0.151 C 
ENDROOT
BRANCH  12  21
ATOM     21  O   UNL     1      34.246  -6.619 -24.259  0.00  0.00    -0.384 OA
ATOM     22  H   UNL     1      33.509  -5.988 -24.278  0.00  0.00    +0.210 HD
ENDBRANCH  12  21
TORSDOF 1
ENDMDL
