MODEL 1
REMARK VINA RESULT:      -1.8      0.000      0.000
REMARK  Name = 24526
REMARK  0 active torsions:
REMARK  status: ('A' for Active; 'I' for Inactive)
REMARK                            x       y       z     vdW  Elec       q    Type
REMARK                         _______ _______ _______ _____ _____    ______ ____
ROOT
ATOM      1 CL   UNL     1      32.761 -19.945 -20.532  0.00  0.00    +0.000 Cl
ATOM      2 CL   UNL     1      33.410 -21.473 -19.395  0.00  0.00    +0.000 Cl
ENDROOT
TORSDOF 0
ENDMDL
MODEL 2
REMARK VINA RESULT:      -1.8      0.100      2.014
REMARK  Name = 24526
REMARK  0 active torsions:
REMARK  status: ('A' for Active; 'I' for Inactive)
REMARK                            x       y       z     vdW  Elec       q    Type
REMARK                         _______ _______ _______ _____ _____    ______ ____
ROOT
ATOM      1 CL   UNL     1      33.420 -21.395 -19.463  0.00  0.00    +0.000 Cl
ATOM      2 CL   UNL     1      32.718 -19.895 -20.605  0.00  0.00    +0.000 Cl
ENDROOT
TORSDOF 0
ENDMDL
MODEL 3
REMARK VINA RESULT:      -1.8     13.704     14.375
REMARK  Name = 24526
REMARK  0 active torsions:
REMARK  status: ('A' for Active; 'I' for Inactive)
REMARK                            x       y       z     vdW  Elec       q    Type
REMARK                         _______ _______ _______ _____ _____    ______ ____
ROOT
ATOM      1 CL   UNL     1      34.456  -6.526 -24.987  0.00  0.00    +0.000 Cl
ATOM      2 CL   UNL     1      34.901  -7.589 -23.338  0.00  0.00    +0.000 Cl
ENDROOT
TORSDOF 0
ENDMDL
MODEL 4
REMARK VINA RESULT:      -1.7      1.319      2.135
REMARK  Name = 24526
REMARK  0 active torsions:
REMARK  status: ('A' for Active; 'I' for Inactive)
REMARK                            x       y       z     vdW  Elec       q    Type
REMARK                         _______ _______ _______ _____ _____    ______ ____
ROOT
ATOM      1 CL   UNL     1      32.834 -20.205 -20.246  0.00  0.00    +0.000 Cl
ATOM      2 CL   UNL     1      34.221 -19.564 -21.554  0.00  0.00    +0.000 Cl
ENDROOT
TORSDOF 0
ENDMDL
MODEL 5
REMARK VINA RESULT:      -1.7     12.332     13.009
REMARK  Name = 24526
REMARK  0 active torsions:
REMARK  status: ('A' for Active; 'I' for Inactive)
REMARK                            x       y       z     vdW  Elec       q    Type
REMARK                         _______ _______ _______ _____ _____    ______ ____
ROOT
ATOM      1 CL   UNL     1      34.911  -7.593 -23.395  0.00  0.00    +0.000 Cl
ATOM      2 CL   UNL     1      35.021  -9.378 -24.316  0.00  0.00    +0.000 Cl
ENDROOT
TORSDOF 0
ENDMDL
MODEL 6
REMARK VINA RESULT:      -1.7     12.330     13.075
REMARK  Name = 24526
REMARK  0 active torsions:
REMARK  status: ('A' for Active; 'I' for Inactive)
REMARK                            x       y       z     vdW  Elec       q    Type
REMARK                         _______ _______ _______ _____ _____    ______ ____
ROOT
ATOM      1 CL   UNL     1      35.020  -9.379 -24.312  0.00  0.00    +0.000 Cl
ATOM      2 CL   UNL     1      34.910  -7.592 -23.394  0.00  0.00    +0.000 Cl
ENDROOT
TORSDOF 0
ENDMDL
MODEL 7
REMARK VINA RESULT:      -1.7     12.203     12.308
REMARK  Name = 24526
REMARK  0 active torsions:
REMARK  status: ('A' for Active; 'I' for Inactive)
REMARK                            x       y       z     vdW  Elec       q    Type
REMARK                         _______ _______ _______ _____ _____    ______ ____
ROOT
ATOM      1 CL   UNL     1      35.104  -9.584 -24.443  0.00  0.00    +0.000 Cl
ATOM      2 CL   UNL     1      35.653 -10.366 -26.213  0.00  0.00    +0.000 Cl
ENDROOT
TORSDOF 0
ENDMDL
MODEL 8
REMARK VINA RESULT:      -1.7      1.194      1.982
REMARK  Name = 24526
REMARK  0 active torsions:
REMARK  status: ('A' for Active; 'I' for Inactive)
REMARK                            x       y       z     vdW  Elec       q    Type
REMARK                         _______ _______ _______ _____ _____    ______ ____
ROOT
ATOM      1 CL   UNL     1      34.649 -20.704 -20.235  0.00  0.00    +0.000 Cl
ATOM      2 CL   UNL     1      32.777 -19.985 -20.400  0.00  0.00    +0.000 Cl
ENDROOT
TORSDOF 0
ENDMDL
MODEL 9
REMARK VINA RESULT:      -1.7     11.326     11.438
REMARK  Name = 24526
REMARK  0 active torsions:
REMARK  status: ('A' for Active; 'I' for Inactive)
REMARK                            x       y       z     vdW  Elec       q    Type
REMARK                         _______ _______ _______ _____ _____    ______ ____
ROOT
ATOM      1 CL   UNL     1      42.033 -12.633 -17.433  0.00  0.00    +0.000 Cl
ATOM      2 CL   UNL     1      41.102 -14.274 -18.132  0.00  0.00    +0.000 Cl
ENDROOT
TORSDOF 0
ENDMDL
