MODEL 1
REMARK VINA RESULT:      -9.1      0.000      0.000
REMARK  Name = 3382778
REMARK  7 active torsions:
REMARK  status: ('A' for Active; 'I' for Inactive)
REMARK    1  A    between atoms: N_2  and  C_7
REMARK    2  A    between atoms: C_4  and  C_18
REMARK    3  A    between atoms: C_7  and  C_11
REMARK    4  A    between atoms: C_18  and  C_19
REMARK    5  A    between atoms: C_19  and  O_20
REMARK    6  A    between atoms: O_20  and  P_21
REMARK    7  A    between atoms: P_21  and  O_24
REMARK                            x       y       z     vdW  Elec       q    Type
REMARK                         _______ _______ _______ _____ _____    ______ ____
ROOT
ATOM      1  S   UNL     1      36.981 -21.916 -16.459  0.00  0.00    -0.095 S 
ATOM      2  N   UNL     1      35.576 -22.138 -18.498  0.00  0.00    -0.297 N 
ATOM      3  C   UNL     1      34.797 -22.675 -17.513  0.00  0.00    +0.028 C 
ATOM      4  C   UNL     1      35.428 -22.636 -16.293  0.00  0.00    +0.016 C 
ATOM      5  C   UNL     1      36.747 -21.691 -18.137  0.00  0.00    +0.154 C 
ATOM      6  C   UNL     1      33.466 -23.196 -17.860  0.00  0.00    +0.047 C 
ENDROOT
BRANCH   2   7
ATOM      7  C   UNL     1      35.143 -22.056 -19.895  0.00  0.00    +0.124 C 
BRANCH   7  11
ATOM      8  N   UNL     1      33.727 -18.709 -20.932  0.00  0.00    -0.340 NA
ATOM      9  N   UNL     1      36.133 -18.572 -20.886  0.00  0.00    -0.186 NA
ATOM     10  N   UNL     1      32.636 -20.739 -20.373  0.00  0.00    -0.332 N 
ATOM     11  C   UNL     1      35.033 -20.635 -20.317  0.00  0.00    +0.062 C 
ATOM     12  C   UNL     1      33.831 -19.998 -20.548  0.00  0.00    +0.187 C 
ATOM     13  C   UNL     1      36.163 -19.864 -20.504  0.00  0.00    +0.111 C 
ATOM     14  C   UNL     1      34.901 -18.064 -21.081  0.00  0.00    +0.066 C 
ATOM     15  C   UNL     1      34.827 -16.637 -21.504  0.00  0.00    +0.129 C 
ATOM     16  H   UNL     1      31.764 -20.310 -20.530  0.00  0.00    +0.145 HD
ATOM     17  H   UNL     1      32.678 -21.681 -20.093  0.00  0.00    +0.145 HD
ENDBRANCH   7  11
ENDBRANCH   2   7
BRANCH   4  18
ATOM     18  C   UNL     1      34.963 -23.099 -14.971  0.00  0.00    +0.066 C 
BRANCH  18  19
ATOM     19  C   UNL     1      35.912 -24.119 -14.317  0.00  0.00    +0.159 C 
BRANCH  19  20
ATOM     20  O   UNL     1      35.703 -25.414 -14.866  0.00  0.00    -0.271 OA
BRANCH  20  21
ATOM     21  P   UNL     1      36.966 -26.441 -14.996  0.00  0.00    +0.503 P 
ATOM     22  O   UNL     1      36.744 -27.315 -16.211  0.00  0.00    -0.225 OA
ATOM     23  O   UNL     1      37.265 -27.061 -13.648  0.00  0.00    -0.116 OA
BRANCH  21  24
ATOM     24  O   UNL     1      38.151 -25.372 -15.350  0.00  0.00    -0.301 OA
ATOM     25  H   UNL     1      37.844 -24.769 -16.046  0.00  0.00    +0.222 HD
ENDBRANCH  21  24
ENDBRANCH  20  21
ENDBRANCH  19  20
ENDBRANCH  18  19
ENDBRANCH   4  18
TORSDOF 7
ENDMDL
MODEL 2
REMARK VINA RESULT:      -9.1      1.610      1.974
REMARK  Name = 3382778
REMARK  7 active torsions:
REMARK  status: ('A' for Active; 'I' for Inactive)
REMARK    1  A    between atoms: N_2  and  C_7
REMARK    2  A    between atoms: C_4  and  C_18
REMARK    3  A    between atoms: C_7  and  C_11
REMARK    4  A    between atoms: C_18  and  C_19
REMARK    5  A    between atoms: C_19  and  O_20
REMARK    6  A    between atoms: O_20  and  P_21
REMARK    7  A    between atoms: P_21  and  O_24
REMARK                            x       y       z     vdW  Elec       q    Type
REMARK                         _______ _______ _______ _____ _____    ______ ____
ROOT
ATOM      1  S   UNL     1      36.987 -21.891 -16.479  0.00  0.00    -0.095 S 
ATOM      2  N   UNL     1      35.557 -22.124 -18.499  0.00  0.00    -0.297 N 
ATOM      3  C   UNL     1      34.789 -22.653 -17.502  0.00  0.00    +0.028 C 
ATOM      4  C   UNL     1      35.435 -22.607 -16.290  0.00  0.00    +0.016 C 
ATOM      5  C   UNL     1      36.733 -21.676 -18.156  0.00  0.00    +0.154 C 
ATOM      6  C   UNL     1      33.454 -23.175 -17.829  0.00  0.00    +0.047 C 
ENDROOT
BRANCH   2   7
ATOM      7  C   UNL     1      35.107 -22.051 -19.891  0.00  0.00    +0.124 C 
BRANCH   7  11
ATOM      8  N   UNL     1      33.720 -18.701 -20.960  0.00  0.00    -0.340 NA
ATOM      9  N   UNL     1      36.126 -18.584 -20.913  0.00  0.00    -0.186 NA
ATOM     10  N   UNL     1      32.612 -20.718 -20.383  0.00  0.00    -0.332 N 
ATOM     11  C   UNL     1      35.009 -20.633 -20.327  0.00  0.00    +0.062 C 
ATOM     12  C   UNL     1      33.813 -19.988 -20.564  0.00  0.00    +0.187 C 
ATOM     13  C   UNL     1      36.146 -19.873 -20.519  0.00  0.00    +0.111 C 
ATOM     14  C   UNL     1      34.899 -18.068 -21.113  0.00  0.00    +0.066 C 
ATOM     15  C   UNL     1      34.837 -16.644 -21.549  0.00  0.00    +0.129 C 
ATOM     16  H   UNL     1      31.743 -20.283 -20.545  0.00  0.00    +0.145 HD
ATOM     17  H   UNL     1      32.646 -21.658 -20.094  0.00  0.00    +0.145 HD
ENDBRANCH   7  11
ENDBRANCH   2   7
BRANCH   4  18
ATOM     18  C   UNL     1      34.986 -23.061 -14.959  0.00  0.00    +0.066 C 
BRANCH  18  19
ATOM     19  C   UNL     1      36.135 -23.574 -14.072  0.00  0.00    +0.159 C 
BRANCH  19  20
ATOM     20  O   UNL     1      35.761 -23.529 -12.700  0.00  0.00    -0.271 OA
BRANCH  20  21
ATOM     21  P   UNL     1      36.323 -24.674 -11.681  0.00  0.00    +0.503 P 
ATOM     22  O   UNL     1      35.249 -24.962 -10.654  0.00  0.00    -0.225 OA
ATOM     23  O   UNL     1      37.729 -24.328 -11.244  0.00  0.00    -0.116 OA
BRANCH  21  24
ATOM     24  O   UNL     1      36.394 -25.942 -12.709  0.00  0.00    -0.301 OA
ATOM     25  H   UNL     1      35.524 -26.368 -12.758  0.00  0.00    +0.222 HD
ENDBRANCH  21  24
ENDBRANCH  20  21
ENDBRANCH  19  20
ENDBRANCH  18  19
ENDBRANCH   4  18
TORSDOF 7
ENDMDL
MODEL 3
REMARK VINA RESULT:      -8.7      2.727      4.128
REMARK  Name = 3382778
REMARK  7 active torsions:
REMARK  status: ('A' for Active; 'I' for Inactive)
REMARK    1  A    between atoms: N_2  and  C_7
REMARK    2  A    between atoms: C_4  and  C_18
REMARK    3  A    between atoms: C_7  and  C_11
REMARK    4  A    between atoms: C_18  and  C_19
REMARK    5  A    between atoms: C_19  and  O_20
REMARK    6  A    between atoms: O_20  and  P_21
REMARK    7  A    between atoms: P_21  and  O_24
REMARK                            x       y       z     vdW  Elec       q    Type
REMARK                         _______ _______ _______ _____ _____    ______ ____
ROOT
ATOM      1  S   UNL     1      32.839 -20.637 -20.188  0.00  0.00    -0.095 S 
ATOM      2  N   UNL     1      34.997 -19.546 -20.763  0.00  0.00    -0.297 N 
ATOM      3  C   UNL     1      35.379 -20.704 -20.148  0.00  0.00    +0.028 C 
ATOM      4  C   UNL     1      34.293 -21.447 -19.754  0.00  0.00    +0.016 C 
ATOM      5  C   UNL     1      33.715 -19.339 -20.875  0.00  0.00    +0.154 C 
ATOM      6  C   UNL     1      36.813 -20.991 -19.992  0.00  0.00    +0.047 C 
ENDROOT
BRANCH   2   7
ATOM      7  C   UNL     1      35.959 -18.569 -21.280  0.00  0.00    +0.124 C 
BRANCH   7  11
ATOM      8  N   UNL     1      34.290 -15.848 -23.303  0.00  0.00    -0.340 NA
ATOM      9  N   UNL     1      34.790 -17.713 -24.744  0.00  0.00    -0.186 NA
ATOM     10  N   UNL     1      34.853 -15.933 -21.001  0.00  0.00    -0.332 N 
ATOM     11  C   UNL     1      35.364 -17.808 -22.409  0.00  0.00    +0.062 C 
ATOM     12  C   UNL     1      34.831 -16.541 -22.280  0.00  0.00    +0.187 C 
ATOM     13  C   UNL     1      35.315 -18.350 -23.678  0.00  0.00    +0.111 C 
ATOM     14  C   UNL     1      34.302 -16.485 -24.490  0.00  0.00    +0.066 C 
ATOM     15  C   UNL     1      33.713 -15.749 -25.646  0.00  0.00    +0.129 C 
ATOM     16  H   UNL     1      34.480 -15.030 -20.879  0.00  0.00    +0.145 HD
ATOM     17  H   UNL     1      35.241 -16.413 -20.234  0.00  0.00    +0.145 HD
ENDBRANCH   7  11
ENDBRANCH   2   7
BRANCH   4  18
ATOM     18  C   UNL     1      34.237 -22.751 -19.063  0.00  0.00    +0.066 C 
BRANCH  18  19
ATOM     19  C   UNL     1      34.395 -22.636 -17.536  0.00  0.00    +0.159 C 
BRANCH  19  20
ATOM     20  O   UNL     1      35.770 -22.683 -17.175  0.00  0.00    -0.271 OA
BRANCH  20  21
ATOM     21  P   UNL     1      36.186 -23.166 -15.673  0.00  0.00    +0.503 P 
ATOM     22  O   UNL     1      37.463 -22.454 -15.281  0.00  0.00    -0.225 OA
ATOM     23  O   UNL     1      36.086 -24.672 -15.571  0.00  0.00    -0.116 OA
BRANCH  21  24
ATOM     24  O   UNL     1      34.956 -22.504 -14.824  0.00  0.00    -0.301 OA
ATOM     25  H   UNL     1      34.544 -23.184 -14.269  0.00  0.00    +0.222 HD
ENDBRANCH  21  24
ENDBRANCH  20  21
ENDBRANCH  19  20
ENDBRANCH  18  19
ENDBRANCH   4  18
TORSDOF 7
ENDMDL
MODEL 4
REMARK VINA RESULT:      -8.7      6.273      8.149
REMARK  Name = 3382778
REMARK  7 active torsions:
REMARK  status: ('A' for Active; 'I' for Inactive)
REMARK    1  A    between atoms: N_2  and  C_7
REMARK    2  A    between atoms: C_4  and  C_18
REMARK    3  A    between atoms: C_7  and  C_11
REMARK    4  A    between atoms: C_18  and  C_19
REMARK    5  A    between atoms: C_19  and  O_20
REMARK    6  A    between atoms: O_20  and  P_21
REMARK    7  A    between atoms: P_21  and  O_24
REMARK                            x       y       z     vdW  Elec       q    Type
REMARK                         _______ _______ _______ _____ _____    ______ ____
ROOT
ATOM      1  S   UNL     1      34.607 -22.764 -16.793  0.00  0.00    -0.095 S 
ATOM      2  N   UNL     1      34.798 -23.949 -14.616  0.00  0.00    -0.297 N 
ATOM      3  C   UNL     1      33.477 -24.079 -14.936  0.00  0.00    +0.028 C 
ATOM      4  C   UNL     1      33.185 -23.470 -16.132  0.00  0.00    +0.016 C 
ATOM      5  C   UNL     1      35.542 -23.296 -15.464  0.00  0.00    +0.154 C 
ATOM      6  C   UNL     1      32.588 -24.806 -14.017  0.00  0.00    +0.047 C 
ENDROOT
BRANCH   2   7
ATOM      7  C   UNL     1      35.376 -24.507 -13.391  0.00  0.00    +0.124 C 
BRANCH   7  11
ATOM      8  N   UNL     1      38.343 -26.516 -14.594  0.00  0.00    -0.340 NA
ATOM      9  N   UNL     1      39.129 -24.622 -13.328  0.00  0.00    -0.186 NA
ATOM     10  N   UNL     1      36.017 -26.861 -14.905  0.00  0.00    -0.332 N 
ATOM     11  C   UNL     1      36.767 -24.966 -13.640  0.00  0.00    +0.062 C 
ATOM     12  C   UNL     1      37.080 -26.096 -14.367  0.00  0.00    +0.187 C 
ATOM     13  C   UNL     1      37.843 -24.260 -13.140  0.00  0.00    +0.111 C 
ATOM     14  C   UNL     1      39.304 -25.743 -14.053  0.00  0.00    +0.066 C 
ATOM     15  C   UNL     1      40.712 -26.174 -14.283  0.00  0.00    +0.129 C 
ATOM     16  H   UNL     1      36.210 -27.673 -15.428  0.00  0.00    +0.145 HD
ATOM     17  H   UNL     1      35.085 -26.582 -14.758  0.00  0.00    +0.145 HD
ENDBRANCH   7  11
ENDBRANCH   2   7
BRANCH   4  18
ATOM     18  C   UNL     1      31.901 -23.364 -16.853  0.00  0.00    +0.066 C 
BRANCH  18  19
ATOM     19  C   UNL     1      30.789 -22.703 -16.020  0.00  0.00    +0.159 C 
BRANCH  19  20
ATOM     20  O   UNL     1      29.695 -22.338 -16.853  0.00  0.00    -0.271 OA
BRANCH  20  21
ATOM     21  P   UNL     1      28.218 -22.967 -16.554  0.00  0.00    +0.503 P 
ATOM     22  O   UNL     1      27.788 -23.764 -17.767  0.00  0.00    -0.225 OA
ATOM     23  O   UNL     1      27.313 -21.902 -15.975  0.00  0.00    -0.116 OA
BRANCH  21  24
ATOM     24  O   UNL     1      28.607 -24.022 -15.367  0.00  0.00    -0.301 OA
ATOM     25  H   UNL     1      27.890 -24.666 -15.259  0.00  0.00    +0.222 HD
ENDBRANCH  21  24
ENDBRANCH  20  21
ENDBRANCH  19  20
ENDBRANCH  18  19
ENDBRANCH   4  18
TORSDOF 7
ENDMDL
MODEL 5
REMARK VINA RESULT:      -8.7      8.496     10.580
REMARK  Name = 3382778
REMARK  7 active torsions:
REMARK  status: ('A' for Active; 'I' for Inactive)
REMARK    1  A    between atoms: N_2  and  C_7
REMARK    2  A    between atoms: C_4  and  C_18
REMARK    3  A    between atoms: C_7  and  C_11
REMARK    4  A    between atoms: C_18  and  C_19
REMARK    5  A    between atoms: C_19  and  O_20
REMARK    6  A    between atoms: O_20  and  P_21
REMARK    7  A    between atoms: P_21  and  O_24
REMARK                            x       y       z     vdW  Elec       q    Type
REMARK                         _______ _______ _______ _____ _____    ______ ____
ROOT
ATOM      1  S   UNL     1      34.352 -15.150 -20.840  0.00  0.00    -0.095 S 
ATOM      2  N   UNL     1      35.063 -17.190 -22.070  0.00  0.00    -0.297 N 
ATOM      3  C   UNL     1      34.835 -16.282 -23.063  0.00  0.00    +0.028 C 
ATOM      4  C   UNL     1      34.426 -15.072 -22.556  0.00  0.00    +0.016 C 
ATOM      5  C   UNL     1      34.864 -16.781 -20.847  0.00  0.00    +0.154 C 
ATOM      6  C   UNL     1      35.042 -16.686 -24.462  0.00  0.00    +0.047 C 
ENDROOT
BRANCH   2   7
ATOM      7  C   UNL     1      35.508 -18.560 -22.335  0.00  0.00    +0.124 C 
BRANCH   7  11
ATOM      8  N   UNL     1      35.060 -20.991 -19.476  0.00  0.00    -0.340 NA
ATOM      9  N   UNL     1      32.932 -20.625 -20.545  0.00  0.00    -0.186 NA
ATOM     10  N   UNL     1      37.002 -19.886 -20.272  0.00  0.00    -0.332 N 
ATOM     11  C   UNL     1      34.898 -19.499 -21.358  0.00  0.00    +0.062 C 
ATOM     12  C   UNL     1      35.611 -20.138 -20.365  0.00  0.00    +0.187 C 
ATOM     13  C   UNL     1      33.547 -19.783 -21.400  0.00  0.00    +0.111 C 
ATOM     14  C   UNL     1      33.735 -21.186 -19.622  0.00  0.00    +0.066 C 
ATOM     15  C   UNL     1      33.090 -22.123 -18.658  0.00  0.00    +0.129 C 
ATOM     16  H   UNL     1      37.536 -20.328 -19.572  0.00  0.00    +0.145 HD
ATOM     17  H   UNL     1      37.433 -19.268 -20.904  0.00  0.00    +0.145 HD
ENDBRANCH   7  11
ENDBRANCH   2   7
BRANCH   4  18
ATOM     18  C   UNL     1      34.075 -13.821 -23.257  0.00  0.00    +0.066 C 
BRANCH  18  19
ATOM     19  C   UNL     1      32.914 -13.988 -24.254  0.00  0.00    +0.159 C 
BRANCH  19  20
ATOM     20  O   UNL     1      33.185 -13.278 -25.456  0.00  0.00    -0.271 OA
BRANCH  20  21
ATOM     21  P   UNL     1      33.003 -14.036 -26.891  0.00  0.00    +0.503 P 
ATOM     22  O   UNL     1      32.765 -15.506 -26.623  0.00  0.00    -0.225 OA
ATOM     23  O   UNL     1      34.091 -13.596 -27.845  0.00  0.00    -0.116 OA
BRANCH  21  24
ATOM     24  O   UNL     1      31.589 -13.372 -27.372  0.00  0.00    -0.301 OA
ATOM     25  H   UNL     1      31.055 -13.150 -26.593  0.00  0.00    +0.222 HD
ENDBRANCH  21  24
ENDBRANCH  20  21
ENDBRANCH  19  20
ENDBRANCH  18  19
ENDBRANCH   4  18
TORSDOF 7
ENDMDL
MODEL 6
REMARK VINA RESULT:      -8.6      8.801     10.865
REMARK  Name = 3382778
REMARK  7 active torsions:
REMARK  status: ('A' for Active; 'I' for Inactive)
REMARK    1  A    between atoms: N_2  and  C_7
REMARK    2  A    between atoms: C_4  and  C_18
REMARK    3  A    between atoms: C_7  and  C_11
REMARK    4  A    between atoms: C_18  and  C_19
REMARK    5  A    between atoms: C_19  and  O_20
REMARK    6  A    between atoms: O_20  and  P_21
REMARK    7  A    between atoms: P_21  and  O_24
REMARK                            x       y       z     vdW  Elec       q    Type
REMARK                         _______ _______ _______ _____ _____    ______ ____
ROOT
ATOM      1  S   UNL     1      34.027 -15.036 -21.384  0.00  0.00    -0.095 S 
ATOM      2  N   UNL     1      35.013 -17.146 -22.255  0.00  0.00    -0.297 N 
ATOM      3  C   UNL     1      34.503 -16.547 -23.371  0.00  0.00    +0.028 C 
ATOM      4  C   UNL     1      33.908 -15.345 -23.071  0.00  0.00    +0.016 C 
ATOM      5  C   UNL     1      34.861 -16.507 -21.128  0.00  0.00    +0.154 C 
ATOM      6  C   UNL     1      34.644 -17.220 -24.671  0.00  0.00    +0.047 C 
ENDROOT
BRANCH   2   7
ATOM      7  C   UNL     1      35.701 -18.438 -22.293  0.00  0.00    +0.124 C 
BRANCH   7  11
ATOM      8  N   UNL     1      35.126 -20.939 -19.519  0.00  0.00    -0.340 NA
ATOM      9  N   UNL     1      33.044 -20.531 -20.661  0.00  0.00    -0.186 NA
ATOM     10  N   UNL     1      37.104 -19.826 -20.207  0.00  0.00    -0.332 N 
ATOM     11  C   UNL     1      35.047 -19.398 -21.366  0.00  0.00    +0.062 C 
ATOM     12  C   UNL     1      35.717 -20.067 -20.362  0.00  0.00    +0.187 C 
ATOM     13  C   UNL     1      33.698 -19.672 -21.469  0.00  0.00    +0.111 C 
ATOM     14  C   UNL     1      33.807 -21.122 -19.722  0.00  0.00    +0.066 C 
ATOM     15  C   UNL     1      33.119 -22.078 -18.809  0.00  0.00    +0.129 C 
ATOM     16  H   UNL     1      37.608 -20.289 -19.499  0.00  0.00    +0.145 HD
ATOM     17  H   UNL     1      37.564 -19.195 -20.806  0.00  0.00    +0.145 HD
ENDBRANCH   7  11
ENDBRANCH   2   7
BRANCH   4  18
ATOM     18  C   UNL     1      33.237 -14.373 -23.957  0.00  0.00    +0.066 C 
BRANCH  18  19
ATOM     19  C   UNL     1      32.880 -13.053 -23.250  0.00  0.00    +0.159 C 
BRANCH  19  20
ATOM     20  O   UNL     1      33.966 -12.139 -23.327  0.00  0.00    -0.271 OA
BRANCH  20  21
ATOM     21  P   UNL     1      33.922 -10.936 -24.430  0.00  0.00    +0.503 P 
ATOM     22  O   UNL     1      32.833  -9.964 -24.029  0.00  0.00    -0.225 OA
ATOM     23  O   UNL     1      33.956 -11.517 -25.827  0.00  0.00    -0.116 OA
BRANCH  21  24
ATOM     24  O   UNL     1      35.366 -10.233 -24.125  0.00  0.00    -0.301 OA
ATOM     25  H   UNL     1      35.549 -10.271 -23.173  0.00  0.00    +0.222 HD
ENDBRANCH  21  24
ENDBRANCH  20  21
ENDBRANCH  19  20
ENDBRANCH  18  19
ENDBRANCH   4  18
TORSDOF 7
ENDMDL
MODEL 7
REMARK VINA RESULT:      -8.6      8.181     10.417
REMARK  Name = 3382778
REMARK  7 active torsions:
REMARK  status: ('A' for Active; 'I' for Inactive)
REMARK    1  A    between atoms: N_2  and  C_7
REMARK    2  A    between atoms: C_4  and  C_18
REMARK    3  A    between atoms: C_7  and  C_11
REMARK    4  A    between atoms: C_18  and  C_19
REMARK    5  A    between atoms: C_19  and  O_20
REMARK    6  A    between atoms: O_20  and  P_21
REMARK    7  A    between atoms: P_21  and  O_24
REMARK                            x       y       z     vdW  Elec       q    Type
REMARK                         _______ _______ _______ _____ _____    ______ ____
ROOT
ATOM      1  S   UNL     1      34.413 -15.016 -20.869  0.00  0.00    -0.095 S 
ATOM      2  N   UNL     1      35.014 -17.062 -22.147  0.00  0.00    -0.297 N 
ATOM      3  C   UNL     1      34.637 -16.178 -23.118  0.00  0.00    +0.028 C 
ATOM      4  C   UNL     1      34.265 -14.969 -22.581  0.00  0.00    +0.016 C 
ATOM      5  C   UNL     1      34.963 -16.635 -20.916  0.00  0.00    +0.154 C 
ATOM      6  C   UNL     1      34.673 -16.604 -24.525  0.00  0.00    +0.047 C 
ENDROOT
BRANCH   2   7
ATOM      7  C   UNL     1      35.457 -18.426 -22.447  0.00  0.00    +0.124 C 
BRANCH   7  11
ATOM      8  N   UNL     1      35.105 -20.869 -19.585  0.00  0.00    -0.340 NA
ATOM      9  N   UNL     1      32.957 -20.562 -20.632  0.00  0.00    -0.186 NA
ATOM     10  N   UNL     1      37.008 -19.710 -20.399  0.00  0.00    -0.332 N 
ATOM     11  C   UNL     1      34.883 -19.382 -21.464  0.00  0.00    +0.062 C 
ATOM     12  C   UNL     1      35.624 -20.001 -20.478  0.00  0.00    +0.187 C 
ATOM     13  C   UNL     1      33.541 -19.703 -21.493  0.00  0.00    +0.111 C 
ATOM     14  C   UNL     1      33.785 -21.101 -19.718  0.00  0.00    +0.066 C 
ATOM     15  C   UNL     1      33.176 -22.055 -18.748  0.00  0.00    +0.129 C 
ATOM     16  H   UNL     1      37.561 -20.137 -19.705  0.00  0.00    +0.145 HD
ATOM     17  H   UNL     1      37.416 -19.080 -21.035  0.00  0.00    +0.145 HD
ENDBRANCH   7  11
ENDBRANCH   2   7
BRANCH   4  18
ATOM     18  C   UNL     1      33.794 -13.740 -23.251  0.00  0.00    +0.066 C 
BRANCH  18  19
ATOM     19  C   UNL     1      32.400 -13.288 -22.779  0.00  0.00    +0.159 C 
BRANCH  19  20
ATOM     20  O   UNL     1      32.389 -11.887 -22.536  0.00  0.00    -0.271 OA
BRANCH  20  21
ATOM     21  P   UNL     1      31.645 -11.313 -21.201  0.00  0.00    +0.503 P 
ATOM     22  O   UNL     1      31.917  -9.827 -21.107  0.00  0.00    -0.225 OA
ATOM     23  O   UNL     1      31.928 -12.221 -20.024  0.00  0.00    -0.116 OA
BRANCH  21  24
ATOM     24  O   UNL     1      30.086 -11.515 -21.651  0.00  0.00    -0.301 OA
ATOM     25  H   UNL     1      29.864 -12.459 -21.631  0.00  0.00    +0.222 HD
ENDBRANCH  21  24
ENDBRANCH  20  21
ENDBRANCH  19  20
ENDBRANCH  18  19
ENDBRANCH   4  18
TORSDOF 7
ENDMDL
MODEL 8
REMARK VINA RESULT:      -8.4      1.215      2.109
REMARK  Name = 3382778
REMARK  7 active torsions:
REMARK  status: ('A' for Active; 'I' for Inactive)
REMARK    1  A    between atoms: N_2  and  C_7
REMARK    2  A    between atoms: C_4  and  C_18
REMARK    3  A    between atoms: C_7  and  C_11
REMARK    4  A    between atoms: C_18  and  C_19
REMARK    5  A    between atoms: C_19  and  O_20
REMARK    6  A    between atoms: O_20  and  P_21
REMARK    7  A    between atoms: P_21  and  O_24
REMARK                            x       y       z     vdW  Elec       q    Type
REMARK                         _______ _______ _______ _____ _____    ______ ____
ROOT
ATOM      1  S   UNL     1      33.260 -23.167 -17.597  0.00  0.00    -0.095 S 
ATOM      2  N   UNL     1      35.046 -22.179 -19.015  0.00  0.00    -0.297 N 
ATOM      3  C   UNL     1      35.619 -22.239 -17.776  0.00  0.00    +0.028 C 
ATOM      4  C   UNL     1      34.756 -22.769 -16.848  0.00  0.00    +0.016 C 
ATOM      5  C   UNL     1      33.823 -22.618 -19.115  0.00  0.00    +0.154 C 
ATOM      6  C   UNL     1      36.997 -21.757 -17.602  0.00  0.00    +0.047 C 
ENDROOT
BRANCH   2   7
ATOM      7  C   UNL     1      35.749 -21.653 -20.188  0.00  0.00    +0.124 C 
BRANCH   7  11
ATOM      8  N   UNL     1      35.678 -17.960 -20.989  0.00  0.00    -0.340 NA
ATOM      9  N   UNL     1      33.420 -18.797 -20.908  0.00  0.00    -0.186 NA
ATOM     10  N   UNL     1      37.506 -19.418 -20.593  0.00  0.00    -0.332 N 
ATOM     11  C   UNL     1      35.270 -20.283 -20.505  0.00  0.00    +0.062 C 
ATOM     12  C   UNL     1      36.110 -19.206 -20.701  0.00  0.00    +0.187 C 
ATOM     13  C   UNL     1      33.920 -20.016 -20.623  0.00  0.00    +0.111 C 
ATOM     14  C   UNL     1      34.340 -17.829 -21.076  0.00  0.00    +0.066 C 
ATOM     15  C   UNL     1      33.825 -16.467 -21.393  0.00  0.00    +0.129 C 
ATOM     16  H   UNL     1      38.130 -18.668 -20.728  0.00  0.00    +0.145 HD
ATOM     17  H   UNL     1      37.853 -20.315 -20.385  0.00  0.00    +0.145 HD
ENDBRANCH   7  11
ENDBRANCH   2   7
BRANCH   4  18
ATOM     18  C   UNL     1      34.952 -23.017 -15.405  0.00  0.00    +0.066 C 
BRANCH  18  19
ATOM     19  C   UNL     1      35.123 -24.507 -15.062  0.00  0.00    +0.159 C 
BRANCH  19  20
ATOM     20  O   UNL     1      36.455 -24.769 -14.638  0.00  0.00    -0.271 OA
BRANCH  20  21
ATOM     21  P   UNL     1      37.082 -26.262 -14.849  0.00  0.00    +0.503 P 
ATOM     22  O   UNL     1      36.273 -26.971 -15.913  0.00  0.00    -0.225 OA
ATOM     23  O   UNL     1      37.320 -26.914 -13.505  0.00  0.00    -0.116 OA
BRANCH  21  24
ATOM     24  O   UNL     1      38.528 -25.860 -15.496  0.00  0.00    -0.301 OA
ATOM     25  H   UNL     1      39.160 -25.673 -14.784  0.00  0.00    +0.222 HD
ENDBRANCH  21  24
ENDBRANCH  20  21
ENDBRANCH  19  20
ENDBRANCH  18  19
ENDBRANCH   4  18
TORSDOF 7
ENDMDL
MODEL 9
REMARK VINA RESULT:      -8.3      4.925      6.343
REMARK  Name = 3382778
REMARK  7 active torsions:
REMARK  status: ('A' for Active; 'I' for Inactive)
REMARK    1  A    between atoms: N_2  and  C_7
REMARK    2  A    between atoms: C_4  and  C_18
REMARK    3  A    between atoms: C_7  and  C_11
REMARK    4  A    between atoms: C_18  and  C_19
REMARK    5  A    between atoms: C_19  and  O_20
REMARK    6  A    between atoms: O_20  and  P_21
REMARK    7  A    between atoms: P_21  and  O_24
REMARK                            x       y       z     vdW  Elec       q    Type
REMARK                         _______ _______ _______ _____ _____    ______ ____
ROOT
ATOM      1  S   UNL     1      34.147 -23.213 -16.947  0.00  0.00    -0.095 S 
ATOM      2  N   UNL     1      32.899 -23.918 -14.917  0.00  0.00    -0.297 N 
ATOM      3  C   UNL     1      34.190 -23.829 -14.482  0.00  0.00    +0.028 C 
ATOM      4  C   UNL     1      35.037 -23.444 -15.493  0.00  0.00    +0.016 C 
ATOM      5  C   UNL     1      32.683 -23.634 -16.171  0.00  0.00    +0.154 C 
ATOM      6  C   UNL     1      34.494 -24.138 -13.077  0.00  0.00    +0.047 C 
ENDROOT
BRANCH   2   7
ATOM      7  C   UNL     1      31.793 -24.309 -14.039  0.00  0.00    +0.124 C 
BRANCH   7  11
ATOM      8  N   UNL     1      28.285 -24.165 -15.439  0.00  0.00    -0.340 NA
ATOM      9  N   UNL     1      29.142 -21.924 -15.218  0.00  0.00    -0.186 NA
ATOM     10  N   UNL     1      29.620 -26.022 -14.811  0.00  0.00    -0.332 N 
ATOM     11  C   UNL     1      30.503 -23.803 -14.578  0.00  0.00    +0.062 C 
ATOM     12  C   UNL     1      29.457 -24.622 -14.950  0.00  0.00    +0.187 C 
ATOM     13  C   UNL     1      30.287 -22.449 -14.735  0.00  0.00    +0.111 C 
ATOM     14  C   UNL     1      28.197 -22.826 -15.546  0.00  0.00    +0.066 C 
ATOM     15  C   UNL     1      26.917 -22.283 -16.083  0.00  0.00    +0.129 C 
ATOM     16  H   UNL     1      28.890 -26.631 -15.068  0.00  0.00    +0.145 HD
ATOM     17  H   UNL     1      30.463 -26.386 -14.456  0.00  0.00    +0.145 HD
ENDBRANCH   7  11
ENDBRANCH   2   7
BRANCH   4  18
ATOM     18  C   UNL     1      36.497 -23.224 -15.475  0.00  0.00    +0.066 C 
BRANCH  18  19
ATOM     19  C   UNL     1      37.296 -24.480 -15.086  0.00  0.00    +0.159 C 
BRANCH  19  20
ATOM     20  O   UNL     1      38.687 -24.189 -15.037  0.00  0.00    -0.271 OA
BRANCH  20  21
ATOM     21  P   UNL     1      39.741 -25.380 -14.670  0.00  0.00    +0.503 P 
ATOM     22  O   UNL     1      38.966 -26.529 -14.062  0.00  0.00    -0.225 OA
ATOM     23  O   UNL     1      40.942 -24.801 -13.954  0.00  0.00    -0.116 OA
BRANCH  21  24
ATOM     24  O   UNL     1      40.195 -25.816 -16.178  0.00  0.00    -0.301 OA
ATOM     25  H   UNL     1      39.892 -25.148 -16.813  0.00  0.00    +0.222 HD
ENDBRANCH  21  24
ENDBRANCH  20  21
ENDBRANCH  19  20
ENDBRANCH  18  19
ENDBRANCH   4  18
TORSDOF 7
ENDMDL
