MODEL 1
REMARK VINA RESULT:      -8.2      0.000      0.000
REMARK  Name = 4883
REMARK  8 active torsions:
REMARK  status: ('A' for Active; 'I' for Inactive)
REMARK    1  A    between atoms: O_1  and  C_2
REMARK    2  A    between atoms: O_1  and  C_13
REMARK    3  A    between atoms: C_5  and  N_9
REMARK    4  A    between atoms: C_13  and  C_14
REMARK    5  A    between atoms: C_14  and  O_15
REMARK    6  A    between atoms: C_14  and  C_17
REMARK    7  A    between atoms: C_17  and  N_18
REMARK    8  A    between atoms: N_18  and  C_21
REMARK                            x       y       z     vdW  Elec       q    Type
REMARK                         _______ _______ _______ _____ _____    ______ ____
ROOT
ATOM      1  O   UNL     1      34.567 -23.100 -18.318  0.00  0.00    -0.473 OA
ENDROOT
BRANCH   1   2
ATOM      2  C   UNL     1      34.571 -22.015 -19.155  0.00  0.00    +0.139 C 
ATOM      3  C   UNL     1      33.368 -21.415 -19.509  0.00  0.00    +0.038 C 
ATOM      4  C   UNL     1      35.778 -21.527 -19.644  0.00  0.00    +0.038 C 
ATOM      5  C   UNL     1      34.578 -19.816 -20.857  0.00  0.00    +0.051 C 
ATOM      6  C   UNL     1      33.372 -20.312 -20.363  0.00  0.00    +0.018 C 
ATOM      7  C   UNL     1      35.782 -20.423 -20.497  0.00  0.00    +0.018 C 
BRANCH   5   9
ATOM      8  O   UNL     1      35.323 -16.947 -20.338  0.00  0.00    -0.275 OA
ATOM      9  N   UNL     1      34.582 -18.713 -21.710  0.00  0.00    -0.284 N 
ATOM     10  C   UNL     1      34.939 -17.391 -21.414  0.00  0.00    +0.227 C 
ATOM     11  C   UNL     1      34.804 -16.492 -22.618  0.00  0.00    +0.095 C 
ATOM     12  H   UNL     1      34.296 -18.884 -22.638  0.00  0.00    +0.155 HD
ENDBRANCH   5   9
ENDBRANCH   1   2
BRANCH   1  13
ATOM     13  C   UNL     1      33.603 -23.095 -17.269  0.00  0.00    +0.232 C 
BRANCH  13  14
ATOM     14  C   UNL     1      34.333 -23.173 -15.929  0.00  0.00    +0.133 C 
BRANCH  14  15
ATOM     15  O   UNL     1      35.558 -23.887 -16.118  0.00  0.00    -0.383 OA
ATOM     16  H   UNL     1      35.472 -24.778 -15.745  0.00  0.00    +0.210 HD
ENDBRANCH  14  15
BRANCH  14  17
ATOM     17  C   UNL     1      33.527 -23.885 -14.841  0.00  0.00    -0.048 C 
BRANCH  17  18
ATOM     18  N   UNL     1      32.745 -22.953 -14.039  0.00  0.00    +0.387 N 
ATOM     19  H   UNL     1      32.729 -22.046 -14.504  0.00  0.00    -0.084 HD
ATOM     20  H   UNL     1      33.177 -22.876 -13.118  0.00  0.00    -0.084 HD
BRANCH  18  21
ATOM     21  C   UNL     1      31.378 -23.429 -13.873  0.00  0.00    -0.062 C 
ATOM     22  C   UNL     1      30.523 -22.927 -15.032  0.00  0.00    -0.023 C 
ATOM     23  C   UNL     1      31.353 -24.951 -13.791  0.00  0.00    -0.023 C 
ENDBRANCH  18  21
ENDBRANCH  17  18
ENDBRANCH  14  17
ENDBRANCH  13  14
ENDBRANCH   1  13
TORSDOF 8
ENDMDL
MODEL 2
REMARK VINA RESULT:      -8.2      0.128      1.116
REMARK  Name = 4883
REMARK  8 active torsions:
REMARK  status: ('A' for Active; 'I' for Inactive)
REMARK    1  A    between atoms: O_1  and  C_2
REMARK    2  A    between atoms: O_1  and  C_13
REMARK    3  A    between atoms: C_5  and  N_9
REMARK    4  A    between atoms: C_13  and  C_14
REMARK    5  A    between atoms: C_14  and  O_15
REMARK    6  A    between atoms: C_14  and  C_17
REMARK    7  A    between atoms: C_17  and  N_18
REMARK    8  A    between atoms: N_18  and  C_21
REMARK                            x       y       z     vdW  Elec       q    Type
REMARK                         _______ _______ _______ _____ _____    ______ ____
ROOT
ATOM      1  O   UNL     1      34.481 -23.093 -18.340  0.00  0.00    -0.473 OA
ENDROOT
BRANCH   1   2
ATOM      2  C   UNL     1      34.487 -22.006 -19.173  0.00  0.00    +0.139 C 
ATOM      3  C   UNL     1      35.696 -21.512 -19.651  0.00  0.00    +0.038 C 
ATOM      4  C   UNL     1      33.286 -21.404 -19.530  0.00  0.00    +0.038 C 
ATOM      5  C   UNL     1      34.502 -19.795 -20.860  0.00  0.00    +0.051 C 
ATOM      6  C   UNL     1      35.704 -20.403 -20.497  0.00  0.00    +0.018 C 
ATOM      7  C   UNL     1      33.292 -20.296 -20.377  0.00  0.00    +0.018 C 
BRANCH   5   9
ATOM      8  O   UNL     1      35.347 -16.951 -20.350  0.00  0.00    -0.275 OA
ATOM      9  N   UNL     1      34.509 -18.686 -21.706  0.00  0.00    -0.284 N 
ATOM     10  C   UNL     1      34.914 -17.377 -21.415  0.00  0.00    +0.227 C 
ATOM     11  C   UNL     1      34.766 -16.467 -22.609  0.00  0.00    +0.095 C 
ATOM     12  H   UNL     1      34.189 -18.844 -22.625  0.00  0.00    +0.155 HD
ENDBRANCH   5   9
ENDBRANCH   1   2
BRANCH   1  13
ATOM     13  C   UNL     1      33.522 -23.086 -17.286  0.00  0.00    +0.232 C 
BRANCH  13  14
ATOM     14  C   UNL     1      34.257 -23.194 -15.951  0.00  0.00    +0.133 C 
BRANCH  14  15
ATOM     15  O   UNL     1      35.425 -23.998 -16.138  0.00  0.00    -0.383 OA
ATOM     16  H   UNL     1      35.335 -24.821 -15.633  0.00  0.00    +0.210 HD
ENDBRANCH  14  15
BRANCH  14  17
ATOM     17  C   UNL     1      33.412 -23.828 -14.844  0.00  0.00    -0.048 C 
BRANCH  17  18
ATOM     18  N   UNL     1      32.573 -22.849 -14.166  0.00  0.00    +0.387 N 
ATOM     19  H   UNL     1      32.432 -22.047 -14.782  0.00  0.00    -0.084 HD
ATOM     20  H   UNL     1      33.038 -22.562 -13.306  0.00  0.00    -0.084 HD
BRANCH  18  21
ATOM     21  C   UNL     1      31.277 -23.421 -13.826  0.00  0.00    -0.062 C 
ATOM     22  C   UNL     1      30.235 -22.950 -14.835  0.00  0.00    -0.023 C 
ATOM     23  C   UNL     1      31.362 -24.943 -13.795  0.00  0.00    -0.023 C 
ENDBRANCH  18  21
ENDBRANCH  17  18
ENDBRANCH  14  17
ENDBRANCH  13  14
ENDBRANCH   1  13
TORSDOF 8
ENDMDL
MODEL 3
REMARK VINA RESULT:      -8.1      1.829      3.026
REMARK  Name = 4883
REMARK  8 active torsions:
REMARK  status: ('A' for Active; 'I' for Inactive)
REMARK    1  A    between atoms: O_1  and  C_2
REMARK    2  A    between atoms: O_1  and  C_13
REMARK    3  A    between atoms: C_5  and  N_9
REMARK    4  A    between atoms: C_13  and  C_14
REMARK    5  A    between atoms: C_14  and  O_15
REMARK    6  A    between atoms: C_14  and  C_17
REMARK    7  A    between atoms: C_17  and  N_18
REMARK    8  A    between atoms: N_18  and  C_21
REMARK                            x       y       z     vdW  Elec       q    Type
REMARK                         _______ _______ _______ _____ _____    ______ ____
ROOT
ATOM      1  O   UNL     1      34.440 -23.007 -17.999  0.00  0.00    -0.473 OA
ENDROOT
BRANCH   1   2
ATOM      2  C   UNL     1      34.551 -22.000 -18.922  0.00  0.00    +0.139 C 
ATOM      3  C   UNL     1      33.403 -21.406 -19.434  0.00  0.00    +0.038 C 
ATOM      4  C   UNL     1      35.810 -21.584 -19.340  0.00  0.00    +0.038 C 
ATOM      5  C   UNL     1      34.776 -19.960 -20.799  0.00  0.00    +0.051 C 
ATOM      6  C   UNL     1      33.516 -20.383 -20.375  0.00  0.00    +0.018 C 
ATOM      7  C   UNL     1      35.924 -20.560 -20.280  0.00  0.00    +0.018 C 
BRANCH   5   9
ATOM      8  O   UNL     1      35.331 -17.024 -20.435  0.00  0.00    -0.275 OA
ATOM      9  N   UNL     1      34.888 -18.936 -21.739  0.00  0.00    -0.284 N 
ATOM     10  C   UNL     1      35.147 -17.578 -21.513  0.00  0.00    +0.227 C 
ATOM     11  C   UNL     1      35.189 -16.794 -22.802  0.00  0.00    +0.095 C 
ATOM     12  H   UNL     1      34.769 -19.201 -22.681  0.00  0.00    +0.155 HD
ENDBRANCH   5   9
ENDBRANCH   1   2
BRANCH   1  13
ATOM     13  C   UNL     1      33.174 -23.154 -17.363  0.00  0.00    +0.232 C 
BRANCH  13  14
ATOM     14  C   UNL     1      33.399 -23.537 -15.902  0.00  0.00    +0.133 C 
BRANCH  14  15
ATOM     15  O   UNL     1      32.318 -23.018 -15.122  0.00  0.00    -0.383 OA
ATOM     16  H   UNL     1      32.452 -23.250 -14.191  0.00  0.00    +0.210 HD
ENDBRANCH  14  15
BRANCH  14  17
ATOM     17  C   UNL     1      34.708 -22.990 -15.328  0.00  0.00    -0.048 C 
BRANCH  17  18
ATOM     18  N   UNL     1      35.808 -23.934 -15.475  0.00  0.00    +0.387 N 
ATOM     19  H   UNL     1      35.851 -24.248 -16.445  0.00  0.00    -0.084 HD
ATOM     20  H   UNL     1      35.645 -24.724 -14.851  0.00  0.00    -0.084 HD
BRANCH  18  21
ATOM     21  C   UNL     1      37.078 -23.314 -15.119  0.00  0.00    -0.062 C 
ATOM     22  C   UNL     1      38.110 -24.401 -14.835  0.00  0.00    -0.023 C 
ATOM     23  C   UNL     1      37.547 -22.389 -16.237  0.00  0.00    -0.023 C 
ENDBRANCH  18  21
ENDBRANCH  17  18
ENDBRANCH  14  17
ENDBRANCH  13  14
ENDBRANCH   1  13
TORSDOF 8
ENDMDL
MODEL 4
REMARK VINA RESULT:      -8.1      3.902      9.255
REMARK  Name = 4883
REMARK  8 active torsions:
REMARK  status: ('A' for Active; 'I' for Inactive)
REMARK    1  A    between atoms: O_1  and  C_2
REMARK    2  A    between atoms: O_1  and  C_13
REMARK    3  A    between atoms: C_5  and  N_9
REMARK    4  A    between atoms: C_13  and  C_14
REMARK    5  A    between atoms: C_14  and  O_15
REMARK    6  A    between atoms: C_14  and  C_17
REMARK    7  A    between atoms: C_17  and  N_18
REMARK    8  A    between atoms: N_18  and  C_21
REMARK                            x       y       z     vdW  Elec       q    Type
REMARK                         _______ _______ _______ _____ _____    ______ ____
ROOT
ATOM      1  O   UNL     1      34.994 -15.947 -24.153  0.00  0.00    -0.473 OA
ENDROOT
BRANCH   1   2
ATOM      2  C   UNL     1      34.954 -17.020 -23.303  0.00  0.00    +0.139 C 
ATOM      3  C   UNL     1      35.056 -16.816 -21.930  0.00  0.00    +0.038 C 
ATOM      4  C   UNL     1      34.814 -18.303 -23.819  0.00  0.00    +0.038 C 
ATOM      5  C   UNL     1      34.876 -19.199 -21.576  0.00  0.00    +0.051 C 
ATOM      6  C   UNL     1      35.017 -17.909 -21.065  0.00  0.00    +0.018 C 
ATOM      7  C   UNL     1      34.773 -19.397 -22.954  0.00  0.00    +0.018 C 
BRANCH   5   9
ATOM      8  O   UNL     1      32.586 -20.372 -20.013  0.00  0.00    -0.275 OA
ATOM      9  N   UNL     1      34.836 -20.292 -20.710  0.00  0.00    -0.284 N 
ATOM     10  C   UNL     1      33.736 -20.796 -20.003  0.00  0.00    +0.227 C 
ATOM     11  C   UNL     1      34.111 -21.996 -19.169  0.00  0.00    +0.095 C 
ATOM     12  H   UNL     1      35.689 -20.769 -20.578  0.00  0.00    +0.155 HD
ENDBRANCH   5   9
ENDBRANCH   1   2
BRANCH   1  13
ATOM     13  C   UNL     1      33.991 -15.893 -25.163  0.00  0.00    +0.232 C 
BRANCH  13  14
ATOM     14  C   UNL     1      33.049 -14.730 -24.860  0.00  0.00    +0.133 C 
BRANCH  14  15
ATOM     15  O   UNL     1      32.381 -14.357 -26.068  0.00  0.00    -0.383 OA
ATOM     16  H   UNL     1      33.036 -14.087 -26.729  0.00  0.00    +0.210 HD
ENDBRANCH  14  15
BRANCH  14  17
ATOM     17  C   UNL     1      33.768 -13.496 -24.310  0.00  0.00    -0.048 C 
BRANCH  17  18
ATOM     18  N   UNL     1      33.866 -13.521 -22.856  0.00  0.00    +0.387 N 
ATOM     19  H   UNL     1      34.298 -12.654 -22.537  0.00  0.00    -0.084 HD
ATOM     20  H   UNL     1      34.432 -14.324 -22.583  0.00  0.00    -0.084 HD
BRANCH  18  21
ATOM     21  C   UNL     1      32.549 -13.650 -22.248  0.00  0.00    -0.062 C 
ATOM     22  C   UNL     1      32.683 -14.334 -20.891  0.00  0.00    -0.023 C 
ATOM     23  C   UNL     1      31.894 -12.279 -22.109  0.00  0.00    -0.023 C 
ENDBRANCH  18  21
ENDBRANCH  17  18
ENDBRANCH  14  17
ENDBRANCH  13  14
ENDBRANCH   1  13
TORSDOF 8
ENDMDL
MODEL 5
REMARK VINA RESULT:      -8.0      2.405      8.206
REMARK  Name = 4883
REMARK  8 active torsions:
REMARK  status: ('A' for Active; 'I' for Inactive)
REMARK    1  A    between atoms: O_1  and  C_2
REMARK    2  A    between atoms: O_1  and  C_13
REMARK    3  A    between atoms: C_5  and  N_9
REMARK    4  A    between atoms: C_13  and  C_14
REMARK    5  A    between atoms: C_14  and  O_15
REMARK    6  A    between atoms: C_14  and  C_17
REMARK    7  A    between atoms: C_17  and  N_18
REMARK    8  A    between atoms: N_18  and  C_21
REMARK                            x       y       z     vdW  Elec       q    Type
REMARK                         _______ _______ _______ _____ _____    ______ ____
ROOT
ATOM      1  O   UNL     1      35.367 -18.189 -22.453  0.00  0.00    -0.473 OA
ENDROOT
BRANCH   1   2
ATOM      2  C   UNL     1      34.814 -19.099 -21.592  0.00  0.00    +0.139 C 
ATOM      3  C   UNL     1      35.635 -19.996 -20.916  0.00  0.00    +0.038 C 
ATOM      4  C   UNL     1      33.436 -19.120 -21.403  0.00  0.00    +0.038 C 
ATOM      5  C   UNL     1      33.690 -20.950 -19.847  0.00  0.00    +0.051 C 
ATOM      6  C   UNL     1      35.071 -20.924 -20.041  0.00  0.00    +0.018 C 
ATOM      7  C   UNL     1      32.872 -20.047 -20.527  0.00  0.00    +0.018 C 
BRANCH   5   9
ATOM      8  O   UNL     1      34.976 -22.707 -17.768  0.00  0.00    -0.275 OA
ATOM      9  N   UNL     1      33.126 -21.878 -18.971  0.00  0.00    -0.284 N 
ATOM     10  C   UNL     1      33.776 -22.675 -18.019  0.00  0.00    +0.227 C 
ATOM     11  C   UNL     1      32.805 -23.554 -17.269  0.00  0.00    +0.095 C 
ATOM     12  H   UNL     1      32.149 -21.989 -19.030  0.00  0.00    +0.155 HD
ENDBRANCH   5   9
ENDBRANCH   1   2
BRANCH   1  13
ATOM     13  C   UNL     1      35.140 -18.402 -23.843  0.00  0.00    +0.232 C 
BRANCH  13  14
ATOM     14  C   UNL     1      34.490 -17.153 -24.433  0.00  0.00    +0.133 C 
BRANCH  14  15
ATOM     15  O   UNL     1      35.050 -16.915 -25.727  0.00  0.00    -0.383 OA
ATOM     16  H   UNL     1      34.668 -17.540 -26.363  0.00  0.00    +0.210 HD
ENDBRANCH  14  15
BRANCH  14  17
ATOM     17  C   UNL     1      34.704 -15.899 -23.582  0.00  0.00    -0.048 C 
BRANCH  17  18
ATOM     18  N   UNL     1      33.573 -15.633 -22.702  0.00  0.00    +0.387 N 
ATOM     19  H   UNL     1      33.272 -16.509 -22.274  0.00  0.00    -0.084 HD
ATOM     20  H   UNL     1      32.819 -15.227 -23.255  0.00  0.00    -0.084 HD
BRANCH  18  21
ATOM     21  C   UNL     1      33.940 -14.691 -21.653  0.00  0.00    -0.062 C 
ATOM     22  C   UNL     1      32.705 -13.908 -21.221  0.00  0.00    -0.023 C 
ATOM     23  C   UNL     1      34.563 -15.429 -20.473  0.00  0.00    -0.023 C 
ENDBRANCH  18  21
ENDBRANCH  17  18
ENDBRANCH  14  17
ENDBRANCH  13  14
ENDBRANCH   1  13
TORSDOF 8
ENDMDL
MODEL 6
REMARK VINA RESULT:      -7.9      2.426      3.432
REMARK  Name = 4883
REMARK  8 active torsions:
REMARK  status: ('A' for Active; 'I' for Inactive)
REMARK    1  A    between atoms: O_1  and  C_2
REMARK    2  A    between atoms: O_1  and  C_13
REMARK    3  A    between atoms: C_5  and  N_9
REMARK    4  A    between atoms: C_13  and  C_14
REMARK    5  A    between atoms: C_14  and  O_15
REMARK    6  A    between atoms: C_14  and  C_17
REMARK    7  A    between atoms: C_17  and  N_18
REMARK    8  A    between atoms: N_18  and  C_21
REMARK                            x       y       z     vdW  Elec       q    Type
REMARK                         _______ _______ _______ _____ _____    ______ ____
ROOT
ATOM      1  O   UNL     1      34.707 -23.013 -17.708  0.00  0.00    -0.473 OA
ENDROOT
BRANCH   1   2
ATOM      2  C   UNL     1      34.765 -22.072 -18.702  0.00  0.00    +0.139 C 
ATOM      3  C   UNL     1      36.001 -21.598 -19.130  0.00  0.00    +0.038 C 
ATOM      4  C   UNL     1      33.589 -21.597 -19.271  0.00  0.00    +0.038 C 
ATOM      5  C   UNL     1      34.885 -20.158 -20.716  0.00  0.00    +0.051 C 
ATOM      6  C   UNL     1      36.061 -20.638 -20.140  0.00  0.00    +0.018 C 
ATOM      7  C   UNL     1      33.648 -20.637 -20.282  0.00  0.00    +0.018 C 
BRANCH   5   9
ATOM      8  O   UNL     1      35.298 -17.180 -20.562  0.00  0.00    -0.275 OA
ATOM      9  N   UNL     1      34.945 -19.198 -21.727  0.00  0.00    -0.284 N 
ATOM     10  C   UNL     1      35.139 -17.817 -21.598  0.00  0.00    +0.227 C 
ATOM     11  C   UNL     1      35.139 -17.125 -22.939  0.00  0.00    +0.095 C 
ATOM     12  H   UNL     1      34.837 -19.534 -22.647  0.00  0.00    +0.155 HD
ENDBRANCH   5   9
ENDBRANCH   1   2
BRANCH   1  13
ATOM     13  C   UNL     1      35.497 -22.769 -16.548  0.00  0.00    +0.232 C 
BRANCH  13  14
ATOM     14  C   UNL     1      34.950 -23.606 -15.395  0.00  0.00    +0.133 C 
BRANCH  14  15
ATOM     15  O   UNL     1      34.929 -22.799 -14.214  0.00  0.00    -0.383 OA
ATOM     16  H   UNL     1      34.725 -21.882 -14.454  0.00  0.00    +0.210 HD
ENDBRANCH  14  15
BRANCH  14  17
ATOM     17  C   UNL     1      35.785 -24.856 -15.104  0.00  0.00    -0.048 C 
BRANCH  17  18
ATOM     18  N   UNL     1      37.205 -24.634 -15.344  0.00  0.00    +0.387 N 
ATOM     19  H   UNL     1      37.439 -23.673 -15.095  0.00  0.00    -0.084 HD
ATOM     20  H   UNL     1      37.399 -24.806 -16.330  0.00  0.00    -0.084 HD
BRANCH  18  21
ATOM     21  C   UNL     1      38.016 -25.543 -14.545  0.00  0.00    -0.062 C 
ATOM     22  C   UNL     1      38.402 -24.861 -13.237  0.00  0.00    -0.023 C 
ATOM     23  C   UNL     1      37.256 -26.840 -14.284  0.00  0.00    -0.023 C 
ENDBRANCH  18  21
ENDBRANCH  17  18
ENDBRANCH  14  17
ENDBRANCH  13  14
ENDBRANCH   1  13
TORSDOF 8
ENDMDL
MODEL 7
REMARK VINA RESULT:      -7.6      4.386      9.722
REMARK  Name = 4883
REMARK  8 active torsions:
REMARK  status: ('A' for Active; 'I' for Inactive)
REMARK    1  A    between atoms: O_1  and  C_2
REMARK    2  A    between atoms: O_1  and  C_13
REMARK    3  A    between atoms: C_5  and  N_9
REMARK    4  A    between atoms: C_13  and  C_14
REMARK    5  A    between atoms: C_14  and  O_15
REMARK    6  A    between atoms: C_14  and  C_17
REMARK    7  A    between atoms: C_17  and  N_18
REMARK    8  A    between atoms: N_18  and  C_21
REMARK                            x       y       z     vdW  Elec       q    Type
REMARK                         _______ _______ _______ _____ _____    ______ ____
ROOT
ATOM      1  O   UNL     1      34.721 -15.012 -23.669  0.00  0.00    -0.473 OA
ENDROOT
BRANCH   1   2
ATOM      2  C   UNL     1      34.750 -16.222 -23.027  0.00  0.00    +0.139 C 
ATOM      3  C   UNL     1      34.910 -17.390 -23.764  0.00  0.00    +0.038 C 
ATOM      4  C   UNL     1      34.617 -16.271 -21.643  0.00  0.00    +0.038 C 
ATOM      5  C   UNL     1      34.805 -18.678 -21.723  0.00  0.00    +0.051 C 
ATOM      6  C   UNL     1      34.938 -18.622 -23.111  0.00  0.00    +0.018 C 
ATOM      7  C   UNL     1      34.646 -17.502 -20.989  0.00  0.00    +0.018 C 
BRANCH   5   9
ATOM      8  O   UNL     1      36.874 -19.871 -19.890  0.00  0.00    -0.275 OA
ATOM      9  N   UNL     1      34.834 -19.910 -21.070  0.00  0.00    -0.284 N 
ATOM     10  C   UNL     1      35.829 -20.418 -20.224  0.00  0.00    +0.227 C 
ATOM     11  C   UNL     1      35.481 -21.796 -19.717  0.00  0.00    +0.095 C 
ATOM     12  H   UNL     1      34.057 -20.497 -21.223  0.00  0.00    +0.155 HD
ENDBRANCH   5   9
ENDBRANCH   1   2
BRANCH   1  13
ATOM     13  C   UNL     1      33.495 -14.653 -24.301  0.00  0.00    +0.232 C 
BRANCH  13  14
ATOM     14  C   UNL     1      33.074 -13.271 -23.807  0.00  0.00    +0.133 C 
BRANCH  14  15
ATOM     15  O   UNL     1      34.220 -12.415 -23.813  0.00  0.00    -0.383 OA
ATOM     16  H   UNL     1      35.006 -12.927 -23.567  0.00  0.00    +0.210 HD
ENDBRANCH  14  15
BRANCH  14  17
ATOM     17  C   UNL     1      32.494 -13.284 -22.391  0.00  0.00    -0.048 C 
BRANCH  17  18
ATOM     18  N   UNL     1      31.363 -12.376 -22.254  0.00  0.00    +0.387 N 
ATOM     19  H   UNL     1      30.623 -12.842 -21.730  0.00  0.00    -0.084 HD
ATOM     20  H   UNL     1      31.035 -12.121 -23.185  0.00  0.00    -0.084 HD
BRANCH  18  21
ATOM     21  C   UNL     1      31.753 -11.162 -21.549  0.00  0.00    -0.062 C 
ATOM     22  C   UNL     1      31.545  -9.957 -22.461  0.00  0.00    -0.023 C 
ATOM     23  C   UNL     1      30.952 -11.018 -20.259  0.00  0.00    -0.023 C 
ENDBRANCH  18  21
ENDBRANCH  17  18
ENDBRANCH  14  17
ENDBRANCH  13  14
ENDBRANCH   1  13
TORSDOF 8
ENDMDL
MODEL 8
REMARK VINA RESULT:      -7.6      4.011     10.359
REMARK  Name = 4883
REMARK  8 active torsions:
REMARK  status: ('A' for Active; 'I' for Inactive)
REMARK    1  A    between atoms: O_1  and  C_2
REMARK    2  A    between atoms: O_1  and  C_13
REMARK    3  A    between atoms: C_5  and  N_9
REMARK    4  A    between atoms: C_13  and  C_14
REMARK    5  A    between atoms: C_14  and  O_15
REMARK    6  A    between atoms: C_14  and  C_17
REMARK    7  A    between atoms: C_17  and  N_18
REMARK    8  A    between atoms: N_18  and  C_21
REMARK                            x       y       z     vdW  Elec       q    Type
REMARK                         _______ _______ _______ _____ _____    ______ ____
ROOT
ATOM      1  O   UNL     1      34.682 -15.957 -24.013  0.00  0.00    -0.473 OA
ENDROOT
BRANCH   1   2
ATOM      2  C   UNL     1      34.734 -17.044 -23.182  0.00  0.00    +0.139 C 
ATOM      3  C   UNL     1      34.761 -18.325 -23.724  0.00  0.00    +0.038 C 
ATOM      4  C   UNL     1      34.756 -16.858 -21.804  0.00  0.00    +0.038 C 
ATOM      5  C   UNL     1      34.834 -19.253 -21.494  0.00  0.00    +0.051 C 
ATOM      6  C   UNL     1      34.811 -19.432 -22.877  0.00  0.00    +0.018 C 
ATOM      7  C   UNL     1      34.807 -17.965 -20.957  0.00  0.00    +0.018 C 
BRANCH   5   9
ATOM      8  O   UNL     1      32.664 -20.594 -19.897  0.00  0.00    -0.275 OA
ATOM      9  N   UNL     1      34.885 -20.361 -20.648  0.00  0.00    -0.284 N 
ATOM     10  C   UNL     1      33.838 -20.945 -19.924  0.00  0.00    +0.227 C 
ATOM     11  C   UNL     1      34.308 -22.134 -19.122  0.00  0.00    +0.095 C 
ATOM     12  H   UNL     1      35.769 -20.785 -20.546  0.00  0.00    +0.155 HD
ENDBRANCH   5   9
ENDBRANCH   1   2
BRANCH   1  13
ATOM     13  C   UNL     1      34.520 -14.684 -23.392  0.00  0.00    +0.232 C 
BRANCH  13  14
ATOM     14  C   UNL     1      33.199 -14.075 -23.855  0.00  0.00    +0.133 C 
BRANCH  14  15
ATOM     15  O   UNL     1      33.106 -14.211 -25.276  0.00  0.00    -0.383 OA
ATOM     16  H   UNL     1      33.335 -15.118 -25.529  0.00  0.00    +0.210 HD
ENDBRANCH  14  15
BRANCH  14  17
ATOM     17  C   UNL     1      33.061 -12.592 -23.506  0.00  0.00    -0.048 C 
BRANCH  17  18
ATOM     18  N   UNL     1      34.169 -11.801 -24.025  0.00  0.00    +0.387 N 
ATOM     19  H   UNL     1      34.508 -12.228 -24.887  0.00  0.00    -0.084 HD
ATOM     20  H   UNL     1      34.908 -11.777 -23.323  0.00  0.00    -0.084 HD
BRANCH  18  21
ATOM     21  C   UNL     1      33.748 -10.434 -24.303  0.00  0.00    -0.062 C 
ATOM     22  C   UNL     1      32.800  -9.963 -23.205  0.00  0.00    -0.023 C 
ATOM     23  C   UNL     1      34.962  -9.518 -24.410  0.00  0.00    -0.023 C 
ENDBRANCH  18  21
ENDBRANCH  17  18
ENDBRANCH  14  17
ENDBRANCH  13  14
ENDBRANCH   1  13
TORSDOF 8
ENDMDL
MODEL 9
REMARK VINA RESULT:      -7.6      2.507      3.293
REMARK  Name = 4883
REMARK  8 active torsions:
REMARK  status: ('A' for Active; 'I' for Inactive)
REMARK    1  A    between atoms: O_1  and  C_2
REMARK    2  A    between atoms: O_1  and  C_13
REMARK    3  A    between atoms: C_5  and  N_9
REMARK    4  A    between atoms: C_13  and  C_14
REMARK    5  A    between atoms: C_14  and  O_15
REMARK    6  A    between atoms: C_14  and  C_17
REMARK    7  A    between atoms: C_17  and  N_18
REMARK    8  A    between atoms: N_18  and  C_21
REMARK                            x       y       z     vdW  Elec       q    Type
REMARK                         _______ _______ _______ _____ _____    ______ ____
ROOT
ATOM      1  O   UNL     1      35.670 -23.058 -16.853  0.00  0.00    -0.473 OA
ENDROOT
BRANCH   1   2
ATOM      2  C   UNL     1      35.501 -22.285 -17.972  0.00  0.00    +0.139 C 
ATOM      3  C   UNL     1      36.595 -21.632 -18.530  0.00  0.00    +0.038 C 
ATOM      4  C   UNL     1      34.237 -22.158 -18.538  0.00  0.00    +0.038 C 
ATOM      5  C   UNL     1      35.159 -20.713 -20.240  0.00  0.00    +0.051 C 
ATOM      6  C   UNL     1      36.423 -20.844 -19.667  0.00  0.00    +0.018 C 
ATOM      7  C   UNL     1      34.065 -21.371 -19.676  0.00  0.00    +0.018 C 
BRANCH   5   9
ATOM      8  O   UNL     1      35.458 -17.742 -20.624  0.00  0.00    -0.275 OA
ATOM      9  N   UNL     1      34.987 -19.925 -21.378  0.00  0.00    -0.284 N 
ATOM     10  C   UNL     1      35.139 -18.537 -21.501  0.00  0.00    +0.227 C 
ATOM     11  C   UNL     1      34.859 -18.067 -22.907  0.00  0.00    +0.095 C 
ATOM     12  H   UNL     1      34.725 -20.404 -22.199  0.00  0.00    +0.155 HD
ENDBRANCH   5   9
ENDBRANCH   1   2
BRANCH   1  13
ATOM     13  C   UNL     1      36.178 -22.403 -15.695  0.00  0.00    +0.232 C 
BRANCH  13  14
ATOM     14  C   UNL     1      37.298 -23.254 -15.100  0.00  0.00    +0.133 C 
BRANCH  14  15
ATOM     15  O   UNL     1      38.394 -23.273 -16.018  0.00  0.00    -0.383 OA
ATOM     16  H   UNL     1      39.208 -23.503 -15.544  0.00  0.00    +0.210 HD
ENDBRANCH  14  15
BRANCH  14  17
ATOM     17  C   UNL     1      36.879 -24.700 -14.825  0.00  0.00    -0.048 C 
BRANCH  17  18
ATOM     18  N   UNL     1      35.646 -24.776 -14.052  0.00  0.00    +0.387 N 
ATOM     19  H   UNL     1      35.066 -25.529 -14.423  0.00  0.00    -0.084 HD
ATOM     20  H   UNL     1      35.161 -23.883 -14.124  0.00  0.00    -0.084 HD
BRANCH  18  21
ATOM     21  C   UNL     1      35.929 -25.041 -12.647  0.00  0.00    -0.062 C 
ATOM     22  C   UNL     1      37.239 -25.812 -12.531  0.00  0.00    -0.023 C 
ATOM     23  C   UNL     1      35.990 -23.733 -11.865  0.00  0.00    -0.023 C 
ENDBRANCH  18  21
ENDBRANCH  17  18
ENDBRANCH  14  17
ENDBRANCH  13  14
ENDBRANCH   1  13
TORSDOF 8
ENDMDL
