MODEL 1
REMARK VINA RESULT:     -12.2      0.000      0.000
REMARK  Name = 447359
REMARK  5 active torsions:
REMARK  status: ('A' for Active; 'I' for Inactive)
REMARK    1  A    between atoms: N_2  and  S_8
REMARK    2  A    between atoms: N_3  and  C_21
REMARK    3  A    between atoms: S_8  and  C_13
REMARK    4  A    between atoms: C_21  and  C_22
REMARK    5  A    between atoms: C_25  and  C_30
REMARK                            x       y       z     vdW  Elec       q    Type
REMARK                         _______ _______ _______ _____ _____    ______ ____
ROOT
ATOM      1  O   UNL     1      37.289 -19.992 -20.290  0.00  0.00    -0.273 OA
ATOM      2  N   UNL     1      34.099 -21.380 -19.289  0.00  0.00    -0.144 NA
ATOM      3  N   UNL     1      35.147 -19.267 -20.798  0.00  0.00    -0.273 N 
ATOM      4  C   UNL     1      33.273 -20.826 -20.384  0.00  0.00    +0.118 C 
ATOM      5  C   UNL     1      33.708 -19.390 -20.584  0.00  0.00    +0.113 C 
ATOM      6  C   UNL     1      35.525 -21.439 -19.665  0.00  0.00    +0.181 C 
ATOM      7  C   UNL     1      36.066 -20.160 -20.254  0.00  0.00    +0.244 C 
ENDROOT
BRANCH   2   8
ATOM      8  S   UNL     1      33.478 -22.776 -18.517  0.00  0.00    +0.069 S 
ATOM      9  O   UNL     1      33.846 -23.937 -19.302  0.00  0.00    -0.152 OA
ATOM     10  O   UNL     1      32.112 -22.526 -18.111  0.00  0.00    -0.152 OA
BRANCH   8  13
ATOM     11 CL   UNL     1      35.929 -24.190 -10.855  0.00  0.00    -0.082 Cl
ATOM     12  S   UNL     1      33.392 -23.523 -15.698  0.00  0.00    -0.067 S 
ATOM     13  C   UNL     1      34.358 -22.972 -16.971  0.00  0.00    +0.152 C 
ATOM     14  C   UNL     1      35.651 -22.762 -16.631  0.00  0.00    +0.027 C 
ATOM     15  C   UNL     1      35.896 -23.063 -15.250  0.00  0.00    +0.008 C 
ATOM     16  C   UNL     1      34.730 -23.495 -14.611  0.00  0.00    +0.032 C 
ATOM     17  C   UNL     1      37.087 -22.986 -14.488  0.00  0.00    +0.001 C 
ATOM     18  C   UNL     1      34.725 -23.849 -13.247  0.00  0.00    +0.018 C 
ATOM     19  C   UNL     1      37.086 -23.335 -13.136  0.00  0.00    +0.011 C 
ATOM     20  C   UNL     1      35.916 -23.762 -12.524  0.00  0.00    +0.058 C 
ENDBRANCH   8  13
ENDBRANCH   2   8
BRANCH   3  21
ATOM     21  C   UNL     1      35.603 -18.027 -21.411  0.00  0.00    +0.120 C 
BRANCH  21  22
ATOM     22  C   UNL     1      35.099 -17.949 -22.819  0.00  0.00    -0.002 C 
ATOM     23  C   UNL     1      34.662 -16.730 -23.330  0.00  0.00    +0.000 C 
ATOM     24  C   UNL     1      35.068 -19.096 -23.607  0.00  0.00    -0.003 C 
ATOM     25  C   UNL     1      34.191 -16.657 -24.641  0.00  0.00    +0.030 C 
ATOM     26  C   UNL     1      34.597 -19.022 -24.918  0.00  0.00    -0.000 C 
ATOM     27  C   UNL     1      34.158 -17.804 -25.435  0.00  0.00    +0.003 C 
BRANCH  25  30
ATOM     28  N   UNL     1      33.568 -14.270 -24.364  0.00  0.00    -0.343 N 
ATOM     29  N   UNL     1      33.464 -15.279 -26.470  0.00  0.00    -0.285 NA
ATOM     30  C   UNL     1      33.734 -15.386 -25.181  0.00  0.00    +0.117 C 
ATOM     31  H   UNL     1      33.257 -13.419 -24.750  0.00  0.00    +0.144 HD
ATOM     32  H   UNL     1      33.761 -14.331 -23.401  0.00  0.00    +0.144 HD
ATOM     33  H   UNL     1      33.154 -14.419 -26.837  0.00  0.00    +0.188 HD
ENDBRANCH  25  30
ENDBRANCH  21  22
ENDBRANCH   3  21
TORSDOF 5
ENDMDL
MODEL 2
REMARK VINA RESULT:     -11.2      6.403     10.784
REMARK  Name = 447359
REMARK  5 active torsions:
REMARK  status: ('A' for Active; 'I' for Inactive)
REMARK    1  A    between atoms: N_2  and  S_8
REMARK    2  A    between atoms: N_3  and  C_21
REMARK    3  A    between atoms: S_8  and  C_13
REMARK    4  A    between atoms: C_21  and  C_22
REMARK    5  A    between atoms: C_25  and  C_30
REMARK                            x       y       z     vdW  Elec       q    Type
REMARK                         _______ _______ _______ _____ _____    ______ ____
ROOT
ATOM      1  O   UNL     1      35.018 -16.054 -20.582  0.00  0.00    -0.273 OA
ATOM      2  N   UNL     1      34.164 -14.990 -23.935  0.00  0.00    -0.144 NA
ATOM      3  N   UNL     1      35.253 -17.190 -22.589  0.00  0.00    -0.273 N 
ATOM      4  C   UNL     1      34.025 -16.326 -24.554  0.00  0.00    +0.118 C 
ATOM      5  C   UNL     1      35.175 -17.170 -24.047  0.00  0.00    +0.113 C 
ATOM      6  C   UNL     1      34.002 -15.054 -22.470  0.00  0.00    +0.181 C 
ATOM      7  C   UNL     1      34.823 -16.127 -21.800  0.00  0.00    +0.244 C 
ENDROOT
BRANCH   2   8
ATOM      8  S   UNL     1      33.331 -13.715 -24.717  0.00  0.00    +0.069 S 
ATOM      9  O   UNL     1      32.078 -14.230 -25.230  0.00  0.00    -0.152 OA
ATOM     10  O   UNL     1      34.259 -12.984 -25.553  0.00  0.00    -0.152 OA
BRANCH   8  13
ATOM     11 CL   UNL     1      32.008  -7.165 -20.021  0.00  0.00    -0.082 Cl
ATOM     12  S   UNL     1      33.372 -10.953 -23.780  0.00  0.00    -0.067 S 
ATOM     13  C   UNL     1      32.859 -12.531 -23.461  0.00  0.00    +0.152 C 
ATOM     14  C   UNL     1      32.168 -12.664 -22.305  0.00  0.00    +0.027 C 
ATOM     15  C   UNL     1      32.034 -11.412 -21.616  0.00  0.00    +0.008 C 
ATOM     16  C   UNL     1      32.656 -10.377 -22.320  0.00  0.00    +0.032 C 
ATOM     17  C   UNL     1      31.397 -11.099 -20.391  0.00  0.00    +0.001 C 
ATOM     18  C   UNL     1      32.656  -9.053 -21.838  0.00  0.00    +0.018 C 
ATOM     19  C   UNL     1      31.394  -9.788 -19.909  0.00  0.00    +0.011 C 
ATOM     20  C   UNL     1      32.019  -8.777 -20.627  0.00  0.00    +0.058 C 
ENDBRANCH   8  13
ENDBRANCH   2   8
BRANCH   3  21
ATOM     21  C   UNL     1      36.024 -18.277 -22.001  0.00  0.00    +0.120 C 
BRANCH  21  22
ATOM     22  C   UNL     1      35.102 -19.214 -21.283  0.00  0.00    -0.002 C 
ATOM     23  C   UNL     1      35.622 -20.140 -20.383  0.00  0.00    +0.000 C 
ATOM     24  C   UNL     1      33.732 -19.155 -21.522  0.00  0.00    -0.003 C 
ATOM     25  C   UNL     1      34.764 -21.014 -19.716  0.00  0.00    +0.030 C 
ATOM     26  C   UNL     1      32.875 -20.029 -20.855  0.00  0.00    -0.000 C 
ATOM     27  C   UNL     1      33.390 -20.959 -19.952  0.00  0.00    +0.003 C 
BRANCH  25  30
ATOM     28  N   UNL     1      36.598 -21.870 -18.277  0.00  0.00    -0.343 N 
ATOM     29  N   UNL     1      34.552 -22.998 -18.376  0.00  0.00    -0.285 NA
ATOM     30  C   UNL     1      35.300 -21.983 -18.773  0.00  0.00    +0.117 C 
ATOM     31  H   UNL     1      36.941 -22.538 -17.640  0.00  0.00    +0.144 HD
ATOM     32  H   UNL     1      37.171 -21.124 -18.563  0.00  0.00    +0.144 HD
ATOM     33  H   UNL     1      34.914 -23.655 -17.738  0.00  0.00    +0.188 HD
ENDBRANCH  25  30
ENDBRANCH  21  22
ENDBRANCH   3  21
TORSDOF 5
ENDMDL
MODEL 3
REMARK VINA RESULT:     -11.1      5.424      8.170
REMARK  Name = 447359
REMARK  5 active torsions:
REMARK  status: ('A' for Active; 'I' for Inactive)
REMARK    1  A    between atoms: N_2  and  S_8
REMARK    2  A    between atoms: N_3  and  C_21
REMARK    3  A    between atoms: S_8  and  C_13
REMARK    4  A    between atoms: C_21  and  C_22
REMARK    5  A    between atoms: C_25  and  C_30
REMARK                            x       y       z     vdW  Elec       q    Type
REMARK                         _______ _______ _______ _____ _____    ______ ____
ROOT
ATOM      1  O   UNL     1      32.673 -13.671 -20.263  0.00  0.00    -0.273 OA
ATOM      2  N   UNL     1      33.672 -15.303 -23.336  0.00  0.00    -0.144 NA
ATOM      3  N   UNL     1      32.343 -13.000 -22.457  0.00  0.00    -0.273 N 
ATOM      4  C   UNL     1      33.677 -14.115 -24.217  0.00  0.00    +0.118 C 
ATOM      5  C   UNL     1      32.440 -13.309 -23.881  0.00  0.00    +0.113 C 
ATOM      6  C   UNL     1      33.809 -14.924 -21.917  0.00  0.00    +0.181 C 
ATOM      7  C   UNL     1      32.874 -13.828 -21.471  0.00  0.00    +0.244 C 
ENDROOT
BRANCH   2   8
ATOM      8  S   UNL     1      34.641 -16.617 -23.849  0.00  0.00    +0.069 S 
ATOM      9  O   UNL     1      36.032 -16.215 -23.788  0.00  0.00    -0.152 OA
ATOM     10  O   UNL     1      34.062 -17.197 -25.042  0.00  0.00    -0.152 OA
BRANCH   8  13
ATOM     11 CL   UNL     1      35.684 -22.403 -18.178  0.00  0.00    -0.082 Cl
ATOM     12  S   UNL     1      35.962 -18.423 -21.976  0.00  0.00    -0.067 S 
ATOM     13  C   UNL     1      34.486 -17.911 -22.622  0.00  0.00    +0.152 C 
ATOM     14  C   UNL     1      33.409 -18.555 -22.116  0.00  0.00    +0.027 C 
ATOM     15  C   UNL     1      33.784 -19.534 -21.135  0.00  0.00    +0.008 C 
ATOM     16  C   UNL     1      35.170 -19.568 -20.958  0.00  0.00    +0.032 C 
ATOM     17  C   UNL     1      32.989 -20.418 -20.367  0.00  0.00    +0.001 C 
ATOM     18  C   UNL     1      35.775 -20.453 -20.044  0.00  0.00    +0.018 C 
ATOM     19  C   UNL     1      33.585 -21.298 -19.459  0.00  0.00    +0.011 C 
ATOM     20  C   UNL     1      34.963 -21.314 -19.302  0.00  0.00    +0.058 C 
ENDBRANCH   8  13
ENDBRANCH   2   8
BRANCH   3  21
ATOM     21  C   UNL     1      31.457 -11.903 -22.096  0.00  0.00    +0.120 C 
BRANCH  21  22
ATOM     22  C   UNL     1      32.151 -10.597 -22.336  0.00  0.00    -0.002 C 
ATOM     23  C   UNL     1      31.966  -9.543 -21.447  0.00  0.00    +0.000 C 
ATOM     24  C   UNL     1      32.976 -10.447 -23.447  0.00  0.00    -0.003 C 
ATOM     25  C   UNL     1      32.611  -8.326 -21.671  0.00  0.00    +0.030 C 
ATOM     26  C   UNL     1      33.621  -9.230 -23.670  0.00  0.00    -0.000 C 
ATOM     27  C   UNL     1      33.439  -8.170 -22.783  0.00  0.00    +0.003 C 
BRANCH  25  30
ATOM     28  N   UNL     1      31.646  -6.115 -21.087  0.00  0.00    -0.343 N 
ATOM     29  N   UNL     1      32.996  -7.253 -19.555  0.00  0.00    -0.285 NA
ATOM     30  C   UNL     1      32.422  -7.220 -20.745  0.00  0.00    +0.117 C 
ATOM     31  H   UNL     1      31.531  -5.377 -20.445  0.00  0.00    +0.144 HD
ATOM     32  H   UNL     1      31.213  -6.071 -21.969  0.00  0.00    +0.144 HD
ATOM     33  H   UNL     1      32.868  -6.505 -18.927  0.00  0.00    +0.188 HD
ENDBRANCH  25  30
ENDBRANCH  21  22
ENDBRANCH   3  21
TORSDOF 5
ENDMDL
MODEL 4
REMARK VINA RESULT:     -10.9      4.087      6.529
REMARK  Name = 447359
REMARK  5 active torsions:
REMARK  status: ('A' for Active; 'I' for Inactive)
REMARK    1  A    between atoms: N_2  and  S_8
REMARK    2  A    between atoms: N_3  and  C_21
REMARK    3  A    between atoms: S_8  and  C_13
REMARK    4  A    between atoms: C_21  and  C_22
REMARK    5  A    between atoms: C_25  and  C_30
REMARK                            x       y       z     vdW  Elec       q    Type
REMARK                         _______ _______ _______ _____ _____    ______ ____
ROOT
ATOM      1  O   UNL     1      33.380 -14.446 -20.516  0.00  0.00    -0.273 OA
ATOM      2  N   UNL     1      34.557 -16.931 -22.870  0.00  0.00    -0.144 NA
ATOM      3  N   UNL     1      33.171 -14.498 -22.824  0.00  0.00    -0.273 N 
ATOM      4  C   UNL     1      34.607 -16.075 -24.076  0.00  0.00    +0.118 C 
ATOM      5  C   UNL     1      33.349 -15.232 -24.073  0.00  0.00    +0.113 C 
ATOM      6  C   UNL     1      34.613 -16.126 -21.635  0.00  0.00    +0.181 C 
ATOM      7  C   UNL     1      33.649 -14.967 -21.603  0.00  0.00    +0.244 C 
ENDROOT
BRANCH   2   8
ATOM      8  S   UNL     1      35.559 -18.318 -22.897  0.00  0.00    +0.069 S 
ATOM      9  O   UNL     1      36.893 -17.930 -22.487  0.00  0.00    -0.152 OA
ATOM     10  O   UNL     1      35.317 -19.056 -24.118  0.00  0.00    -0.152 OA
BRANCH   8  13
ATOM     11 CL   UNL     1      34.664 -23.547 -16.686  0.00  0.00    -0.082 Cl
ATOM     12  S   UNL     1      36.232 -20.125 -20.707  0.00  0.00    -0.067 S 
ATOM     13  C   UNL     1      34.988 -19.419 -21.607  0.00  0.00    +0.152 C 
ATOM     14  C   UNL     1      33.746 -19.792 -21.218  0.00  0.00    +0.027 C 
ATOM     15  C   UNL     1      33.785 -20.711 -20.116  0.00  0.00    +0.008 C 
ATOM     16  C   UNL     1      35.100 -20.984 -19.731  0.00  0.00    +0.032 C 
ATOM     17  C   UNL     1      32.735 -21.343 -19.408  0.00  0.00    +0.001 C 
ATOM     18  C   UNL     1      35.389 -21.863 -18.668  0.00  0.00    +0.018 C 
ATOM     19  C   UNL     1      33.017 -22.214 -18.353  0.00  0.00    +0.011 C 
ATOM     20  C   UNL     1      34.331 -22.470 -17.989  0.00  0.00    +0.058 C 
ENDBRANCH   8  13
ENDBRANCH   2   8
BRANCH   3  21
ATOM     21  C   UNL     1      32.261 -13.362 -22.869  0.00  0.00    +0.120 C 
BRANCH  21  22
ATOM     22  C   UNL     1      32.976 -12.169 -23.426  0.00  0.00    -0.002 C 
ATOM     23  C   UNL     1      32.748 -10.910 -22.878  0.00  0.00    +0.000 C 
ATOM     24  C   UNL     1      33.861 -12.326 -24.488  0.00  0.00    -0.003 C 
ATOM     25  C   UNL     1      33.413  -9.799 -23.396  0.00  0.00    +0.030 C 
ATOM     26  C   UNL     1      34.525 -11.215 -25.007  0.00  0.00    -0.000 C 
ATOM     27  C   UNL     1      34.301  -9.951 -24.461  0.00  0.00    +0.003 C 
BRANCH  25  30
ATOM     28  N   UNL     1      31.941  -8.129 -22.294  0.00  0.00    -0.343 N 
ATOM     29  N   UNL     1      34.155  -7.588 -22.815  0.00  0.00    -0.285 NA
ATOM     30  C   UNL     1      33.180  -8.480 -22.828  0.00  0.00    +0.117 C 
ATOM     31  H   UNL     1      31.805  -7.231 -21.915  0.00  0.00    +0.144 HD
ATOM     32  H   UNL     1      31.202  -8.779 -22.298  0.00  0.00    +0.144 HD
ATOM     33  H   UNL     1      33.999  -6.695 -22.431  0.00  0.00    +0.188 HD
ENDBRANCH  25  30
ENDBRANCH  21  22
ENDBRANCH   3  21
TORSDOF 5
ENDMDL
MODEL 5
REMARK VINA RESULT:     -10.8      4.511     10.262
REMARK  Name = 447359
REMARK  5 active torsions:
REMARK  status: ('A' for Active; 'I' for Inactive)
REMARK    1  A    between atoms: N_2  and  S_8
REMARK    2  A    between atoms: N_3  and  C_21
REMARK    3  A    between atoms: S_8  and  C_13
REMARK    4  A    between atoms: C_21  and  C_22
REMARK    5  A    between atoms: C_25  and  C_30
REMARK                            x       y       z     vdW  Elec       q    Type
REMARK                         _______ _______ _______ _____ _____    ______ ____
ROOT
ATOM      1  O   UNL     1      34.038 -23.838 -13.912  0.00  0.00    -0.273 OA
ATOM      2  N   UNL     1      34.450 -22.550 -17.270  0.00  0.00    -0.144 NA
ATOM      3  N   UNL     1      35.882 -22.817 -14.879  0.00  0.00    -0.273 N 
ATOM      4  C   UNL     1      35.926 -22.612 -17.343  0.00  0.00    +0.118 C 
ATOM      5  C   UNL     1      36.456 -22.107 -16.017  0.00  0.00    +0.113 C 
ATOM      6  C   UNL     1      33.921 -23.471 -16.246  0.00  0.00    +0.181 C 
ATOM      7  C   UNL     1      34.604 -23.371 -14.905  0.00  0.00    +0.244 C 
ENDROOT
BRANCH   2   8
ATOM      8  S   UNL     1      33.627 -22.560 -18.771  0.00  0.00    +0.069 S 
ATOM      9  O   UNL     1      32.245 -22.190 -18.541  0.00  0.00    -0.152 OA
ATOM     10  O   UNL     1      33.990 -23.754 -19.504  0.00  0.00    -0.152 OA
BRANCH   8  13
ATOM     11 CL   UNL     1      35.000 -16.036 -23.490  0.00  0.00    -0.082 Cl
ATOM     12  S   UNL     1      33.124 -20.202 -20.414  0.00  0.00    -0.067 S 
ATOM     13  C   UNL     1      34.298 -21.227 -19.759  0.00  0.00    +0.152 C 
ATOM     14  C   UNL     1      35.568 -20.887 -20.080  0.00  0.00    +0.027 C 
ATOM     15  C   UNL     1      35.614 -19.719 -20.912  0.00  0.00    +0.008 C 
ATOM     16  C   UNL     1      34.329 -19.234 -21.177  0.00  0.00    +0.032 C 
ATOM     17  C   UNL     1      36.717 -19.029 -21.470  0.00  0.00    +0.001 C 
ATOM     18  C   UNL     1      34.123 -18.092 -21.976  0.00  0.00    +0.018 C 
ATOM     19  C   UNL     1      36.517 -17.896 -22.262  0.00  0.00    +0.011 C 
ATOM     20  C   UNL     1      35.232 -17.434 -22.512  0.00  0.00    +0.058 C 
ENDBRANCH   8  13
ENDBRANCH   2   8
BRANCH   3  21
ATOM     21  C   UNL     1      36.612 -22.718 -13.623  0.00  0.00    +0.120 C 
BRANCH  21  22
ATOM     22  C   UNL     1      37.285 -24.024 -13.328  0.00  0.00    -0.002 C 
ATOM     23  C   UNL     1      38.380 -24.423 -14.088  0.00  0.00    +0.000 C 
ATOM     24  C   UNL     1      36.809 -24.830 -12.299  0.00  0.00    -0.003 C 
ATOM     25  C   UNL     1      39.006 -25.639 -13.816  0.00  0.00    +0.030 C 
ATOM     26  C   UNL     1      37.434 -26.046 -12.027  0.00  0.00    -0.000 C 
ATOM     27  C   UNL     1      38.532 -26.452 -12.785  0.00  0.00    +0.003 C 
BRANCH  25  30
ATOM     28  N   UNL     1      41.170 -26.833 -14.050  0.00  0.00    -0.343 N 
ATOM     29  N   UNL     1      40.239 -25.712 -15.877  0.00  0.00    -0.285 NA
ATOM     30  C   UNL     1      40.151 -26.062 -14.606  0.00  0.00    +0.117 C 
ATOM     31  H   UNL     1      41.937 -27.108 -14.603  0.00  0.00    +0.144 HD
ATOM     32  H   UNL     1      41.125 -27.101 -13.105  0.00  0.00    +0.144 HD
ATOM     33  H   UNL     1      41.013 -25.997 -16.414  0.00  0.00    +0.188 HD
ENDBRANCH  25  30
ENDBRANCH  21  22
ENDBRANCH   3  21
TORSDOF 5
ENDMDL
MODEL 6
REMARK VINA RESULT:     -10.6      5.082      7.911
REMARK  Name = 447359
REMARK  5 active torsions:
REMARK  status: ('A' for Active; 'I' for Inactive)
REMARK    1  A    between atoms: N_2  and  S_8
REMARK    2  A    between atoms: N_3  and  C_21
REMARK    3  A    between atoms: S_8  and  C_13
REMARK    4  A    between atoms: C_21  and  C_22
REMARK    5  A    between atoms: C_25  and  C_30
REMARK                            x       y       z     vdW  Elec       q    Type
REMARK                         _______ _______ _______ _____ _____    ______ ____
ROOT
ATOM      1  O   UNL     1      32.590 -13.612 -20.239  0.00  0.00    -0.273 OA
ATOM      2  N   UNL     1      33.602 -15.298 -23.278  0.00  0.00    -0.144 NA
ATOM      3  N   UNL     1      32.147 -13.056 -22.446  0.00  0.00    -0.273 N 
ATOM      4  C   UNL     1      33.498 -14.149 -24.205  0.00  0.00    +0.118 C 
ATOM      5  C   UNL     1      32.220 -13.416 -23.859  0.00  0.00    +0.113 C 
ATOM      6  C   UNL     1      33.758 -14.853 -21.881  0.00  0.00    +0.181 C 
ATOM      7  C   UNL     1      32.763 -13.805 -21.447  0.00  0.00    +0.244 C 
ENDROOT
BRANCH   2   8
ATOM      8  S   UNL     1      34.643 -16.564 -23.773  0.00  0.00    +0.069 S 
ATOM      9  O   UNL     1      36.012 -16.104 -23.661  0.00  0.00    -0.152 OA
ATOM     10  O   UNL     1      34.129 -17.154 -24.990  0.00  0.00    -0.152 OA
BRANCH   8  13
ATOM     11 CL   UNL     1      35.755 -22.434 -18.202  0.00  0.00    -0.082 Cl
ATOM     12  S   UNL     1      35.986 -18.393 -21.939  0.00  0.00    -0.067 S 
ATOM     13  C   UNL     1      34.503 -17.878 -22.565  0.00  0.00    +0.152 C 
ATOM     14  C   UNL     1      33.433 -18.535 -22.061  0.00  0.00    +0.027 C 
ATOM     15  C   UNL     1      33.819 -19.527 -21.099  0.00  0.00    +0.008 C 
ATOM     16  C   UNL     1      35.207 -19.558 -20.933  0.00  0.00    +0.032 C 
ATOM     17  C   UNL     1      33.035 -20.427 -20.339  0.00  0.00    +0.001 C 
ATOM     18  C   UNL     1      35.823 -20.455 -20.038  0.00  0.00    +0.018 C 
ATOM     19  C   UNL     1      33.641 -21.318 -19.450  0.00  0.00    +0.011 C 
ATOM     20  C   UNL     1      35.021 -21.330 -19.303  0.00  0.00    +0.058 C 
ENDBRANCH   8  13
ENDBRANCH   2   8
BRANCH   3  21
ATOM     21  C   UNL     1      31.199 -12.007 -22.097  0.00  0.00    +0.120 C 
BRANCH  21  22
ATOM     22  C   UNL     1      31.905 -10.686 -22.055  0.00  0.00    -0.002 C 
ATOM     23  C   UNL     1      32.838 -10.371 -23.039  0.00  0.00    +0.000 C 
ATOM     24  C   UNL     1      31.626  -9.785 -21.033  0.00  0.00    -0.003 C 
ATOM     25  C   UNL     1      33.497  -9.142 -22.999  0.00  0.00    +0.030 C 
ATOM     26  C   UNL     1      32.285  -8.556 -20.994  0.00  0.00    -0.000 C 
ATOM     27  C   UNL     1      33.221  -8.234 -21.976  0.00  0.00    +0.003 C 
BRANCH  25  30
ATOM     28  N   UNL     1      35.276  -9.784 -24.609  0.00  0.00    -0.343 N 
ATOM     29  N   UNL     1      34.612  -7.551 -24.414  0.00  0.00    -0.285 NA
ATOM     30  C   UNL     1      34.473  -8.806 -24.024  0.00  0.00    +0.117 C 
ATOM     31  H   UNL     1      35.930  -9.534 -25.301  0.00  0.00    +0.144 HD
ATOM     32  H   UNL     1      35.190 -10.723 -24.330  0.00  0.00    +0.144 HD
ATOM     33  H   UNL     1      35.272  -7.322 -25.108  0.00  0.00    +0.188 HD
ENDBRANCH  25  30
ENDBRANCH  21  22
ENDBRANCH   3  21
TORSDOF 5
ENDMDL
MODEL 7
REMARK VINA RESULT:     -10.5      8.458     12.981
REMARK  Name = 447359
REMARK  5 active torsions:
REMARK  status: ('A' for Active; 'I' for Inactive)
REMARK    1  A    between atoms: N_2  and  S_8
REMARK    2  A    between atoms: N_3  and  C_21
REMARK    3  A    between atoms: S_8  and  C_13
REMARK    4  A    between atoms: C_21  and  C_22
REMARK    5  A    between atoms: C_25  and  C_30
REMARK                            x       y       z     vdW  Elec       q    Type
REMARK                         _______ _______ _______ _____ _____    ______ ____
ROOT
ATOM      1  O   UNL     1      34.428 -11.962 -25.255  0.00  0.00    -0.273 OA
ATOM      2  N   UNL     1      32.124 -11.928 -22.463  0.00  0.00    -0.144 NA
ATOM      3  N   UNL     1      33.320 -13.729 -24.242  0.00  0.00    -0.273 N 
ATOM      4  C   UNL     1      32.298 -13.330 -22.026  0.00  0.00    +0.118 C 
ATOM      5  C   UNL     1      32.324 -14.183 -23.277  0.00  0.00    +0.113 C 
ATOM      6  C   UNL     1      33.283 -11.459 -23.247  0.00  0.00    +0.181 C 
ATOM      7  C   UNL     1      33.708 -12.396 -24.351  0.00  0.00    +0.244 C 
ENDROOT
BRANCH   2   8
ATOM      8  S   UNL     1      31.547 -10.841 -21.274  0.00  0.00    +0.069 S 
ATOM      9  O   UNL     1      32.551 -10.717 -20.237  0.00  0.00    -0.152 OA
ATOM     10  O   UNL     1      30.167 -11.157 -20.971  0.00  0.00    -0.152 OA
BRANCH   8  13
ATOM     11 CL   UNL     1      31.718  -2.887 -23.123  0.00  0.00    -0.082 Cl
ATOM     12  S   UNL     1      31.913  -7.960 -20.988  0.00  0.00    -0.067 S 
ATOM     13  C   UNL     1      31.462  -9.218 -22.024  0.00  0.00    +0.152 C 
ATOM     14  C   UNL     1      31.106  -8.810 -23.264  0.00  0.00    +0.027 C 
ATOM     15  C   UNL     1      31.197  -7.385 -23.405  0.00  0.00    +0.008 C 
ATOM     16  C   UNL     1      31.633  -6.786 -22.219  0.00  0.00    +0.032 C 
ATOM     17  C   UNL     1      30.924  -6.550 -24.515  0.00  0.00    +0.001 C 
ATOM     18  C   UNL     1      31.799  -5.391 -22.116  0.00  0.00    +0.018 C 
ATOM     19  C   UNL     1      31.088  -5.166 -24.417  0.00  0.00    +0.011 C 
ATOM     20  C   UNL     1      31.520  -4.595 -23.229  0.00  0.00    +0.058 C 
ENDBRANCH   8  13
ENDBRANCH   2   8
BRANCH   3  21
ATOM     21  C   UNL     1      33.721 -14.695 -25.256  0.00  0.00    +0.120 C 
BRANCH  21  22
ATOM     22  C   UNL     1      34.125 -15.977 -24.595  0.00  0.00    -0.002 C 
ATOM     23  C   UNL     1      34.460 -15.982 -23.245  0.00  0.00    +0.000 C 
ATOM     24  C   UNL     1      34.162 -17.154 -25.337  0.00  0.00    -0.003 C 
ATOM     25  C   UNL     1      34.837 -17.176 -22.630  0.00  0.00    +0.030 C 
ATOM     26  C   UNL     1      34.540 -18.348 -24.721  0.00  0.00    -0.000 C 
ATOM     27  C   UNL     1      34.877 -18.359 -23.368  0.00  0.00    +0.003 C 
BRANCH  25  30
ATOM     28  N   UNL     1      35.739 -18.319 -20.618  0.00  0.00    -0.343 N 
ATOM     29  N   UNL     1      34.984 -16.111 -20.480  0.00  0.00    -0.285 NA
ATOM     30  C   UNL     1      35.189 -17.188 -21.218  0.00  0.00    +0.117 C 
ATOM     31  H   UNL     1      35.969 -18.306 -19.661  0.00  0.00    +0.144 HD
ATOM     32  H   UNL     1      35.896 -19.132 -21.150  0.00  0.00    +0.144 HD
ATOM     33  H   UNL     1      35.222 -16.118 -19.524  0.00  0.00    +0.188 HD
ENDBRANCH  25  30
ENDBRANCH  21  22
ENDBRANCH   3  21
TORSDOF 5
ENDMDL
MODEL 8
REMARK VINA RESULT:     -10.4      9.774     14.818
REMARK  Name = 447359
REMARK  5 active torsions:
REMARK  status: ('A' for Active; 'I' for Inactive)
REMARK    1  A    between atoms: N_2  and  S_8
REMARK    2  A    between atoms: N_3  and  C_21
REMARK    3  A    between atoms: S_8  and  C_13
REMARK    4  A    between atoms: C_21  and  C_22
REMARK    5  A    between atoms: C_25  and  C_30
REMARK                            x       y       z     vdW  Elec       q    Type
REMARK                         _______ _______ _______ _____ _____    ______ ____
ROOT
ATOM      1  O   UNL     1      34.204 -11.790 -24.764  0.00  0.00    -0.273 OA
ATOM      2  N   UNL     1      32.475  -9.382 -22.687  0.00  0.00    -0.144 NA
ATOM      3  N   UNL     1      32.531 -12.134 -23.198  0.00  0.00    -0.273 N 
ATOM      4  C   UNL     1      32.040 -10.301 -21.612  0.00  0.00    +0.118 C 
ATOM      5  C   UNL     1      31.545 -11.564 -22.284  0.00  0.00    +0.113 C 
ATOM      6  C   UNL     1      33.630  -9.925 -23.427  0.00  0.00    +0.181 C 
ATOM      7  C   UNL     1      33.466 -11.356 -23.875  0.00  0.00    +0.244 C 
ENDROOT
BRANCH   2   8
ATOM      8  S   UNL     1      32.582  -7.728 -22.257  0.00  0.00    +0.069 S 
ATOM      9  O   UNL     1      33.703  -7.558 -21.356  0.00  0.00    -0.152 OA
ATOM     10  O   UNL     1      31.259  -7.234 -21.939  0.00  0.00    -0.152 OA
BRANCH   8  13
ATOM     11 CL   UNL     1      33.031  -2.941 -28.860  0.00  0.00    -0.082 Cl
ATOM     12  S   UNL     1      31.810  -5.823 -24.328  0.00  0.00    -0.067 S 
ATOM     13  C   UNL     1      33.038  -6.819 -23.730  0.00  0.00    +0.152 C 
ATOM     14  C   UNL     1      34.181  -6.780 -24.453  0.00  0.00    +0.027 C 
ATOM     15  C   UNL     1      34.076  -5.887 -25.572  0.00  0.00    +0.008 C 
ATOM     16  C   UNL     1      32.813  -5.289 -25.625  0.00  0.00    +0.032 C 
ATOM     17  C   UNL     1      35.018  -5.549 -26.572  0.00  0.00    +0.001 C 
ATOM     18  C   UNL     1      32.474  -4.372 -26.640  0.00  0.00    +0.018 C 
ATOM     19  C   UNL     1      34.686  -4.641 -27.580  0.00  0.00    +0.011 C 
ATOM     20  C   UNL     1      33.426  -4.060 -27.612  0.00  0.00    +0.058 C 
ENDBRANCH   8  13
ENDBRANCH   2   8
BRANCH   3  21
ATOM     21  C   UNL     1      32.342 -13.533 -23.557  0.00  0.00    +0.120 C 
BRANCH  21  22
ATOM     22  C   UNL     1      33.154 -14.400 -22.645  0.00  0.00    -0.002 C 
ATOM     23  C   UNL     1      33.887 -15.459 -23.171  0.00  0.00    +0.000 C 
ATOM     24  C   UNL     1      33.171 -14.140 -21.278  0.00  0.00    -0.003 C 
ATOM     25  C   UNL     1      34.643 -16.267 -22.322  0.00  0.00    +0.030 C 
ATOM     26  C   UNL     1      33.926 -14.949 -20.429  0.00  0.00    -0.000 C 
ATOM     27  C   UNL     1      34.663 -16.012 -20.950  0.00  0.00    +0.003 C 
BRANCH  25  30
ATOM     28  N   UNL     1      36.171 -18.205 -22.041  0.00  0.00    -0.343 N 
ATOM     29  N   UNL     1      35.398 -17.611 -24.166  0.00  0.00    -0.285 NA
ATOM     30  C   UNL     1      35.411 -17.377 -22.865  0.00  0.00    +0.117 C 
ATOM     31  H   UNL     1      36.683 -18.950 -22.430  0.00  0.00    +0.144 HD
ATOM     32  H   UNL     1      36.196 -18.044 -21.071  0.00  0.00    +0.144 HD
ATOM     33  H   UNL     1      35.917 -18.362 -24.536  0.00  0.00    +0.188 HD
ENDBRANCH  25  30
ENDBRANCH  21  22
ENDBRANCH   3  21
TORSDOF 5
ENDMDL
MODEL 9
REMARK VINA RESULT:     -10.2      1.145      1.567
REMARK  Name = 447359
REMARK  5 active torsions:
REMARK  status: ('A' for Active; 'I' for Inactive)
REMARK    1  A    between atoms: N_2  and  S_8
REMARK    2  A    between atoms: N_3  and  C_21
REMARK    3  A    between atoms: S_8  and  C_13
REMARK    4  A    between atoms: C_21  and  C_22
REMARK    5  A    between atoms: C_25  and  C_30
REMARK                            x       y       z     vdW  Elec       q    Type
REMARK                         _______ _______ _______ _____ _____    ______ ____
ROOT
ATOM      1  O   UNL     1      37.856 -20.170 -20.371  0.00  0.00    -0.273 OA
ATOM      2  N   UNL     1      34.479 -21.190 -19.559  0.00  0.00    -0.144 NA
ATOM      3  N   UNL     1      35.841 -19.211 -20.997  0.00  0.00    -0.273 N 
ATOM      4  C   UNL     1      33.783 -20.550 -20.697  0.00  0.00    +0.118 C 
ATOM      5  C   UNL     1      34.387 -19.172 -20.866  0.00  0.00    +0.113 C 
ATOM      6  C   UNL     1      35.908 -21.408 -19.854  0.00  0.00    +0.181 C 
ATOM      7  C   UNL     1      36.622 -20.200 -20.406  0.00  0.00    +0.244 C 
ENDROOT
BRANCH   2   8
ATOM      8  S   UNL     1      33.663 -22.506 -18.830  0.00  0.00    +0.069 S 
ATOM      9  O   UNL     1      33.924 -23.698 -19.610  0.00  0.00    -0.152 OA
ATOM     10  O   UNL     1      32.320 -22.097 -18.479  0.00  0.00    -0.152 OA
BRANCH   8  13
ATOM     11 CL   UNL     1      35.631 -24.460 -11.147  0.00  0.00    -0.082 Cl
ATOM     12  S   UNL     1      33.400 -23.443 -16.079  0.00  0.00    -0.067 S 
ATOM     13  C   UNL     1      34.445 -22.814 -17.250  0.00  0.00    +0.152 C 
ATOM     14  C   UNL     1      35.716 -22.639 -16.818  0.00  0.00    +0.027 C 
ATOM     15  C   UNL     1      35.874 -23.035 -15.447  0.00  0.00    +0.008 C 
ATOM     16  C   UNL     1      34.669 -23.501 -14.913  0.00  0.00    +0.032 C 
ATOM     17  C   UNL     1      37.016 -23.020 -14.611  0.00  0.00    +0.001 C 
ATOM     18  C   UNL     1      34.578 -23.946 -13.579  0.00  0.00    +0.018 C 
ATOM     19  C   UNL     1      36.930 -23.461 -13.288  0.00  0.00    +0.011 C 
ATOM     20  C   UNL     1      35.722 -23.918 -12.780  0.00  0.00    +0.058 C 
ENDBRANCH   8  13
ENDBRANCH   2   8
BRANCH   3  21
ATOM     21  C   UNL     1      36.467 -18.031 -21.579  0.00  0.00    +0.120 C 
BRANCH  21  22
ATOM     22  C   UNL     1      35.472 -17.303 -22.430  0.00  0.00    -0.002 C 
ATOM     23  C   UNL     1      34.732 -16.258 -21.886  0.00  0.00    +0.000 C 
ATOM     24  C   UNL     1      35.293 -17.679 -23.758  0.00  0.00    -0.003 C 
ATOM     25  C   UNL     1      33.804 -15.581 -22.678  0.00  0.00    +0.030 C 
ATOM     26  C   UNL     1      34.365 -17.002 -24.549  0.00  0.00    -0.000 C 
ATOM     27  C   UNL     1      33.620 -15.953 -24.010  0.00  0.00    +0.003 C 
BRANCH  25  30
ATOM     28  N   UNL     1      32.179 -13.718 -22.910  0.00  0.00    -0.343 N 
ATOM     29  N   UNL     1      33.124 -14.206 -20.828  0.00  0.00    -0.285 NA
ATOM     30  C   UNL     1      33.028 -14.487 -22.116  0.00  0.00    +0.117 C 
ATOM     31  H   UNL     1      31.662 -12.982 -22.509  0.00  0.00    +0.144 HD
ATOM     32  H   UNL     1      32.096 -13.910 -23.871  0.00  0.00    +0.144 HD
ATOM     33  H   UNL     1      32.599 -13.465 -20.446  0.00  0.00    +0.188 HD
ENDBRANCH  25  30
ENDBRANCH  21  22
ENDBRANCH   3  21
TORSDOF 5
ENDMDL
