MODEL 1
REMARK VINA RESULT:      -2.8      0.000      0.000
REMARK  Name = 280
REMARK  0 active torsions:
REMARK  status: ('A' for Active; 'I' for Inactive)
REMARK                            x       y       z     vdW  Elec       q    Type
REMARK                         _______ _______ _______ _____ _____    ______ ____
ROOT
ATOM      1  O   UNL     1      26.282 -20.502 -18.203  0.00  0.00    -0.186 OA
ATOM      2  O   UNL     1      25.654 -21.903 -16.366  0.00  0.00    -0.186 OA
ATOM      3  C   UNL     1      25.968 -21.203 -17.284  0.00  0.00    +0.372 C 
ENDROOT
TORSDOF 0
ENDMDL
MODEL 2
REMARK VINA RESULT:      -2.7      2.737      3.013
REMARK  Name = 280
REMARK  0 active torsions:
REMARK  status: ('A' for Active; 'I' for Inactive)
REMARK                            x       y       z     vdW  Elec       q    Type
REMARK                         _______ _______ _______ _____ _____    ______ ____
ROOT
ATOM      1  O   UNL     1      27.703 -24.026 -17.549  0.00  0.00    -0.186 OA
ATOM      2  O   UNL     1      28.031 -21.768 -16.823  0.00  0.00    -0.186 OA
ATOM      3  C   UNL     1      27.867 -22.897 -17.186  0.00  0.00    +0.372 C 
ENDROOT
TORSDOF 0
ENDMDL
MODEL 3
REMARK VINA RESULT:      -2.6     15.274     15.360
REMARK  Name = 280
REMARK  0 active torsions:
REMARK  status: ('A' for Active; 'I' for Inactive)
REMARK                            x       y       z     vdW  Elec       q    Type
REMARK                         _______ _______ _______ _____ _____    ______ ____
ROOT
ATOM      1  O   UNL     1      39.500 -26.668 -14.702  0.00  0.00    -0.186 OA
ATOM      2  O   UNL     1      41.078 -24.871 -14.600  0.00  0.00    -0.186 OA
ATOM      3  C   UNL     1      40.289 -25.770 -14.651  0.00  0.00    +0.372 C 
ENDROOT
TORSDOF 0
ENDMDL
MODEL 4
REMARK VINA RESULT:      -2.6     15.282     15.295
REMARK  Name = 280
REMARK  0 active torsions:
REMARK  status: ('A' for Active; 'I' for Inactive)
REMARK                            x       y       z     vdW  Elec       q    Type
REMARK                         _______ _______ _______ _____ _____    ______ ____
ROOT
ATOM      1  O   UNL     1      41.077 -24.866 -14.591  0.00  0.00    -0.186 OA
ATOM      2  O   UNL     1      39.514 -26.677 -14.692  0.00  0.00    -0.186 OA
ATOM      3  C   UNL     1      40.296 -25.771 -14.642  0.00  0.00    +0.372 C 
ENDROOT
TORSDOF 0
ENDMDL
MODEL 5
REMARK VINA RESULT:      -2.3     16.265     16.577
REMARK  Name = 280
REMARK  0 active torsions:
REMARK  status: ('A' for Active; 'I' for Inactive)
REMARK                            x       y       z     vdW  Elec       q    Type
REMARK                         _______ _______ _______ _____ _____    ______ ____
ROOT
ATOM      1  O   UNL     1      40.495 -16.322 -15.668  0.00  0.00    -0.186 OA
ATOM      2  O   UNL     1      42.838 -16.331 -16.161  0.00  0.00    -0.186 OA
ATOM      3  C   UNL     1      41.667 -16.326 -15.915  0.00  0.00    +0.372 C 
ENDROOT
TORSDOF 0
ENDMDL
MODEL 6
REMARK VINA RESULT:      -2.3     12.436     12.450
REMARK  Name = 280
REMARK  0 active torsions:
REMARK  status: ('A' for Active; 'I' for Inactive)
REMARK                            x       y       z     vdW  Elec       q    Type
REMARK                         _______ _______ _______ _____ _____    ______ ____
ROOT
ATOM      1  O   UNL     1      36.681 -27.355 -16.274  0.00  0.00    -0.186 OA
ATOM      2  O   UNL     1      37.012 -26.226 -14.189  0.00  0.00    -0.186 OA
ATOM      3  C   UNL     1      36.847 -26.790 -15.231  0.00  0.00    +0.372 C 
ENDROOT
TORSDOF 0
ENDMDL
MODEL 7
REMARK VINA RESULT:      -2.2     12.750     12.825
REMARK  Name = 280
REMARK  0 active torsions:
REMARK  status: ('A' for Active; 'I' for Inactive)
REMARK                            x       y       z     vdW  Elec       q    Type
REMARK                         _______ _______ _______ _____ _____    ______ ____
ROOT
ATOM      1  O   UNL     1      37.720 -23.130 -13.181  0.00  0.00    -0.186 OA
ATOM      2  O   UNL     1      37.280 -22.842 -10.845  0.00  0.00    -0.186 OA
ATOM      3  C   UNL     1      37.500 -22.986 -12.013  0.00  0.00    +0.372 C 
ENDROOT
TORSDOF 0
ENDMDL
MODEL 8
REMARK VINA RESULT:      -2.2     15.965     16.187
REMARK  Name = 280
REMARK  0 active torsions:
REMARK  status: ('A' for Active; 'I' for Inactive)
REMARK                            x       y       z     vdW  Elec       q    Type
REMARK                         _______ _______ _______ _____ _____    ______ ____
ROOT
ATOM      1  O   UNL     1      40.818 -14.733 -14.310  0.00  0.00    -0.186 OA
ATOM      2  O   UNL     1      40.989 -16.300 -16.112  0.00  0.00    -0.186 OA
ATOM      3  C   UNL     1      40.904 -15.517 -15.211  0.00  0.00    +0.372 C 
ENDROOT
TORSDOF 0
ENDMDL
MODEL 9
REMARK VINA RESULT:      -2.1      7.422      7.801
REMARK  Name = 280
REMARK  0 active torsions:
REMARK  status: ('A' for Active; 'I' for Inactive)
REMARK                            x       y       z     vdW  Elec       q    Type
REMARK                         _______ _______ _______ _____ _____    ______ ____
ROOT
ATOM      1  O   UNL     1      33.546 -19.748 -21.355  0.00  0.00    -0.186 OA
ATOM      2  O   UNL     1      32.569 -20.810 -19.445  0.00  0.00    -0.186 OA
ATOM      3  C   UNL     1      33.057 -20.279 -20.400  0.00  0.00    +0.372 C 
ENDROOT
TORSDOF 0
ENDMDL
