MODEL 1
REMARK VINA RESULT:      -8.1      0.000      0.000
REMARK  Name = 691952
REMARK  2 active torsions:
REMARK  status: ('A' for Active; 'I' for Inactive)
REMARK    1  A    between atoms: C_4  and  C_9
REMARK    2  A    between atoms: C_9  and  C_10
REMARK                            x       y       z     vdW  Elec       q    Type
REMARK                         _______ _______ _______ _____ _____    ______ ____
ROOT
ATOM      1  S   UNL     1      34.917 -16.428 -23.290  0.00  0.00    -0.056 S 
ATOM      2  N   UNL     1      34.437 -18.001 -25.284  0.00  0.00    -0.223 NA
ATOM      3  N   UNL     1      33.821 -15.742 -25.614  0.00  0.00    -0.337 N 
ATOM      4  C   UNL     1      35.318 -18.070 -23.159  0.00  0.00    +0.033 C 
ATOM      5  C   UNL     1      35.008 -18.760 -24.281  0.00  0.00    +0.103 C 
ATOM      6  C   UNL     1      34.340 -16.757 -24.873  0.00  0.00    +0.156 C 
ATOM      7  H   UNL     1      33.779 -14.832 -25.242  0.00  0.00    +0.144 HD
ATOM      8  H   UNL     1      33.487 -15.919 -26.524  0.00  0.00    +0.144 HD
ENDROOT
BRANCH   4   9
ATOM      9  C   UNL     1      35.950 -18.582 -21.880  0.00  0.00    +0.061 C 
BRANCH   9  10
ATOM     10  C   UNL     1      35.073 -19.502 -21.098  0.00  0.00    -0.017 C 
ATOM     11  C   UNL     1      35.635 -20.557 -20.379  0.00  0.00    -0.004 C 
ATOM     12  C   UNL     1      33.692 -19.307 -21.088  0.00  0.00    -0.004 C 
ATOM     13  C   UNL     1      34.814 -21.417 -19.648  0.00  0.00    -0.000 C 
ATOM     14  C   UNL     1      32.872 -20.167 -20.357  0.00  0.00    -0.000 C 
ATOM     15  C   UNL     1      33.434 -21.222 -19.637  0.00  0.00    -0.000 C 
ENDBRANCH   9  10
ENDBRANCH   4   9
TORSDOF 2
ENDMDL
MODEL 2
REMARK VINA RESULT:      -8.1      0.032      1.341
REMARK  Name = 691952
REMARK  2 active torsions:
REMARK  status: ('A' for Active; 'I' for Inactive)
REMARK    1  A    between atoms: C_4  and  C_9
REMARK    2  A    between atoms: C_9  and  C_10
REMARK                            x       y       z     vdW  Elec       q    Type
REMARK                         _______ _______ _______ _____ _____    ______ ____
ROOT
ATOM      1  S   UNL     1      34.933 -16.444 -23.279  0.00  0.00    -0.056 S 
ATOM      2  N   UNL     1      34.445 -18.013 -25.274  0.00  0.00    -0.223 NA
ATOM      3  N   UNL     1      33.826 -15.754 -25.597  0.00  0.00    -0.337 N 
ATOM      4  C   UNL     1      35.336 -18.085 -23.153  0.00  0.00    +0.033 C 
ATOM      5  C   UNL     1      35.020 -18.773 -24.275  0.00  0.00    +0.103 C 
ATOM      6  C   UNL     1      34.350 -16.770 -24.859  0.00  0.00    +0.156 C 
ATOM      7  H   UNL     1      33.786 -14.844 -25.223  0.00  0.00    +0.144 HD
ATOM      8  H   UNL     1      33.488 -15.929 -26.505  0.00  0.00    +0.144 HD
ENDROOT
BRANCH   4   9
ATOM      9  C   UNL     1      35.973 -18.599 -21.878  0.00  0.00    +0.061 C 
BRANCH   9  10
ATOM     10  C   UNL     1      35.101 -19.521 -21.094  0.00  0.00    -0.017 C 
ATOM     11  C   UNL     1      33.719 -19.329 -21.079  0.00  0.00    -0.004 C 
ATOM     12  C   UNL     1      35.668 -20.574 -20.375  0.00  0.00    -0.004 C 
ATOM     13  C   UNL     1      32.904 -20.192 -20.345  0.00  0.00    -0.000 C 
ATOM     14  C   UNL     1      34.852 -21.436 -19.642  0.00  0.00    -0.000 C 
ATOM     15  C   UNL     1      33.469 -21.245 -19.627  0.00  0.00    -0.000 C 
ENDBRANCH   9  10
ENDBRANCH   4   9
TORSDOF 2
ENDMDL
MODEL 3
REMARK VINA RESULT:      -7.9      3.275      5.483
REMARK  Name = 691952
REMARK  2 active torsions:
REMARK  status: ('A' for Active; 'I' for Inactive)
REMARK    1  A    between atoms: C_4  and  C_9
REMARK    2  A    between atoms: C_9  and  C_10
REMARK                            x       y       z     vdW  Elec       q    Type
REMARK                         _______ _______ _______ _____ _____    ______ ____
ROOT
ATOM      1  S   UNL     1      35.136 -21.153 -19.869  0.00  0.00    -0.056 S 
ATOM      2  N   UNL     1      32.643 -20.525 -20.127  0.00  0.00    -0.223 NA
ATOM      3  N   UNL     1      33.069 -22.412 -18.767  0.00  0.00    -0.337 N 
ATOM      4  C   UNL     1      34.718 -19.817 -20.824  0.00  0.00    +0.033 C 
ATOM      5  C   UNL     1      33.381 -19.617 -20.860  0.00  0.00    +0.103 C 
ATOM      6  C   UNL     1      33.464 -21.381 -19.562  0.00  0.00    +0.156 C 
ATOM      7  H   UNL     1      33.740 -23.017 -18.376  0.00  0.00    +0.144 HD
ATOM      8  H   UNL     1      32.111 -22.553 -18.584  0.00  0.00    +0.144 HD
ENDROOT
BRANCH   4   9
ATOM      9  C   UNL     1      35.812 -19.018 -21.506  0.00  0.00    +0.061 C 
BRANCH   9  10
ATOM     10  C   UNL     1      35.363 -18.308 -22.739  0.00  0.00    -0.017 C 
ATOM     11  C   UNL     1      35.319 -16.914 -22.763  0.00  0.00    -0.004 C 
ATOM     12  C   UNL     1      34.988 -19.039 -23.866  0.00  0.00    -0.004 C 
ATOM     13  C   UNL     1      34.899 -16.251 -23.917  0.00  0.00    -0.000 C 
ATOM     14  C   UNL     1      34.569 -18.375 -25.019  0.00  0.00    -0.000 C 
ATOM     15  C   UNL     1      34.525 -16.980 -25.045  0.00  0.00    -0.000 C 
ENDBRANCH   9  10
ENDBRANCH   4   9
TORSDOF 2
ENDMDL
MODEL 4
REMARK VINA RESULT:      -7.8      1.979      2.588
REMARK  Name = 691952
REMARK  2 active torsions:
REMARK  status: ('A' for Active; 'I' for Inactive)
REMARK    1  A    between atoms: C_4  and  C_9
REMARK    2  A    between atoms: C_9  and  C_10
REMARK                            x       y       z     vdW  Elec       q    Type
REMARK                         _______ _______ _______ _____ _____    ______ ____
ROOT
ATOM      1  S   UNL     1      34.832 -16.220 -23.523  0.00  0.00    -0.056 S 
ATOM      2  N   UNL     1      34.580 -15.230 -21.149  0.00  0.00    -0.223 NA
ATOM      3  N   UNL     1      34.236 -13.700 -22.919  0.00  0.00    -0.337 N 
ATOM      4  C   UNL     1      35.060 -17.230 -22.181  0.00  0.00    +0.033 C 
ATOM      5  C   UNL     1      34.894 -16.567 -21.013  0.00  0.00    +0.103 C 
ATOM      6  C   UNL     1      34.522 -14.936 -22.429  0.00  0.00    +0.156 C 
ATOM      7  H   UNL     1      34.210 -13.550 -23.892  0.00  0.00    +0.144 HD
ATOM      8  H   UNL     1      34.057 -12.955 -22.301  0.00  0.00    +0.144 HD
ENDROOT
BRANCH   4   9
ATOM      9  C   UNL     1      35.404 -18.690 -22.398  0.00  0.00    +0.061 C 
BRANCH   9  10
ATOM     10  C   UNL     1      34.825 -19.607 -21.373  0.00  0.00    -0.017 C 
ATOM     11  C   UNL     1      33.441 -19.691 -21.216  0.00  0.00    -0.004 C 
ATOM     12  C   UNL     1      35.667 -20.379 -20.573  0.00  0.00    -0.004 C 
ATOM     13  C   UNL     1      32.900 -20.549 -20.258  0.00  0.00    -0.000 C 
ATOM     14  C   UNL     1      35.125 -21.236 -19.615  0.00  0.00    -0.000 C 
ATOM     15  C   UNL     1      33.741 -21.321 -19.458  0.00  0.00    -0.000 C 
ENDBRANCH   9  10
ENDBRANCH   4   9
TORSDOF 2
ENDMDL
MODEL 5
REMARK VINA RESULT:      -7.6      3.558      5.445
REMARK  Name = 691952
REMARK  2 active torsions:
REMARK  status: ('A' for Active; 'I' for Inactive)
REMARK    1  A    between atoms: C_4  and  C_9
REMARK    2  A    between atoms: C_9  and  C_10
REMARK                            x       y       z     vdW  Elec       q    Type
REMARK                         _______ _______ _______ _____ _____    ______ ____
ROOT
ATOM      1  S   UNL     1      35.155 -21.038 -19.836  0.00  0.00    -0.056 S 
ATOM      2  N   UNL     1      32.646 -20.599 -20.279  0.00  0.00    -0.223 NA
ATOM      3  N   UNL     1      33.114 -22.475 -18.918  0.00  0.00    -0.337 N 
ATOM      4  C   UNL     1      34.708 -19.719 -20.802  0.00  0.00    +0.033 C 
ATOM      5  C   UNL     1      33.365 -19.622 -20.939  0.00  0.00    +0.103 C 
ATOM      6  C   UNL     1      33.487 -21.401 -19.664  0.00  0.00    +0.156 C 
ATOM      7  H   UNL     1      33.798 -23.035 -18.484  0.00  0.00    +0.144 HD
ATOM      8  H   UNL     1      32.159 -22.693 -18.813  0.00  0.00    +0.144 HD
ENDROOT
BRANCH   4   9
ATOM      9  C   UNL     1      35.784 -18.824 -21.384  0.00  0.00    +0.061 C 
BRANCH   9  10
ATOM     10  C   UNL     1      35.297 -17.470 -21.780  0.00  0.00    -0.017 C 
ATOM     11  C   UNL     1      34.897 -16.560 -20.801  0.00  0.00    -0.004 C 
ATOM     12  C   UNL     1      35.240 -17.116 -23.128  0.00  0.00    -0.004 C 
ATOM     13  C   UNL     1      34.441 -15.294 -21.172  0.00  0.00    -0.000 C 
ATOM     14  C   UNL     1      34.785 -15.851 -23.497  0.00  0.00    -0.000 C 
ATOM     15  C   UNL     1      34.385 -14.939 -22.519  0.00  0.00    -0.000 C 
ENDBRANCH   9  10
ENDBRANCH   4   9
TORSDOF 2
ENDMDL
MODEL 6
REMARK VINA RESULT:      -7.2      2.688      3.049
REMARK  Name = 691952
REMARK  2 active torsions:
REMARK  status: ('A' for Active; 'I' for Inactive)
REMARK    1  A    between atoms: C_4  and  C_9
REMARK    2  A    between atoms: C_9  and  C_10
REMARK                            x       y       z     vdW  Elec       q    Type
REMARK                         _______ _______ _______ _____ _____    ______ ____
ROOT
ATOM      1  S   UNL     1      33.558 -15.244 -23.084  0.00  0.00    -0.056 S 
ATOM      2  N   UNL     1      33.295 -14.562 -20.605  0.00  0.00    -0.223 NA
ATOM      3  N   UNL     1      31.997 -13.310 -22.136  0.00  0.00    -0.337 N 
ATOM      4  C   UNL     1      34.445 -16.075 -21.903  0.00  0.00    +0.033 C 
ATOM      5  C   UNL     1      34.199 -15.605 -20.658  0.00  0.00    +0.103 C 
ATOM      6  C   UNL     1      32.892 -14.287 -21.825  0.00  0.00    +0.156 C 
ATOM      7  H   UNL     1      31.740 -13.159 -23.073  0.00  0.00    +0.144 HD
ATOM      8  H   UNL     1      31.609 -12.755 -21.421  0.00  0.00    +0.144 HD
ENDROOT
BRANCH   4   9
ATOM      9  C   UNL     1      35.370 -17.200 -22.322  0.00  0.00    +0.061 C 
BRANCH   9  10
ATOM     10  C   UNL     1      35.198 -18.452 -21.529  0.00  0.00    -0.017 C 
ATOM     11  C   UNL     1      36.313 -19.098 -20.995  0.00  0.00    -0.004 C 
ATOM     12  C   UNL     1      33.922 -18.977 -21.322  0.00  0.00    -0.004 C 
ATOM     13  C   UNL     1      36.152 -20.269 -20.253  0.00  0.00    -0.000 C 
ATOM     14  C   UNL     1      33.761 -20.147 -20.581  0.00  0.00    -0.000 C 
ATOM     15  C   UNL     1      34.876 -20.794 -20.046  0.00  0.00    -0.000 C 
ENDBRANCH   9  10
ENDBRANCH   4   9
TORSDOF 2
ENDMDL
MODEL 7
REMARK VINA RESULT:      -7.0      5.886      7.699
REMARK  Name = 691952
REMARK  2 active torsions:
REMARK  status: ('A' for Active; 'I' for Inactive)
REMARK    1  A    between atoms: C_4  and  C_9
REMARK    2  A    between atoms: C_9  and  C_10
REMARK                            x       y       z     vdW  Elec       q    Type
REMARK                         _______ _______ _______ _____ _____    ______ ____
ROOT
ATOM      1  S   UNL     1      32.124 -23.153 -16.540  0.00  0.00    -0.056 S 
ATOM      2  N   UNL     1      34.207 -23.057 -15.012  0.00  0.00    -0.223 NA
ATOM      3  N   UNL     1      32.129 -22.940 -13.889  0.00  0.00    -0.337 N 
ATOM      4  C   UNL     1      33.665 -23.228 -17.242  0.00  0.00    +0.033 C 
ATOM      5  C   UNL     1      34.649 -23.167 -16.316  0.00  0.00    +0.103 C 
ATOM      6  C   UNL     1      32.893 -23.040 -15.010  0.00  0.00    +0.156 C 
ATOM      7  H   UNL     1      31.147 -22.933 -13.961  0.00  0.00    +0.144 HD
ATOM      8  H   UNL     1      32.559 -22.874 -13.006  0.00  0.00    +0.144 HD
ENDROOT
BRANCH   4   9
ATOM      9  C   UNL     1      33.791 -23.351 -18.748  0.00  0.00    +0.061 C 
BRANCH   9  10
ATOM     10  C   UNL     1      34.115 -22.067 -19.435  0.00  0.00    -0.017 C 
ATOM     11  C   UNL     1      35.446 -21.714 -19.663  0.00  0.00    -0.004 C 
ATOM     12  C   UNL     1      33.087 -21.219 -19.848  0.00  0.00    -0.004 C 
ATOM     13  C   UNL     1      35.748 -20.513 -20.305  0.00  0.00    -0.000 C 
ATOM     14  C   UNL     1      33.390 -20.018 -20.490  0.00  0.00    -0.000 C 
ATOM     15  C   UNL     1      34.721 -19.665 -20.719  0.00  0.00    -0.000 C 
ENDBRANCH   9  10
ENDBRANCH   4   9
TORSDOF 2
ENDMDL
MODEL 8
REMARK VINA RESULT:      -6.9      6.957      8.412
REMARK  Name = 691952
REMARK  2 active torsions:
REMARK  status: ('A' for Active; 'I' for Inactive)
REMARK    1  A    between atoms: C_4  and  C_9
REMARK    2  A    between atoms: C_9  and  C_10
REMARK                            x       y       z     vdW  Elec       q    Type
REMARK                         _______ _______ _______ _____ _____    ______ ____
ROOT
ATOM      1  S   UNL     1      32.097  -9.311 -21.565  0.00  0.00    -0.056 S 
ATOM      2  N   UNL     1      32.182  -9.498 -18.988  0.00  0.00    -0.223 NA
ATOM      3  N   UNL     1      32.847  -7.406 -19.868  0.00  0.00    -0.337 N 
ATOM      4  C   UNL     1      31.642 -10.769 -20.829  0.00  0.00    +0.033 C 
ATOM      5  C   UNL     1      31.739 -10.710 -19.481  0.00  0.00    +0.103 C 
ATOM      6  C   UNL     1      32.402  -8.685 -19.997  0.00  0.00    +0.156 C 
ATOM      7  H   UNL     1      32.991  -6.851 -20.668  0.00  0.00    +0.144 HD
ATOM      8  H   UNL     1      33.026  -7.036 -18.973  0.00  0.00    +0.144 HD
ENDROOT
BRANCH   4   9
ATOM      9  C   UNL     1      31.194 -11.931 -21.694  0.00  0.00    +0.061 C 
BRANCH   9  10
ATOM     10  C   UNL     1      32.266 -12.934 -21.961  0.00  0.00    -0.017 C 
ATOM     11  C   UNL     1      32.944 -12.922 -23.180  0.00  0.00    -0.004 C 
ATOM     12  C   UNL     1      32.588 -13.885 -20.992  0.00  0.00    -0.004 C 
ATOM     13  C   UNL     1      33.946 -13.861 -23.429  0.00  0.00    -0.000 C 
ATOM     14  C   UNL     1      33.589 -14.823 -21.241  0.00  0.00    -0.000 C 
ATOM     15  C   UNL     1      34.269 -14.811 -22.460  0.00  0.00    -0.000 C 
ENDBRANCH   9  10
ENDBRANCH   4   9
TORSDOF 2
ENDMDL
MODEL 9
REMARK VINA RESULT:      -6.9      1.692      2.614
REMARK  Name = 691952
REMARK  2 active torsions:
REMARK  status: ('A' for Active; 'I' for Inactive)
REMARK    1  A    between atoms: C_4  and  C_9
REMARK    2  A    between atoms: C_9  and  C_10
REMARK                            x       y       z     vdW  Elec       q    Type
REMARK                         _______ _______ _______ _____ _____    ______ ____
ROOT
ATOM      1  S   UNL     1      34.495 -18.717 -23.446  0.00  0.00    -0.056 S 
ATOM      2  N   UNL     1      34.785 -16.514 -22.126  0.00  0.00    -0.223 NA
ATOM      3  N   UNL     1      35.529 -16.448 -24.370  0.00  0.00    -0.337 N 
ATOM      4  C   UNL     1      33.996 -18.655 -21.827  0.00  0.00    +0.033 C 
ATOM      5  C   UNL     1      34.211 -17.438 -21.275  0.00  0.00    +0.103 C 
ATOM      6  C   UNL     1      34.979 -17.078 -23.297  0.00  0.00    +0.156 C 
ATOM      7  H   UNL     1      35.645 -16.933 -25.219  0.00  0.00    +0.144 HD
ATOM      8  H   UNL     1      35.811 -15.507 -24.296  0.00  0.00    +0.144 HD
ENDROOT
BRANCH   4   9
ATOM      9  C   UNL     1      33.389 -19.888 -21.187  0.00  0.00    +0.061 C 
BRANCH   9  10
ATOM     10  C   UNL     1      34.316 -20.610 -20.268  0.00  0.00    -0.017 C 
ATOM     11  C   UNL     1      33.815 -21.560 -19.377  0.00  0.00    -0.004 C 
ATOM     12  C   UNL     1      35.683 -20.335 -20.298  0.00  0.00    -0.004 C 
ATOM     13  C   UNL     1      34.682 -22.235 -18.518  0.00  0.00    -0.000 C 
ATOM     14  C   UNL     1      36.550 -21.010 -19.438  0.00  0.00    -0.000 C 
ATOM     15  C   UNL     1      36.049 -21.961 -18.548  0.00  0.00    -0.000 C 
ENDBRANCH   9  10
ENDBRANCH   4   9
TORSDOF 2
ENDMDL
