MODEL 1
REMARK VINA RESULT:     -10.7      0.000      0.000
REMARK  Name = 9549258
REMARK  5 active torsions:
REMARK  status: ('A' for Active; 'I' for Inactive)
REMARK    1  A    between atoms: N_2  and  C_22
REMARK    2  A    between atoms: C_3  and  N_7
REMARK    3  A    between atoms: N_7  and  S_9
REMARK    4  A    between atoms: S_9  and  C_14
REMARK    5  A    between atoms: C_22  and  C_27
REMARK                            x       y       z     vdW  Elec       q    Type
REMARK                         _______ _______ _______ _____ _____    ______ ____
ROOT
ATOM      1  O   UNL     1      36.546 -20.446 -20.193  0.00  0.00    -0.273 OA
ATOM      2  N   UNL     1      34.938 -19.206 -21.382  0.00  0.00    -0.272 N 
ATOM      3  C   UNL     1      34.191 -21.046 -20.163  0.00  0.00    +0.153 C 
ATOM      4  C   UNL     1      33.016 -20.121 -20.463  0.00  0.00    +0.048 C 
ATOM      5  C   UNL     1      33.516 -19.276 -21.619  0.00  0.00    +0.096 C 
ATOM      6  C   UNL     1      35.396 -20.222 -20.543  0.00  0.00    +0.242 C 
ENDROOT
BRANCH   3   7
ATOM      7  N   UNL     1      34.253 -21.372 -18.734  0.00  0.00    -0.171 NA
ATOM      8  H   UNL     1      35.240 -21.439 -18.481  0.00  0.00    +0.149 HD
BRANCH   7   9
ATOM      9  S   UNL     1      33.493 -22.814 -18.200  0.00  0.00    +0.066 S 
ATOM     10  O   UNL     1      33.898 -23.913 -19.056  0.00  0.00    -0.152 OA
ATOM     11  O   UNL     1      32.093 -22.543 -17.935  0.00  0.00    -0.152 OA
BRANCH   9  14
ATOM     12 CL   UNL     1      38.046 -23.930 -11.511  0.00  0.00    -0.082 Cl
ATOM     13  S   UNL     1      35.805 -22.831 -16.422  0.00  0.00    -0.067 S 
ATOM     14  C   UNL     1      34.163 -23.194 -16.582  0.00  0.00    +0.151 C 
ATOM     15  C   UNL     1      33.600 -23.718 -15.471  0.00  0.00    +0.027 C 
ATOM     16  C   UNL     1      34.548 -23.840 -14.400  0.00  0.00    +0.008 C 
ATOM     17  C   UNL     1      35.812 -23.385 -14.788  0.00  0.00    +0.032 C 
ATOM     18  C   UNL     1      34.389 -24.328 -13.080  0.00  0.00    +0.001 C 
ATOM     19  C   UNL     1      36.907 -23.407 -13.903  0.00  0.00    +0.018 C 
ATOM     20  C   UNL     1      35.473 -24.352 -12.199  0.00  0.00    +0.011 C 
ATOM     21  C   UNL     1      36.719 -23.895 -12.608  0.00  0.00    +0.058 C 
ENDBRANCH   9  14
ENDBRANCH   7   9
ENDBRANCH   3   7
BRANCH   2  22
ATOM     22  C   UNL     1      35.774 -18.243 -22.066  0.00  0.00    +0.152 C 
ATOM     23  C   UNL     1      37.242 -18.589 -21.973  0.00  0.00    +0.031 C 
BRANCH  22  27
ATOM     24  O   UNL     1      33.548 -14.831 -25.048  0.00  0.00    -0.350 OA
ATOM     25  O   UNL     1      35.246 -19.374 -24.081  0.00  0.00    -0.273 OA
ATOM     26  N   UNL     1      34.955 -17.070 -24.076  0.00  0.00    -0.273 N 
ATOM     27  C   UNL     1      35.304 -18.289 -23.498  0.00  0.00    +0.244 C 
ATOM     28  C   UNL     1      35.130 -15.753 -23.457  0.00  0.00    +0.126 C 
ATOM     29  C   UNL     1      34.484 -17.026 -25.460  0.00  0.00    +0.126 C 
ATOM     30  C   UNL     1      33.882 -14.904 -23.659  0.00  0.00    +0.164 C 
ATOM     31  C   UNL     1      33.259 -16.128 -25.575  0.00  0.00    +0.164 C 
ENDBRANCH  22  27
ENDBRANCH   2  22
TORSDOF 5
ENDMDL
MODEL 2
REMARK VINA RESULT:     -10.5      4.362     10.118
REMARK  Name = 9549258
REMARK  5 active torsions:
REMARK  status: ('A' for Active; 'I' for Inactive)
REMARK    1  A    between atoms: N_2  and  C_22
REMARK    2  A    between atoms: C_3  and  N_7
REMARK    3  A    between atoms: N_7  and  S_9
REMARK    4  A    between atoms: S_9  and  C_14
REMARK    5  A    between atoms: C_22  and  C_27
REMARK                            x       y       z     vdW  Elec       q    Type
REMARK                         _______ _______ _______ _____ _____    ______ ____
ROOT
ATOM      1  O   UNL     1      36.278 -22.021 -15.060  0.00  0.00    -0.273 OA
ATOM      2  N   UNL     1      35.055 -23.555 -13.762  0.00  0.00    -0.272 N 
ATOM      3  C   UNL     1      34.208 -23.009 -15.863  0.00  0.00    +0.153 C 
ATOM      4  C   UNL     1      33.579 -24.313 -15.382  0.00  0.00    +0.048 C 
ATOM      5  C   UNL     1      33.819 -24.291 -13.885  0.00  0.00    +0.096 C 
ATOM      6  C   UNL     1      35.334 -22.777 -14.886  0.00  0.00    +0.242 C 
ENDROOT
BRANCH   3   7
ATOM      7  N   UNL     1      34.758 -23.155 -17.215  0.00  0.00    -0.171 NA
ATOM      8  H   UNL     1      35.515 -22.478 -17.309  0.00  0.00    +0.149 HD
BRANCH   7   9
ATOM      9  S   UNL     1      33.702 -22.925 -18.547  0.00  0.00    +0.066 S 
ATOM     10  O   UNL     1      32.416 -22.463 -18.062  0.00  0.00    -0.152 OA
ATOM     11  O   UNL     1      33.807 -24.065 -19.438  0.00  0.00    -0.152 OA
BRANCH   9  14
ATOM     12 CL   UNL     1      35.021 -16.376 -23.246  0.00  0.00    -0.082 Cl
ATOM     13  S   UNL     1      33.179 -20.598 -20.226  0.00  0.00    -0.067 S 
ATOM     14  C   UNL     1      34.364 -21.571 -19.516  0.00  0.00    +0.151 C 
ATOM     15  C   UNL     1      35.631 -21.186 -19.784  0.00  0.00    +0.027 C 
ATOM     16  C   UNL     1      35.667 -20.020 -20.621  0.00  0.00    +0.008 C 
ATOM     17  C   UNL     1      34.377 -19.587 -20.943  0.00  0.00    +0.032 C 
ATOM     18  C   UNL     1      36.766 -19.290 -21.137  0.00  0.00    +0.001 C 
ATOM     19  C   UNL     1      34.161 -18.458 -21.757  0.00  0.00    +0.018 C 
ATOM     20  C   UNL     1      36.555 -18.170 -21.944  0.00  0.00    +0.011 C 
ATOM     21  C   UNL     1      35.265 -17.759 -22.250  0.00  0.00    +0.058 C 
ENDBRANCH   9  14
ENDBRANCH   7   9
ENDBRANCH   3   7
BRANCH   2  22
ATOM     22  C   UNL     1      35.819 -23.558 -12.533  0.00  0.00    +0.152 C 
ATOM     23  C   UNL     1      35.517 -24.762 -11.672  0.00  0.00    +0.031 C 
BRANCH  22  27
ATOM     24  O   UNL     1      38.670 -27.080 -14.761  0.00  0.00    -0.350 OA
ATOM     25  O   UNL     1      38.013 -22.666 -12.629  0.00  0.00    -0.273 OA
ATOM     26  N   UNL     1      37.643 -24.641 -13.793  0.00  0.00    -0.273 N 
ATOM     27  C   UNL     1      37.257 -23.573 -12.986  0.00  0.00    +0.244 C 
ATOM     28  C   UNL     1      36.746 -25.664 -14.338  0.00  0.00    +0.126 C 
ATOM     29  C   UNL     1      39.022 -24.734 -14.272  0.00  0.00    +0.126 C 
ATOM     30  C   UNL     1      37.364 -27.048 -14.179  0.00  0.00    +0.164 C 
ATOM     31  C   UNL     1      39.545 -26.156 -14.110  0.00  0.00    +0.164 C 
ENDBRANCH  22  27
ENDBRANCH   2  22
TORSDOF 5
ENDMDL
MODEL 3
REMARK VINA RESULT:     -10.5      1.083      1.559
REMARK  Name = 9549258
REMARK  5 active torsions:
REMARK  status: ('A' for Active; 'I' for Inactive)
REMARK    1  A    between atoms: N_2  and  C_22
REMARK    2  A    between atoms: C_3  and  N_7
REMARK    3  A    between atoms: N_7  and  S_9
REMARK    4  A    between atoms: S_9  and  C_14
REMARK    5  A    between atoms: C_22  and  C_27
REMARK                            x       y       z     vdW  Elec       q    Type
REMARK                         _______ _______ _______ _____ _____    ______ ____
ROOT
ATOM      1  O   UNL     1      36.594 -20.195 -20.162  0.00  0.00    -0.273 OA
ATOM      2  N   UNL     1      34.886 -19.153 -21.401  0.00  0.00    -0.272 N 
ATOM      3  C   UNL     1      34.328 -21.073 -20.205  0.00  0.00    +0.153 C 
ATOM      4  C   UNL     1      33.060 -20.295 -20.542  0.00  0.00    +0.048 C 
ATOM      5  C   UNL     1      33.490 -19.393 -21.682  0.00  0.00    +0.096 C 
ATOM      6  C   UNL     1      35.437 -20.109 -20.547  0.00  0.00    +0.242 C 
ENDROOT
BRANCH   3   7
ATOM      7  N   UNL     1      34.386 -21.394 -18.774  0.00  0.00    -0.171 NA
ATOM      8  H   UNL     1      35.369 -21.515 -18.530  0.00  0.00    +0.149 HD
BRANCH   7   9
ATOM      9  S   UNL     1      33.549 -22.786 -18.224  0.00  0.00    +0.066 S 
ATOM     10  O   UNL     1      33.909 -23.919 -19.054  0.00  0.00    -0.152 OA
ATOM     11  O   UNL     1      32.161 -22.441 -17.980  0.00  0.00    -0.152 OA
BRANCH   9  14
ATOM     12 CL   UNL     1      37.949 -23.931 -11.437  0.00  0.00    -0.082 Cl
ATOM     13  S   UNL     1      35.823 -22.824 -16.397  0.00  0.00    -0.067 S 
ATOM     14  C   UNL     1      34.181 -23.169 -16.590  0.00  0.00    +0.151 C 
ATOM     15  C   UNL     1      33.589 -23.681 -15.489  0.00  0.00    +0.027 C 
ATOM     16  C   UNL     1      34.513 -23.810 -14.398  0.00  0.00    +0.008 C 
ATOM     17  C   UNL     1      35.790 -23.372 -14.762  0.00  0.00    +0.032 C 
ATOM     18  C   UNL     1      34.321 -24.292 -13.081  0.00  0.00    +0.001 C 
ATOM     19  C   UNL     1      36.866 -23.404 -13.854  0.00  0.00    +0.018 C 
ATOM     20  C   UNL     1      35.386 -24.325 -12.178  0.00  0.00    +0.011 C 
ATOM     21  C   UNL     1      36.645 -23.885 -12.562  0.00  0.00    +0.058 C 
ENDBRANCH   9  14
ENDBRANCH   7   9
ENDBRANCH   3   7
BRANCH   2  22
ATOM     22  C   UNL     1      35.621 -18.095 -22.060  0.00  0.00    +0.152 C 
ATOM     23  C   UNL     1      35.503 -18.165 -23.564  0.00  0.00    +0.031 C 
BRANCH  22  27
ATOM     24  O   UNL     1      33.491 -14.127 -24.343  0.00  0.00    -0.350 OA
ATOM     25  O   UNL     1      35.156 -16.522 -20.349  0.00  0.00    -0.273 OA
ATOM     26  N   UNL     1      34.285 -16.058 -22.450  0.00  0.00    -0.273 N 
ATOM     27  C   UNL     1      35.002 -16.824 -21.535  0.00  0.00    +0.244 C 
ATOM     28  C   UNL     1      33.976 -16.448 -23.829  0.00  0.00    +0.126 C 
ATOM     29  C   UNL     1      33.656 -14.807 -22.025  0.00  0.00    +0.126 C 
ATOM     30  C   UNL     1      34.219 -15.279 -24.776  0.00  0.00    +0.164 C 
ATOM     31  C   UNL     1      33.918 -13.708 -23.045  0.00  0.00    +0.164 C 
ENDBRANCH  22  27
ENDBRANCH   2  22
TORSDOF 5
ENDMDL
MODEL 4
REMARK VINA RESULT:     -10.3      3.707      6.427
REMARK  Name = 9549258
REMARK  5 active torsions:
REMARK  status: ('A' for Active; 'I' for Inactive)
REMARK    1  A    between atoms: N_2  and  C_22
REMARK    2  A    between atoms: C_3  and  N_7
REMARK    3  A    between atoms: N_7  and  S_9
REMARK    4  A    between atoms: S_9  and  C_14
REMARK    5  A    between atoms: C_22  and  C_27
REMARK                            x       y       z     vdW  Elec       q    Type
REMARK                         _______ _______ _______ _____ _____    ______ ____
ROOT
ATOM      1  O   UNL     1      34.976 -14.542 -21.818  0.00  0.00    -0.273 OA
ATOM      2  N   UNL     1      33.974 -14.040 -23.886  0.00  0.00    -0.272 N 
ATOM      3  C   UNL     1      34.845 -16.183 -23.606  0.00  0.00    +0.153 C 
ATOM      4  C   UNL     1      33.856 -16.183 -24.766  0.00  0.00    +0.048 C 
ATOM      5  C   UNL     1      33.751 -14.717 -25.142  0.00  0.00    +0.096 C 
ATOM      6  C   UNL     1      34.620 -14.844 -22.947  0.00  0.00    +0.242 C 
ENDROOT
BRANCH   3   7
ATOM      7  N   UNL     1      34.539 -17.254 -22.651  0.00  0.00    -0.171 NA
ATOM      8  H   UNL     1      34.643 -16.864 -21.714  0.00  0.00    +0.149 HD
BRANCH   7   9
ATOM      9  S   UNL     1      35.480 -18.686 -22.713  0.00  0.00    +0.066 S 
ATOM     10  O   UNL     1      36.858 -18.367 -22.394  0.00  0.00    -0.152 OA
ATOM     11  O   UNL     1      35.137 -19.428 -23.912  0.00  0.00    -0.152 OA
BRANCH   9  14
ATOM     12 CL   UNL     1      34.618 -23.712 -16.332  0.00  0.00    -0.082 Cl
ATOM     13  S   UNL     1      36.164 -20.420 -20.469  0.00  0.00    -0.067 S 
ATOM     14  C   UNL     1      34.913 -19.747 -21.384  0.00  0.00    +0.151 C 
ATOM     15  C   UNL     1      33.675 -20.108 -20.982  0.00  0.00    +0.027 C 
ATOM     16  C   UNL     1      33.719 -20.991 -19.851  0.00  0.00    +0.008 C 
ATOM     17  C   UNL     1      35.037 -21.249 -19.461  0.00  0.00    +0.032 C 
ATOM     18  C   UNL     1      32.673 -21.602 -19.118  0.00  0.00    +0.001 C 
ATOM     19  C   UNL     1      35.331 -22.092 -18.371  0.00  0.00    +0.018 C 
ATOM     20  C   UNL     1      32.961 -22.438 -18.037  0.00  0.00    +0.011 C 
ATOM     21  C   UNL     1      34.278 -22.679 -17.668  0.00  0.00    +0.058 C 
ENDBRANCH   9  14
ENDBRANCH   7   9
ENDBRANCH   3   7
BRANCH   2  22
ATOM     22  C   UNL     1      33.658 -12.639 -23.714  0.00  0.00    +0.152 C 
ATOM     23  C   UNL     1      33.349 -11.955 -25.025  0.00  0.00    +0.031 C 
BRANCH  22  27
ATOM     24  O   UNL     1      31.553  -9.069 -20.830  0.00  0.00    -0.350 OA
ATOM     25  O   UNL     1      31.911 -13.704 -22.517  0.00  0.00    -0.273 OA
ATOM     26  N   UNL     1      32.018 -11.390 -22.358  0.00  0.00    -0.273 N 
ATOM     27  C   UNL     1      32.450 -12.634 -22.812  0.00  0.00    +0.244 C 
ATOM     28  C   UNL     1      32.554 -10.095 -22.787  0.00  0.00    +0.126 C 
ATOM     29  C   UNL     1      30.856 -11.296 -21.475  0.00  0.00    +0.126 C 
ATOM     30  C   UNL     1      32.764  -9.185 -21.583  0.00  0.00    +0.164 C 
ATOM     31  C   UNL     1      31.140 -10.340 -20.324  0.00  0.00    +0.164 C 
ENDBRANCH  22  27
ENDBRANCH   2  22
TORSDOF 5
ENDMDL
MODEL 5
REMARK VINA RESULT:     -10.0      3.448      5.775
REMARK  Name = 9549258
REMARK  5 active torsions:
REMARK  status: ('A' for Active; 'I' for Inactive)
REMARK    1  A    between atoms: N_2  and  C_22
REMARK    2  A    between atoms: C_3  and  N_7
REMARK    3  A    between atoms: N_7  and  S_9
REMARK    4  A    between atoms: S_9  and  C_14
REMARK    5  A    between atoms: C_22  and  C_27
REMARK                            x       y       z     vdW  Elec       q    Type
REMARK                         _______ _______ _______ _____ _____    ______ ____
ROOT
ATOM      1  O   UNL     1      35.321 -16.027 -23.887  0.00  0.00    -0.273 OA
ATOM      2  N   UNL     1      33.691 -14.634 -22.919  0.00  0.00    -0.272 N 
ATOM      3  C   UNL     1      34.105 -16.682 -21.887  0.00  0.00    +0.153 C 
ATOM      4  C   UNL     1      33.404 -15.749 -20.906  0.00  0.00    +0.048 C 
ATOM      5  C   UNL     1      32.779 -14.697 -21.801  0.00  0.00    +0.096 C 
ATOM      6  C   UNL     1      34.489 -15.772 -23.028  0.00  0.00    +0.242 C 
ENDROOT
BRANCH   3   7
ATOM      7  N   UNL     1      35.316 -17.259 -21.294  0.00  0.00    -0.171 NA
ATOM      8  H   UNL     1      36.083 -16.614 -21.484  0.00  0.00    +0.149 HD
BRANCH   7   9
ATOM      9  S   UNL     1      35.814 -18.812 -21.824  0.00  0.00    +0.066 S 
ATOM     10  O   UNL     1      37.262 -18.887 -21.791  0.00  0.00    -0.152 OA
ATOM     11  O   UNL     1      35.068 -19.170 -23.015  0.00  0.00    -0.152 OA
BRANCH   9  14
ATOM     12 CL   UNL     1      34.908 -24.186 -15.739  0.00  0.00    -0.082 Cl
ATOM     13  S   UNL     1      36.464 -20.547 -19.570  0.00  0.00    -0.067 S 
ATOM     14  C   UNL     1      35.245 -19.993 -20.601  0.00  0.00    +0.151 C 
ATOM     15  C   UNL     1      34.027 -20.522 -20.353  0.00  0.00    +0.027 C 
ATOM     16  C   UNL     1      34.060 -21.442 -19.252  0.00  0.00    +0.008 C 
ATOM     17  C   UNL     1      35.349 -21.553 -18.723  0.00  0.00    +0.032 C 
ATOM     18  C   UNL     1      33.026 -22.209 -18.661  0.00  0.00    +0.001 C 
ATOM     19  C   UNL     1      35.627 -22.401 -17.633  0.00  0.00    +0.018 C 
ATOM     20  C   UNL     1      33.298 -23.050 -17.580  0.00  0.00    +0.011 C 
ATOM     21  C   UNL     1      34.587 -23.144 -17.072  0.00  0.00    +0.058 C 
ENDBRANCH   9  14
ENDBRANCH   7   9
ENDBRANCH   3   7
BRANCH   2  22
ATOM     22  C   UNL     1      33.652 -13.542 -23.868  0.00  0.00    +0.152 C 
ATOM     23  C   UNL     1      33.076 -13.961 -25.200  0.00  0.00    +0.031 C 
BRANCH  22  27
ATOM     24  O   UNL     1      33.924  -8.507 -23.608  0.00  0.00    -0.350 OA
ATOM     25  O   UNL     1      31.908 -12.863 -22.414  0.00  0.00    -0.273 OA
ATOM     26  N   UNL     1      33.024 -11.177 -23.556  0.00  0.00    -0.273 N 
ATOM     27  C   UNL     1      32.778 -12.504 -23.211  0.00  0.00    +0.244 C 
ATOM     28  C   UNL     1      33.960 -10.726 -24.590  0.00  0.00    +0.126 C 
ATOM     29  C   UNL     1      32.224 -10.107 -22.961  0.00  0.00    +0.126 C 
ATOM     30  C   UNL     1      34.783  -9.549 -24.080  0.00  0.00    +0.164 C 
ATOM     31  C   UNL     1      33.122  -8.960 -22.515  0.00  0.00    +0.164 C 
ENDBRANCH  22  27
ENDBRANCH   2  22
TORSDOF 5
ENDMDL
MODEL 6
REMARK VINA RESULT:      -9.9      7.464     12.697
REMARK  Name = 9549258
REMARK  5 active torsions:
REMARK  status: ('A' for Active; 'I' for Inactive)
REMARK    1  A    between atoms: N_2  and  C_22
REMARK    2  A    between atoms: C_3  and  N_7
REMARK    3  A    between atoms: N_7  and  S_9
REMARK    4  A    between atoms: S_9  and  C_14
REMARK    5  A    between atoms: C_22  and  C_27
REMARK                            x       y       z     vdW  Elec       q    Type
REMARK                         _______ _______ _______ _____ _____    ______ ____
ROOT
ATOM      1  O   UNL     1      32.402 -15.092 -21.557  0.00  0.00    -0.273 OA
ATOM      2  N   UNL     1      33.259 -14.858 -23.736  0.00  0.00    -0.272 N 
ATOM      3  C   UNL     1      32.392 -12.953 -22.711  0.00  0.00    +0.153 C 
ATOM      4  C   UNL     1      33.296 -12.543 -23.869  0.00  0.00    +0.048 C 
ATOM      5  C   UNL     1      33.386 -13.801 -24.711  0.00  0.00    +0.096 C 
ATOM      6  C   UNL     1      32.674 -14.425 -22.545  0.00  0.00    +0.242 C 
ENDROOT
BRANCH   3   7
ATOM      7  N   UNL     1      32.757 -12.244 -21.480  0.00  0.00    -0.171 NA
ATOM      8  H   UNL     1      33.048 -12.947 -20.800  0.00  0.00    +0.149 HD
BRANCH   7   9
ATOM      9  S   UNL     1      31.566 -11.269 -20.725  0.00  0.00    +0.066 S 
ATOM     10  O   UNL     1      31.998 -10.942 -19.379  0.00  0.00    -0.152 OA
ATOM     11  O   UNL     1      30.256 -11.838 -20.978  0.00  0.00    -0.152 OA
BRANCH   9  14
ATOM     12 CL   UNL     1      31.861  -3.487 -23.190  0.00  0.00    -0.082 Cl
ATOM     13  S   UNL     1      31.928  -8.375 -20.651  0.00  0.00    -0.067 S 
ATOM     14  C   UNL     1      31.525  -9.709 -21.607  0.00  0.00    +0.151 C 
ATOM     15  C   UNL     1      31.232  -9.403 -22.890  0.00  0.00    +0.027 C 
ATOM     16  C   UNL     1      31.336  -7.994 -23.139  0.00  0.00    +0.008 C 
ATOM     17  C   UNL     1      31.715  -7.302 -21.984  0.00  0.00    +0.032 C 
ATOM     18  C   UNL     1      31.122  -7.249 -24.324  0.00  0.00    +0.001 C 
ATOM     19  C   UNL     1      31.881  -5.903 -21.985  0.00  0.00    +0.018 C 
ATOM     20  C   UNL     1      31.286  -5.862 -24.329  0.00  0.00    +0.011 C 
ATOM     21  C   UNL     1      31.662  -5.198 -23.169  0.00  0.00    +0.058 C 
ENDBRANCH   9  14
ENDBRANCH   7   9
ENDBRANCH   3   7
BRANCH   2  22
ATOM     22  C   UNL     1      33.597 -16.228 -24.055  0.00  0.00    +0.152 C 
ATOM     23  C   UNL     1      33.753 -16.449 -25.541  0.00  0.00    +0.031 C 
BRANCH  22  27
ATOM     24  O   UNL     1      35.284 -20.035 -21.199  0.00  0.00    -0.350 OA
ATOM     25  O   UNL     1      35.707 -15.541 -23.220  0.00  0.00    -0.273 OA
ATOM     26  N   UNL     1      35.111 -17.753 -22.844  0.00  0.00    -0.273 N 
ATOM     27  C   UNL     1      34.902 -16.468 -23.339  0.00  0.00    +0.244 C 
ATOM     28  C   UNL     1      34.238 -18.907 -23.076  0.00  0.00    +0.126 C 
ATOM     29  C   UNL     1      36.350 -18.071 -22.132  0.00  0.00    +0.126 C 
ATOM     30  C   UNL     1      34.025 -19.678 -21.778  0.00  0.00    +0.164 C 
ATOM     31  C   UNL     1      36.047 -18.871 -20.873  0.00  0.00    +0.164 C 
ENDBRANCH  22  27
ENDBRANCH   2  22
TORSDOF 5
ENDMDL
MODEL 7
REMARK VINA RESULT:      -9.9      4.257     10.271
REMARK  Name = 9549258
REMARK  5 active torsions:
REMARK  status: ('A' for Active; 'I' for Inactive)
REMARK    1  A    between atoms: N_2  and  C_22
REMARK    2  A    between atoms: C_3  and  N_7
REMARK    3  A    between atoms: N_7  and  S_9
REMARK    4  A    between atoms: S_9  and  C_14
REMARK    5  A    between atoms: C_22  and  C_27
REMARK                            x       y       z     vdW  Elec       q    Type
REMARK                         _______ _______ _______ _____ _____    ______ ____
ROOT
ATOM      1  O   UNL     1      37.110 -22.800 -15.651  0.00  0.00    -0.273 OA
ATOM      2  N   UNL     1      35.459 -23.888 -14.375  0.00  0.00    -0.272 N 
ATOM      3  C   UNL     1      34.760 -22.726 -16.271  0.00  0.00    +0.153 C 
ATOM      4  C   UNL     1      33.681 -23.721 -15.855  0.00  0.00    +0.048 C 
ATOM      5  C   UNL     1      34.022 -24.032 -14.411  0.00  0.00    +0.096 C 
ATOM      6  C   UNL     1      35.951 -23.126 -15.435  0.00  0.00    +0.242 C 
ENDROOT
BRANCH   3   7
ATOM      7  N   UNL     1      35.092 -22.870 -17.692  0.00  0.00    -0.171 NA
ATOM      8  H   UNL     1      35.841 -22.209 -17.898  0.00  0.00    +0.149 HD
BRANCH   7   9
ATOM      9  S   UNL     1      33.849 -22.604 -18.844  0.00  0.00    +0.066 S 
ATOM     10  O   UNL     1      32.637 -22.206 -18.155  0.00  0.00    -0.152 OA
ATOM     11  O   UNL     1      33.848 -23.694 -19.802  0.00  0.00    -0.152 OA
BRANCH   9  14
ATOM     12 CL   UNL     1      34.322 -15.815 -23.360  0.00  0.00    -0.082 Cl
ATOM     13  S   UNL     1      33.033 -20.235 -20.337  0.00  0.00    -0.067 S 
ATOM     14  C   UNL     1      34.333 -21.183 -19.823  0.00  0.00    +0.151 C 
ATOM     15  C   UNL     1      35.541 -20.732 -20.225  0.00  0.00    +0.027 C 
ATOM     16  C   UNL     1      35.429 -19.532 -21.006  0.00  0.00    +0.008 C 
ATOM     17  C   UNL     1      34.093 -19.143 -21.147  0.00  0.00    +0.032 C 
ATOM     18  C   UNL     1      36.427 -18.735 -21.617  0.00  0.00    +0.001 C 
ATOM     19  C   UNL     1      33.735 -17.992 -21.875  0.00  0.00    +0.018 C 
ATOM     20  C   UNL     1      36.074 -17.592 -22.340  0.00  0.00    +0.011 C 
ATOM     21  C   UNL     1      34.741 -17.226 -22.467  0.00  0.00    +0.058 C 
ENDBRANCH   9  14
ENDBRANCH   7   9
ENDBRANCH   3   7
BRANCH   2  22
ATOM     22  C   UNL     1      36.244 -24.392 -13.269  0.00  0.00    +0.152 C 
ATOM     23  C   UNL     1      35.390 -24.744 -12.074  0.00  0.00    +0.031 C 
BRANCH  22  27
ATOM     24  O   UNL     1      41.063 -25.439 -14.353  0.00  0.00    -0.350 OA
ATOM     25  O   UNL     1      36.239 -26.530 -14.294  0.00  0.00    -0.273 OA
ATOM     26  N   UNL     1      38.315 -25.639 -13.758  0.00  0.00    -0.273 N 
ATOM     27  C   UNL     1      36.924 -25.620 -13.820  0.00  0.00    +0.244 C 
ATOM     28  C   UNL     1      39.152 -24.637 -13.091  0.00  0.00    +0.126 C 
ATOM     29  C   UNL     1      39.055 -26.791 -14.275  0.00  0.00    +0.126 C 
ATOM     30  C   UNL     1      40.337 -24.266 -13.974  0.00  0.00    +0.164 C 
ATOM     31  C   UNL     1      40.240 -26.328 -15.112  0.00  0.00    +0.164 C 
ENDBRANCH  22  27
ENDBRANCH   2  22
TORSDOF 5
ENDMDL
MODEL 8
REMARK VINA RESULT:      -9.8      4.334     10.550
REMARK  Name = 9549258
REMARK  5 active torsions:
REMARK  status: ('A' for Active; 'I' for Inactive)
REMARK    1  A    between atoms: N_2  and  C_22
REMARK    2  A    between atoms: C_3  and  N_7
REMARK    3  A    between atoms: N_7  and  S_9
REMARK    4  A    between atoms: S_9  and  C_14
REMARK    5  A    between atoms: C_22  and  C_27
REMARK                            x       y       z     vdW  Elec       q    Type
REMARK                         _______ _______ _______ _____ _____    ______ ____
ROOT
ATOM      1  O   UNL     1      33.495 -22.791 -17.782  0.00  0.00    -0.273 OA
ATOM      2  N   UNL     1      35.296 -22.720 -16.269  0.00  0.00    -0.272 N 
ATOM      3  C   UNL     1      35.690 -21.984 -18.445  0.00  0.00    +0.153 C 
ATOM      4  C   UNL     1      36.776 -21.445 -17.520  0.00  0.00    +0.048 C 
ATOM      5  C   UNL     1      36.692 -22.353 -16.308  0.00  0.00    +0.096 C 
ATOM      6  C   UNL     1      34.656 -22.535 -17.495  0.00  0.00    +0.242 C 
ENDROOT
BRANCH   3   7
ATOM      7  N   UNL     1      35.094 -20.907 -19.244  0.00  0.00    -0.171 NA
ATOM      8  H   UNL     1      34.181 -21.234 -19.560  0.00  0.00    +0.149 HD
BRANCH   7   9
ATOM      9  S   UNL     1      35.946 -20.362 -20.629  0.00  0.00    +0.066 S 
ATOM     10  O   UNL     1      35.714 -21.281 -21.726  0.00  0.00    -0.152 OA
ATOM     11  O   UNL     1      37.290 -19.978 -20.239  0.00  0.00    -0.152 OA
BRANCH   9  14
ATOM     12 CL   UNL     1      33.781 -13.323 -24.162  0.00  0.00    -0.082 Cl
ATOM     13  S   UNL     1      35.949 -18.092 -22.462  0.00  0.00    -0.067 S 
ATOM     14  C   UNL     1      35.195 -18.814 -21.133  0.00  0.00    +0.151 C 
ATOM     15  C   UNL     1      34.143 -18.120 -20.648  0.00  0.00    +0.027 C 
ATOM     16  C   UNL     1      33.911 -16.914 -21.392  0.00  0.00    +0.008 C 
ATOM     17  C   UNL     1      34.840 -16.772 -22.428  0.00  0.00    +0.032 C 
ATOM     18  C   UNL     1      32.929 -15.907 -21.232  0.00  0.00    +0.001 C 
ATOM     19  C   UNL     1      34.812 -15.663 -23.295  0.00  0.00    +0.018 C 
ATOM     20  C   UNL     1      32.898 -14.806 -22.090  0.00  0.00    +0.011 C 
ATOM     21  C   UNL     1      33.831 -14.686 -23.111  0.00  0.00    +0.058 C 
ENDBRANCH   9  14
ENDBRANCH   7   9
ENDBRANCH   3   7
BRANCH   2  22
ATOM     22  C   UNL     1      34.705 -23.330 -15.098  0.00  0.00    +0.152 C 
ATOM     23  C   UNL     1      33.269 -23.739 -15.327  0.00  0.00    +0.031 C 
BRANCH  22  27
ATOM     24  O   UNL     1      37.913 -24.477 -11.372  0.00  0.00    -0.350 OA
ATOM     25  O   UNL     1      35.724 -25.379 -15.715  0.00  0.00    -0.273 OA
ATOM     26  N   UNL     1      36.146 -24.615 -13.563  0.00  0.00    -0.273 N 
ATOM     27  C   UNL     1      35.567 -24.537 -14.827  0.00  0.00    +0.244 C 
ATOM     28  C   UNL     1      35.881 -23.702 -12.447  0.00  0.00    +0.126 C 
ATOM     29  C   UNL     1      37.001 -25.751 -13.219  0.00  0.00    +0.126 C 
ATOM     30  C   UNL     1      37.186 -23.310 -11.765  0.00  0.00    +0.164 C 
ATOM     31  C   UNL     1      38.260 -25.272 -12.509  0.00  0.00    +0.164 C 
ENDBRANCH  22  27
ENDBRANCH   2  22
TORSDOF 5
ENDMDL
MODEL 9
REMARK VINA RESULT:      -9.6      6.274     11.779
REMARK  Name = 9549258
REMARK  5 active torsions:
REMARK  status: ('A' for Active; 'I' for Inactive)
REMARK    1  A    between atoms: N_2  and  C_22
REMARK    2  A    between atoms: C_3  and  N_7
REMARK    3  A    between atoms: N_7  and  S_9
REMARK    4  A    between atoms: S_9  and  C_14
REMARK    5  A    between atoms: C_22  and  C_27
REMARK                            x       y       z     vdW  Elec       q    Type
REMARK                         _______ _______ _______ _____ _____    ______ ____
ROOT
ATOM      1  O   UNL     1      35.749 -16.498 -23.612  0.00  0.00    -0.273 OA
ATOM      2  N   UNL     1      34.393 -17.325 -21.875  0.00  0.00    -0.272 N 
ATOM      3  C   UNL     1      34.831 -15.036 -21.901  0.00  0.00    +0.153 C 
ATOM      4  C   UNL     1      33.607 -15.312 -21.034  0.00  0.00    +0.048 C 
ATOM      5  C   UNL     1      33.726 -16.789 -20.712  0.00  0.00    +0.096 C 
ATOM      6  C   UNL     1      35.067 -16.347 -22.609  0.00  0.00    +0.242 C 
ENDROOT
BRANCH   3   7
ATOM      7  N   UNL     1      34.551 -13.991 -22.892  0.00  0.00    -0.171 NA
ATOM      8  H   UNL     1      35.133 -13.186 -22.656  0.00  0.00    +0.149 HD
BRANCH   7   9
ATOM      9  S   UNL     1      32.938 -13.427 -23.038  0.00  0.00    +0.066 S 
ATOM     10  O   UNL     1      32.215 -13.723 -21.817  0.00  0.00    -0.152 OA
ATOM     11  O   UNL     1      32.416 -13.813 -24.336  0.00  0.00    -0.152 OA
BRANCH   9  14
ATOM     12 CL   UNL     1      31.847  -5.355 -22.422  0.00  0.00    -0.082 Cl
ATOM     13  S   UNL     1      31.786 -10.861 -22.264  0.00  0.00    -0.067 S 
ATOM     14  C   UNL     1      33.012 -11.638 -23.129  0.00  0.00    +0.151 C 
ATOM     15  C   UNL     1      33.862 -10.799 -23.761  0.00  0.00    +0.027 C 
ATOM     16  C   UNL     1      33.516  -9.424 -23.540  0.00  0.00    +0.008 C 
ATOM     17  C   UNL     1      32.384  -9.311 -22.727  0.00  0.00    +0.032 C 
ATOM     18  C   UNL     1      34.127  -8.234 -24.004  0.00  0.00    +0.001 C 
ATOM     19  C   UNL     1      31.854  -8.055 -22.372  0.00  0.00    +0.018 C 
ATOM     20  C   UNL     1      33.605  -6.987 -23.654  0.00  0.00    +0.011 C 
ATOM     21  C   UNL     1      32.480  -6.900 -22.846  0.00  0.00    +0.058 C 
ENDBRANCH   9  14
ENDBRANCH   7   9
ENDBRANCH   3   7
BRANCH   2  22
ATOM     22  C   UNL     1      34.436 -18.747 -22.137  0.00  0.00    +0.152 C 
ATOM     23  C   UNL     1      34.546 -19.056 -23.611  0.00  0.00    +0.031 C 
BRANCH  22  27
ATOM     24  O   UNL     1      35.133 -22.309 -18.628  0.00  0.00    -0.350 OA
ATOM     25  O   UNL     1      36.701 -18.572 -21.462  0.00  0.00    -0.273 OA
ATOM     26  N   UNL     1      35.521 -20.408 -20.671  0.00  0.00    -0.273 N 
ATOM     27  C   UNL     1      35.659 -19.228 -21.398  0.00  0.00    +0.244 C 
ATOM     28  C   UNL     1      34.340 -21.277 -20.675  0.00  0.00    +0.126 C 
ATOM     29  C   UNL     1      36.658 -20.943 -19.921  0.00  0.00    +0.126 C 
ATOM     30  C   UNL     1      33.997 -21.708 -19.255  0.00  0.00    +0.164 C 
ATOM     31  C   UNL     1      36.217 -21.382 -18.531  0.00  0.00    +0.164 C 
ENDBRANCH  22  27
ENDBRANCH   2  22
TORSDOF 5
ENDMDL
