MODEL 1
REMARK VINA RESULT:      -8.7      0.000      0.000
REMARK  Name = 10831270
REMARK  3 active torsions:
REMARK  status: ('A' for Active; 'I' for Inactive)
REMARK    1  A    between atoms: C_3  and  O_11
REMARK    2  A    between atoms: C_8  and  O_9
REMARK    3  A    between atoms: O_11  and  C_12
REMARK                            x       y       z     vdW  Elec       q    Type
REMARK                         _______ _______ _______ _____ _____    ______ ____
ROOT
ATOM      1 BR   UNL     1      35.694 -23.532 -13.832  0.00  0.00    -0.046 Br
ATOM      2 BR   UNL     1      30.083 -22.925 -14.897  0.00  0.00    -0.046 Br
ATOM      3  C   UNL     1      33.429 -23.369 -17.290  0.00  0.00    +0.146 C 
ATOM      4  C   UNL     1      32.127 -23.209 -16.852  0.00  0.00    +0.047 C 
ATOM      5  C   UNL     1      34.487 -23.467 -16.404  0.00  0.00    +0.047 C 
ATOM      6  C   UNL     1      34.233 -23.401 -15.034  0.00  0.00    +0.072 C 
ATOM      7  C   UNL     1      31.874 -23.143 -15.482  0.00  0.00    +0.072 C 
ATOM      8  C   UNL     1      32.928 -23.239 -14.573  0.00  0.00    +0.146 C 
ENDROOT
BRANCH   8   9
ATOM      9  O   UNL     1      32.680 -23.175 -13.231  0.00  0.00    -0.505 OA
ATOM     10  H   UNL     1      32.155 -22.480 -12.885  0.00  0.00    +0.292 HD
ENDBRANCH   8   9
BRANCH   3  11
ATOM     11  O   UNL     1      33.680 -23.436 -18.650  0.00  0.00    -0.453 OA
BRANCH  11  12
ATOM     12  C   UNL     1      34.037 -22.286 -19.285  0.00  0.00    +0.145 C 
ATOM     13  C   UNL     1      33.055 -21.396 -19.718  0.00  0.00    +0.037 C 
ATOM     14  C   UNL     1      35.383 -21.999 -19.505  0.00  0.00    +0.037 C 
ATOM     15  C   UNL     1      33.419 -20.217 -20.370  0.00  0.00    +0.003 C 
ATOM     16  C   UNL     1      35.749 -20.821 -20.157  0.00  0.00    +0.003 C 
ATOM     17  C   UNL     1      34.766 -19.930 -20.590  0.00  0.00    +0.000 C 
ENDBRANCH  11  12
ENDBRANCH   3  11
TORSDOF 3
ENDMDL
MODEL 2
REMARK VINA RESULT:      -8.7      0.043      2.363
REMARK  Name = 10831270
REMARK  3 active torsions:
REMARK  status: ('A' for Active; 'I' for Inactive)
REMARK    1  A    between atoms: C_3  and  O_11
REMARK    2  A    between atoms: C_8  and  O_9
REMARK    3  A    between atoms: O_11  and  C_12
REMARK                            x       y       z     vdW  Elec       q    Type
REMARK                         _______ _______ _______ _____ _____    ______ ____
ROOT
ATOM      1 BR   UNL     1      30.056 -22.915 -14.956  0.00  0.00    -0.046 Br
ATOM      2 BR   UNL     1      35.649 -23.554 -13.815  0.00  0.00    -0.046 Br
ATOM      3  C   UNL     1      33.432 -23.369 -17.303  0.00  0.00    +0.146 C 
ATOM      4  C   UNL     1      34.477 -23.473 -16.403  0.00  0.00    +0.047 C 
ATOM      5  C   UNL     1      32.125 -23.202 -16.883  0.00  0.00    +0.047 C 
ATOM      6  C   UNL     1      31.854 -23.139 -15.517  0.00  0.00    +0.072 C 
ATOM      7  C   UNL     1      34.205 -23.410 -15.036  0.00  0.00    +0.072 C 
ATOM      8  C   UNL     1      32.893 -23.243 -14.593  0.00  0.00    +0.146 C 
ENDROOT
BRANCH   8   9
ATOM      9  O   UNL     1      32.627 -23.182 -13.255  0.00  0.00    -0.505 OA
ATOM     10  H   UNL     1      32.967 -22.476 -12.742  0.00  0.00    +0.292 HD
ENDBRANCH   8   9
BRANCH   3  11
ATOM     11  O   UNL     1      33.702 -23.429 -18.660  0.00  0.00    -0.453 OA
BRANCH  11  12
ATOM     12  C   UNL     1      34.037 -22.270 -19.290  0.00  0.00    +0.145 C 
ATOM     13  C   UNL     1      33.039 -21.406 -19.739  0.00  0.00    +0.037 C 
ATOM     14  C   UNL     1      35.379 -21.947 -19.489  0.00  0.00    +0.037 C 
ATOM     15  C   UNL     1      33.383 -20.218 -20.386  0.00  0.00    +0.003 C 
ATOM     16  C   UNL     1      35.724 -20.760 -20.135  0.00  0.00    +0.003 C 
ATOM     17  C   UNL     1      34.725 -19.896 -20.584  0.00  0.00    +0.000 C 
ENDBRANCH  11  12
ENDBRANCH   3  11
TORSDOF 3
ENDMDL
MODEL 3
REMARK VINA RESULT:      -8.3      5.511      8.174
REMARK  Name = 10831270
REMARK  3 active torsions:
REMARK  status: ('A' for Active; 'I' for Inactive)
REMARK    1  A    between atoms: C_3  and  O_11
REMARK    2  A    between atoms: C_8  and  O_9
REMARK    3  A    between atoms: O_11  and  C_12
REMARK                            x       y       z     vdW  Elec       q    Type
REMARK                         _______ _______ _______ _____ _____    ______ ____
ROOT
ATOM      1 BR   UNL     1      33.510 -14.526 -20.636  0.00  0.00    -0.046 Br
ATOM      2 BR   UNL     1      34.566 -17.306 -25.549  0.00  0.00    -0.046 Br
ATOM      3  C   UNL     1      35.488 -18.034 -21.583  0.00  0.00    +0.146 C 
ATOM      4  C   UNL     1      35.382 -18.139 -22.957  0.00  0.00    +0.047 C 
ATOM      5  C   UNL     1      34.936 -16.971 -20.891  0.00  0.00    +0.047 C 
ATOM      6  C   UNL     1      34.257 -15.979 -21.598  0.00  0.00    +0.072 C 
ATOM      7  C   UNL     1      34.703 -17.147 -23.665  0.00  0.00    +0.072 C 
ATOM      8  C   UNL     1      34.141 -16.067 -22.984  0.00  0.00    +0.146 C 
ENDROOT
BRANCH   8   9
ATOM      9  O   UNL     1      33.476 -15.095 -23.677  0.00  0.00    -0.505 OA
ATOM     10  H   UNL     1      33.683 -14.193 -23.534  0.00  0.00    +0.292 HD
ENDBRANCH   8   9
BRANCH   3  11
ATOM     11  O   UNL     1      36.160 -19.020 -20.880  0.00  0.00    -0.453 OA
BRANCH  11  12
ATOM     12  C   UNL     1      35.422 -20.028 -20.341  0.00  0.00    +0.145 C 
ATOM     13  C   UNL     1      36.048 -21.040 -19.615  0.00  0.00    +0.037 C 
ATOM     14  C   UNL     1      34.039 -20.050 -20.517  0.00  0.00    +0.037 C 
ATOM     15  C   UNL     1      35.292 -22.075 -19.063  0.00  0.00    +0.003 C 
ATOM     16  C   UNL     1      33.281 -21.084 -19.965  0.00  0.00    +0.003 C 
ATOM     17  C   UNL     1      33.909 -22.097 -19.239  0.00  0.00    +0.000 C 
ENDBRANCH  11  12
ENDBRANCH   3  11
TORSDOF 3
ENDMDL
MODEL 4
REMARK VINA RESULT:      -8.1      6.181      8.788
REMARK  Name = 10831270
REMARK  3 active torsions:
REMARK  status: ('A' for Active; 'I' for Inactive)
REMARK    1  A    between atoms: C_3  and  O_11
REMARK    2  A    between atoms: C_8  and  O_9
REMARK    3  A    between atoms: O_11  and  C_12
REMARK                            x       y       z     vdW  Elec       q    Type
REMARK                         _______ _______ _______ _____ _____    ______ ____
ROOT
ATOM      1 BR   UNL     1      33.453 -15.272 -25.881  0.00  0.00    -0.046 Br
ATOM      2 BR   UNL     1      32.803 -14.140 -20.288  0.00  0.00    -0.046 Br
ATOM      3  C   UNL     1      34.972 -16.947 -22.417  0.00  0.00    +0.146 C 
ATOM      4  C   UNL     1      34.418 -16.203 -21.392  0.00  0.00    +0.047 C 
ATOM      5  C   UNL     1      34.693 -16.677 -23.744  0.00  0.00    +0.047 C 
ATOM      6  C   UNL     1      33.830 -15.628 -24.057  0.00  0.00    +0.072 C 
ATOM      7  C   UNL     1      33.554 -15.152 -21.705  0.00  0.00    +0.072 C 
ATOM      8  C   UNL     1      33.260 -14.865 -23.038  0.00  0.00    +0.146 C 
ENDROOT
BRANCH   8   9
ATOM      9  O   UNL     1      32.414 -13.837 -23.344  0.00  0.00    -0.505 OA
ATOM     10  H   UNL     1      32.720 -13.117 -23.860  0.00  0.00    +0.292 HD
ENDBRANCH   8   9
BRANCH   3  11
ATOM     11  O   UNL     1      35.831 -17.988 -22.107  0.00  0.00    -0.453 OA
BRANCH  11  12
ATOM     12  C   UNL     1      35.339 -19.013 -21.358  0.00  0.00    +0.145 C 
ATOM     13  C   UNL     1      33.968 -19.264 -21.335  0.00  0.00    +0.037 C 
ATOM     14  C   UNL     1      36.206 -19.811 -20.613  0.00  0.00    +0.037 C 
ATOM     15  C   UNL     1      33.463 -20.313 -20.566  0.00  0.00    +0.003 C 
ATOM     16  C   UNL     1      35.703 -20.861 -19.845  0.00  0.00    +0.003 C 
ATOM     17  C   UNL     1      34.330 -21.111 -19.821  0.00  0.00    +0.000 C 
ENDBRANCH  11  12
ENDBRANCH   3  11
TORSDOF 3
ENDMDL
MODEL 5
REMARK VINA RESULT:      -8.1      6.157      8.830
REMARK  Name = 10831270
REMARK  3 active torsions:
REMARK  status: ('A' for Active; 'I' for Inactive)
REMARK    1  A    between atoms: C_3  and  O_11
REMARK    2  A    between atoms: C_8  and  O_9
REMARK    3  A    between atoms: O_11  and  C_12
REMARK                            x       y       z     vdW  Elec       q    Type
REMARK                         _______ _______ _______ _____ _____    ______ ____
ROOT
ATOM      1 BR   UNL     1      32.776 -14.147 -20.323  0.00  0.00    -0.046 Br
ATOM      2 BR   UNL     1      33.506 -15.324 -25.897  0.00  0.00    -0.046 Br
ATOM      3  C   UNL     1      34.921 -17.014 -22.396  0.00  0.00    +0.146 C 
ATOM      4  C   UNL     1      34.672 -16.746 -23.730  0.00  0.00    +0.047 C 
ATOM      5  C   UNL     1      34.363 -16.252 -21.385  0.00  0.00    +0.047 C 
ATOM      6  C   UNL     1      33.530 -15.185 -21.720  0.00  0.00    +0.072 C 
ATOM      7  C   UNL     1      33.838 -15.678 -24.064  0.00  0.00    +0.072 C 
ATOM      8  C   UNL     1      33.267 -14.898 -23.059  0.00  0.00    +0.146 C 
ENDROOT
BRANCH   8   9
ATOM      9  O   UNL     1      32.451 -13.853 -23.386  0.00  0.00    -0.505 OA
ATOM     10  H   UNL     1      31.822 -13.539 -22.768  0.00  0.00    +0.292 HD
ENDBRANCH   8   9
BRANCH   3  11
ATOM     11  O   UNL     1      35.746 -18.074 -22.063  0.00  0.00    -0.453 OA
BRANCH  11  12
ATOM     12  C   UNL     1      35.215 -19.079 -21.314  0.00  0.00    +0.145 C 
ATOM     13  C   UNL     1      36.053 -19.925 -20.588  0.00  0.00    +0.037 C 
ATOM     14  C   UNL     1      33.834 -19.263 -21.274  0.00  0.00    +0.037 C 
ATOM     15  C   UNL     1      35.509 -20.956 -19.820  0.00  0.00    +0.003 C 
ATOM     16  C   UNL     1      33.289 -20.293 -20.506  0.00  0.00    +0.003 C 
ATOM     17  C   UNL     1      34.127 -21.140 -19.780  0.00  0.00    +0.000 C 
ENDBRANCH  11  12
ENDBRANCH   3  11
TORSDOF 3
ENDMDL
MODEL 6
REMARK VINA RESULT:      -7.8      1.281      1.871
REMARK  Name = 10831270
REMARK  3 active torsions:
REMARK  status: ('A' for Active; 'I' for Inactive)
REMARK    1  A    between atoms: C_3  and  O_11
REMARK    2  A    between atoms: C_8  and  O_9
REMARK    3  A    between atoms: O_11  and  C_12
REMARK                            x       y       z     vdW  Elec       q    Type
REMARK                         _______ _______ _______ _____ _____    ______ ____
ROOT
ATOM      1 BR   UNL     1      37.282 -22.580 -15.521  0.00  0.00    -0.046 Br
ATOM      2 BR   UNL     1      31.724 -23.604 -14.500  0.00  0.00    -0.046 Br
ATOM      3  C   UNL     1      33.919 -22.820 -17.918  0.00  0.00    +0.146 C 
ATOM      4  C   UNL     1      32.882 -23.097 -17.046  0.00  0.00    +0.047 C 
ATOM      5  C   UNL     1      35.221 -22.668 -17.475  0.00  0.00    +0.047 C 
ATOM      6  C   UNL     1      35.494 -22.796 -16.114  0.00  0.00    +0.072 C 
ATOM      7  C   UNL     1      33.156 -23.224 -15.684  0.00  0.00    +0.072 C 
ATOM      8  C   UNL     1      34.462 -23.073 -15.218  0.00  0.00    +0.146 C 
ENDROOT
BRANCH   8   9
ATOM      9  O   UNL     1      34.730 -23.198 -13.884  0.00  0.00    -0.505 OA
ATOM     10  H   UNL     1      34.105 -23.604 -13.317  0.00  0.00    +0.292 HD
ENDBRANCH   8   9
BRANCH   3  11
ATOM     11  O   UNL     1      33.649 -22.696 -19.271  0.00  0.00    -0.453 OA
BRANCH  11  12
ATOM     12  C   UNL     1      33.904 -21.496 -19.859  0.00  0.00    +0.145 C 
ATOM     13  C   UNL     1      35.193 -21.195 -20.299  0.00  0.00    +0.037 C 
ATOM     14  C   UNL     1      32.877 -20.567 -20.022  0.00  0.00    +0.037 C 
ATOM     15  C   UNL     1      35.455 -19.964 -20.902  0.00  0.00    +0.003 C 
ATOM     16  C   UNL     1      33.139 -19.336 -20.625  0.00  0.00    +0.003 C 
ATOM     17  C   UNL     1      34.428 -19.035 -21.064  0.00  0.00    +0.000 C 
ENDBRANCH  11  12
ENDBRANCH   3  11
TORSDOF 3
ENDMDL
MODEL 7
REMARK VINA RESULT:      -7.5     10.175     12.674
REMARK  Name = 10831270
REMARK  3 active torsions:
REMARK  status: ('A' for Active; 'I' for Inactive)
REMARK    1  A    between atoms: C_3  and  O_11
REMARK    2  A    between atoms: C_8  and  O_9
REMARK    3  A    between atoms: O_11  and  C_12
REMARK                            x       y       z     vdW  Elec       q    Type
REMARK                         _______ _______ _______ _____ _____    ______ ____
ROOT
ATOM      1 BR   UNL     1      35.441 -10.387 -25.810  0.00  0.00    -0.046 Br
ATOM      2 BR   UNL     1      32.000  -8.474 -21.629  0.00  0.00    -0.046 Br
ATOM      3  C   UNL     1      32.724 -12.201 -23.272  0.00  0.00    +0.146 C 
ATOM      4  C   UNL     1      32.225 -11.172 -22.494  0.00  0.00    +0.047 C 
ATOM      5  C   UNL     1      33.675 -11.976 -24.252  0.00  0.00    +0.047 C 
ATOM      6  C   UNL     1      34.141 -10.680 -24.461  0.00  0.00    +0.072 C 
ATOM      7  C   UNL     1      32.693  -9.874 -22.704  0.00  0.00    +0.072 C 
ATOM      8  C   UNL     1      33.651  -9.628 -23.687  0.00  0.00    +0.146 C 
ENDROOT
BRANCH   8   9
ATOM      9  O   UNL     1      34.108  -8.357 -23.893  0.00  0.00    -0.505 OA
ATOM     10  H   UNL     1      34.944  -8.101 -23.558  0.00  0.00    +0.292 HD
ENDBRANCH   8   9
BRANCH   3  11
ATOM     11  O   UNL     1      32.262 -13.489 -23.063  0.00  0.00    -0.453 OA
BRANCH  11  12
ATOM     12  C   UNL     1      33.103 -14.373 -22.459  0.00  0.00    +0.145 C 
ATOM     13  C   UNL     1      33.802 -15.305 -23.224  0.00  0.00    +0.037 C 
ATOM     14  C   UNL     1      33.264 -14.346 -21.074  0.00  0.00    +0.037 C 
ATOM     15  C   UNL     1      34.664 -16.211 -22.605  0.00  0.00    +0.003 C 
ATOM     16  C   UNL     1      34.125 -15.252 -20.454  0.00  0.00    +0.003 C 
ATOM     17  C   UNL     1      34.825 -16.185 -21.220  0.00  0.00    +0.000 C 
ENDBRANCH  11  12
ENDBRANCH   3  11
TORSDOF 3
ENDMDL
MODEL 8
REMARK VINA RESULT:      -7.5     10.123     12.735
REMARK  Name = 10831270
REMARK  3 active torsions:
REMARK  status: ('A' for Active; 'I' for Inactive)
REMARK    1  A    between atoms: C_3  and  O_11
REMARK    2  A    between atoms: C_8  and  O_9
REMARK    3  A    between atoms: O_11  and  C_12
REMARK                            x       y       z     vdW  Elec       q    Type
REMARK                         _______ _______ _______ _____ _____    ______ ____
ROOT
ATOM      1 BR   UNL     1      31.970  -8.633 -21.579  0.00  0.00    -0.046 Br
ATOM      2 BR   UNL     1      35.423 -10.339 -25.840  0.00  0.00    -0.046 Br
ATOM      3  C   UNL     1      32.763 -12.290 -23.344  0.00  0.00    +0.146 C 
ATOM      4  C   UNL     1      33.700 -12.015 -24.322  0.00  0.00    +0.047 C 
ATOM      5  C   UNL     1      32.246 -11.296 -22.531  0.00  0.00    +0.047 C 
ATOM      6  C   UNL     1      32.683  -9.984 -22.703  0.00  0.00    +0.072 C 
ATOM      7  C   UNL     1      34.137 -10.701 -24.494  0.00  0.00    +0.072 C 
ATOM      8  C   UNL     1      33.629  -9.686 -23.684  0.00  0.00    +0.146 C 
ENDROOT
BRANCH   8   9
ATOM      9  O   UNL     1      34.057  -8.399 -23.852  0.00  0.00    -0.505 OA
ATOM     10  H   UNL     1      34.958  -8.227 -24.042  0.00  0.00    +0.292 HD
ENDBRANCH   8   9
BRANCH   3  11
ATOM     11  O   UNL     1      32.327 -13.593 -23.174  0.00  0.00    -0.453 OA
BRANCH  11  12
ATOM     12  C   UNL     1      33.141 -14.450 -22.499  0.00  0.00    +0.145 C 
ATOM     13  C   UNL     1      33.940 -15.352 -23.201  0.00  0.00    +0.037 C 
ATOM     14  C   UNL     1      33.174 -14.427 -21.105  0.00  0.00    +0.037 C 
ATOM     15  C   UNL     1      34.774 -16.231 -22.509  0.00  0.00    +0.003 C 
ATOM     16  C   UNL     1      34.008 -15.306 -20.413  0.00  0.00    +0.003 C 
ATOM     17  C   UNL     1      34.807 -16.208 -21.115  0.00  0.00    +0.000 C 
ENDBRANCH  11  12
ENDBRANCH   3  11
TORSDOF 3
ENDMDL
MODEL 9
REMARK VINA RESULT:      -7.3      4.170      5.703
REMARK  Name = 10831270
REMARK  3 active torsions:
REMARK  status: ('A' for Active; 'I' for Inactive)
REMARK    1  A    between atoms: C_3  and  O_11
REMARK    2  A    between atoms: C_8  and  O_9
REMARK    3  A    between atoms: O_11  and  C_12
REMARK                            x       y       z     vdW  Elec       q    Type
REMARK                         _______ _______ _______ _____ _____    ______ ____
ROOT
ATOM      1 BR   UNL     1      37.516 -26.152 -12.912  0.00  0.00    -0.046 Br
ATOM      2 BR   UNL     1      36.326 -22.238 -16.944  0.00  0.00    -0.046 Br
ATOM      3  C   UNL     1      34.239 -23.756 -13.709  0.00  0.00    +0.146 C 
ATOM      4  C   UNL     1      34.595 -23.033 -14.833  0.00  0.00    +0.047 C 
ATOM      5  C   UNL     1      35.097 -24.677 -13.136  0.00  0.00    +0.047 C 
ATOM      6  C   UNL     1      36.353 -24.883 -13.707  0.00  0.00    +0.072 C 
ATOM      7  C   UNL     1      35.852 -23.238 -15.403  0.00  0.00    +0.072 C 
ATOM      8  C   UNL     1      36.730 -24.163 -14.840  0.00  0.00    +0.146 C 
ENDROOT
BRANCH   8   9
ATOM      9  O   UNL     1      37.960 -24.365 -15.399  0.00  0.00    -0.505 OA
ATOM     10  H   UNL     1      38.626 -23.712 -15.314  0.00  0.00    +0.292 HD
ENDBRANCH   8   9
BRANCH   3  11
ATOM     11  O   UNL     1      32.993 -23.551 -13.141  0.00  0.00    -0.453 OA
BRANCH  11  12
ATOM     12  C   UNL     1      31.898 -23.809 -13.908  0.00  0.00    +0.145 C 
ATOM     13  C   UNL     1      31.407 -25.110 -14.006  0.00  0.00    +0.037 C 
ATOM     14  C   UNL     1      31.268 -22.772 -14.595  0.00  0.00    +0.037 C 
ATOM     15  C   UNL     1      30.284 -25.375 -14.792  0.00  0.00    +0.003 C 
ATOM     16  C   UNL     1      30.146 -23.036 -15.381  0.00  0.00    +0.003 C 
ATOM     17  C   UNL     1      29.655 -24.338 -15.480  0.00  0.00    +0.000 C 
ENDBRANCH  11  12
ENDBRANCH   3  11
TORSDOF 3
ENDMDL
