MODEL 1
REMARK VINA RESULT:      -8.7      0.000      0.000
REMARK  Name = 656970
REMARK  5 active torsions:
REMARK  status: ('A' for Active; 'I' for Inactive)
REMARK    1  A    between atoms: C_5  and  C_14
REMARK    2  A    between atoms: C_14  and  N_15
REMARK    3  A    between atoms: C_16  and  C_23
REMARK    4  A    between atoms: C_17  and  O_21
REMARK    5  A    between atoms: C_23  and  S_24
REMARK                            x       y       z     vdW  Elec       q    Type
REMARK                         _______ _______ _______ _____ _____    ______ ____
ROOT
ATOM      1  N   UNL     1      32.732 -20.902 -20.147  0.00  0.00    -0.323 N 
ATOM      2  N   UNL     1      36.199 -20.747 -19.545  0.00  0.00    -0.247 NA
ATOM      3  N   UNL     1      35.339 -22.515 -18.110  0.00  0.00    -0.232 NA
ATOM      4  N   UNL     1      33.019 -23.102 -18.067  0.00  0.00    -0.345 N 
ATOM      5  C   UNL     1      34.398 -19.672 -20.917  0.00  0.00    -0.014 C 
ATOM      6  C   UNL     1      34.926 -20.573 -19.978  0.00  0.00    +0.076 C 
ATOM      7  C   UNL     1      33.051 -19.885 -21.011  0.00  0.00    +0.053 C 
ATOM      8  C   UNL     1      33.863 -21.337 -19.505  0.00  0.00    +0.163 C 
ATOM      9  C   UNL     1      34.079 -22.322 -18.557  0.00  0.00    +0.123 C 
ATOM     10  C   UNL     1      36.309 -21.727 -18.625  0.00  0.00    +0.251 C 
ATOM     11  H   UNL     1      31.826 -21.264 -20.008  0.00  0.00    +0.148 HD
ATOM     12  H   UNL     1      33.190 -23.798 -17.393  0.00  0.00    +0.143 HD
ATOM     13  H   UNL     1      32.103 -22.954 -18.399  0.00  0.00    +0.143 HD
ENDROOT
BRANCH   5  14
ATOM     14  C   UNL     1      35.171 -18.651 -21.688  0.00  0.00    -0.047 C 
BRANCH  14  15
ATOM     15  N   UNL     1      34.398 -17.421 -21.765  0.00  0.00    +0.391 N 
ATOM     16  C   UNL     1      33.905 -15.394 -22.747  0.00  0.00    +0.015 C 
ATOM     17  C   UNL     1      34.356 -15.094 -21.316  0.00  0.00    +0.089 C 
ATOM     18  C   UNL     1      34.561 -16.735 -23.048  0.00  0.00    -0.073 C 
ATOM     19  C   UNL     1      34.788 -16.445 -20.740  0.00  0.00    -0.047 C 
ATOM     20  H   UNL     1      33.435 -17.727 -21.632  0.00  0.00    -0.079 HD
BRANCH  17  21
ATOM     21  O   UNL     1      33.271 -14.547 -20.580  0.00  0.00    -0.387 OA
ATOM     22  H   UNL     1      33.414 -14.698 -19.634  0.00  0.00    +0.210 HD
ENDBRANCH  17  21
BRANCH  16  23
ATOM     23  C   UNL     1      34.295 -14.309 -23.739  0.00  0.00    +0.058 C 
BRANCH  23  24
ATOM     24  S   UNL     1      32.893 -13.894 -24.807  0.00  0.00    -0.139 S 
ATOM     25  C   UNL     1      33.184 -15.109 -26.113  0.00  0.00    +0.069 C 
ENDBRANCH  23  24
ENDBRANCH  16  23
ENDBRANCH  14  15
ENDBRANCH   5  14
TORSDOF 5
ENDMDL
MODEL 2
REMARK VINA RESULT:      -8.4      1.329      2.476
REMARK  Name = 656970
REMARK  5 active torsions:
REMARK  status: ('A' for Active; 'I' for Inactive)
REMARK    1  A    between atoms: C_5  and  C_14
REMARK    2  A    between atoms: C_14  and  N_15
REMARK    3  A    between atoms: C_16  and  C_23
REMARK    4  A    between atoms: C_17  and  O_21
REMARK    5  A    between atoms: C_23  and  S_24
REMARK                            x       y       z     vdW  Elec       q    Type
REMARK                         _______ _______ _______ _____ _____    ______ ____
ROOT
ATOM      1  N   UNL     1      36.602 -20.089 -20.231  0.00  0.00    -0.323 N 
ATOM      2  N   UNL     1      33.307 -19.335 -21.222  0.00  0.00    -0.247 NA
ATOM      3  N   UNL     1      33.151 -21.284 -19.771  0.00  0.00    -0.232 NA
ATOM      4  N   UNL     1      35.083 -22.283 -18.772  0.00  0.00    -0.345 N 
ATOM      5  C   UNL     1      35.669 -18.550 -21.512  0.00  0.00    -0.014 C 
ATOM      6  C   UNL     1      34.647 -19.377 -21.019  0.00  0.00    +0.076 C 
ATOM      7  C   UNL     1      36.863 -18.998 -21.021  0.00  0.00    +0.053 C 
ATOM      8  C   UNL     1      35.254 -20.338 -20.216  0.00  0.00    +0.163 C 
ATOM      9  C   UNL     1      34.489 -21.304 -19.585  0.00  0.00    +0.123 C 
ATOM     10  C   UNL     1      32.649 -20.314 -20.567  0.00  0.00    +0.251 C 
ATOM     11  H   UNL     1      37.281 -20.615 -19.749  0.00  0.00    +0.148 HD
ATOM     12  H   UNL     1      34.524 -22.962 -18.331  0.00  0.00    +0.143 HD
ATOM     13  H   UNL     1      36.059 -22.291 -18.642  0.00  0.00    +0.143 HD
ENDROOT
BRANCH   5  14
ATOM     14  C   UNL     1      35.490 -17.376 -22.420  0.00  0.00    -0.047 C 
BRANCH  14  15
ATOM     15  N   UNL     1      34.320 -16.620 -22.002  0.00  0.00    +0.391 N 
ATOM     16  C   UNL     1      32.875 -14.836 -22.215  0.00  0.00    +0.015 C 
ATOM     17  C   UNL     1      33.522 -14.718 -20.832  0.00  0.00    +0.089 C 
ATOM     18  C   UNL     1      33.889 -15.649 -23.009  0.00  0.00    -0.073 C 
ATOM     19  C   UNL     1      34.557 -15.845 -20.777  0.00  0.00    -0.047 C 
ATOM     20  H   UNL     1      33.607 -17.333 -21.851  0.00  0.00    -0.079 HD
BRANCH  17  21
ATOM     21  O   UNL     1      32.531 -14.884 -19.829  0.00  0.00    -0.387 OA
ATOM     22  H   UNL     1      32.915 -14.688 -18.961  0.00  0.00    +0.210 HD
ENDBRANCH  17  21
BRANCH  16  23
ATOM     23  C   UNL     1      32.571 -13.487 -22.850  0.00  0.00    +0.058 C 
BRANCH  23  24
ATOM     24  S   UNL     1      33.721 -13.155 -24.210  0.00  0.00    -0.139 S 
ATOM     25  C   UNL     1      33.710 -11.349 -24.133  0.00  0.00    +0.069 C 
ENDBRANCH  23  24
ENDBRANCH  16  23
ENDBRANCH  14  15
ENDBRANCH   5  14
TORSDOF 5
ENDMDL
MODEL 3
REMARK VINA RESULT:      -8.3      3.524      7.170
REMARK  Name = 656970
REMARK  5 active torsions:
REMARK  status: ('A' for Active; 'I' for Inactive)
REMARK    1  A    between atoms: C_5  and  C_14
REMARK    2  A    between atoms: C_14  and  N_15
REMARK    3  A    between atoms: C_16  and  C_23
REMARK    4  A    between atoms: C_17  and  O_21
REMARK    5  A    between atoms: C_23  and  S_24
REMARK                            x       y       z     vdW  Elec       q    Type
REMARK                         _______ _______ _______ _____ _____    ______ ____
ROOT
ATOM      1  N   UNL     1      34.596 -16.789 -24.222  0.00  0.00    -0.323 N 
ATOM      2  N   UNL     1      34.921 -16.044 -20.795  0.00  0.00    -0.247 NA
ATOM      3  N   UNL     1      33.733 -14.166 -21.788  0.00  0.00    -0.232 NA
ATOM      4  N   UNL     1      33.207 -14.085 -24.122  0.00  0.00    -0.345 N 
ATOM      5  C   UNL     1      35.492 -17.810 -22.479  0.00  0.00    -0.014 C 
ATOM      6  C   UNL     1      34.950 -16.593 -22.034  0.00  0.00    +0.076 C 
ATOM      7  C   UNL     1      35.268 -17.917 -23.823  0.00  0.00    +0.053 C 
ATOM      8  C   UNL     1      34.391 -15.966 -23.144  0.00  0.00    +0.163 C 
ATOM      9  C   UNL     1      33.775 -14.734 -23.013  0.00  0.00    +0.123 C 
ATOM     10  C   UNL     1      34.301 -14.847 -20.768  0.00  0.00    +0.251 C 
ATOM     11  H   UNL     1      34.306 -16.599 -25.144  0.00  0.00    +0.148 HD
ATOM     12  H   UNL     1      32.773 -13.209 -24.010  0.00  0.00    +0.143 HD
ATOM     13  H   UNL     1      33.242 -14.507 -25.011  0.00  0.00    +0.143 HD
ENDROOT
BRANCH   5  14
ATOM     14  C   UNL     1      36.195 -18.822 -21.633  0.00  0.00    -0.047 C 
BRANCH  14  15
ATOM     15  N   UNL     1      35.252 -19.393 -20.685  0.00  0.00    +0.391 N 
ATOM     16  C   UNL     1      34.459 -21.153 -19.424  0.00  0.00    +0.015 C 
ATOM     17  C   UNL     1      33.342 -20.768 -20.397  0.00  0.00    +0.089 C 
ATOM     18  C   UNL     1      35.719 -20.662 -20.123  0.00  0.00    -0.073 C 
ATOM     19  C   UNL     1      33.947 -19.684 -21.293  0.00  0.00    -0.047 C 
ATOM     20  H   UNL     1      35.168 -18.680 -19.961  0.00  0.00    -0.079 HD
BRANCH  17  21
ATOM     21  O   UNL     1      32.229 -20.269 -19.670  0.00  0.00    -0.387 OA
ATOM     22  H   UNL     1      31.411 -20.632 -20.042  0.00  0.00    +0.210 HD
ENDBRANCH  17  21
BRANCH  16  23
ATOM     23  C   UNL     1      34.496 -22.642 -19.114  0.00  0.00    +0.058 C 
BRANCH  23  24
ATOM     24  S   UNL     1      33.380 -23.030 -17.741  0.00  0.00    -0.139 S 
ATOM     25  C   UNL     1      34.613 -23.168 -16.426  0.00  0.00    +0.069 C 
ENDBRANCH  23  24
ENDBRANCH  16  23
ENDBRANCH  14  15
ENDBRANCH   5  14
TORSDOF 5
ENDMDL
MODEL 4
REMARK VINA RESULT:      -8.2      3.952      6.063
REMARK  Name = 656970
REMARK  5 active torsions:
REMARK  status: ('A' for Active; 'I' for Inactive)
REMARK    1  A    between atoms: C_5  and  C_14
REMARK    2  A    between atoms: C_14  and  N_15
REMARK    3  A    between atoms: C_16  and  C_23
REMARK    4  A    between atoms: C_17  and  O_21
REMARK    5  A    between atoms: C_23  and  S_24
REMARK                            x       y       z     vdW  Elec       q    Type
REMARK                         _______ _______ _______ _____ _____    ______ ____
ROOT
ATOM      1  N   UNL     1      35.061 -17.089 -24.103  0.00  0.00    -0.323 N 
ATOM      2  N   UNL     1      33.828 -14.847 -21.681  0.00  0.00    -0.247 NA
ATOM      3  N   UNL     1      35.072 -16.548 -20.462  0.00  0.00    -0.232 NA
ATOM      4  N   UNL     1      36.158 -18.369 -21.571  0.00  0.00    -0.345 N 
ATOM      5  C   UNL     1      33.842 -15.247 -24.156  0.00  0.00    -0.014 C 
ATOM      6  C   UNL     1      34.155 -15.518 -22.814  0.00  0.00    +0.076 C 
ATOM      7  C   UNL     1      34.404 -16.219 -24.935  0.00  0.00    +0.053 C 
ATOM      8  C   UNL     1      34.922 -16.679 -22.801  0.00  0.00    +0.163 C 
ATOM      9  C   UNL     1      35.385 -17.197 -21.604  0.00  0.00    +0.123 C 
ATOM     10  C   UNL     1      34.323 -15.427 -20.569  0.00  0.00    +0.251 C 
ATOM     11  H   UNL     1      35.557 -17.888 -24.395  0.00  0.00    +0.148 HD
ATOM     12  H   UNL     1      36.479 -18.724 -20.710  0.00  0.00    +0.143 HD
ATOM     13  H   UNL     1      36.381 -18.837 -22.409  0.00  0.00    +0.143 HD
ENDROOT
BRANCH   5  14
ATOM     14  C   UNL     1      33.033 -14.094 -24.655  0.00  0.00    -0.047 C 
BRANCH  14  15
ATOM     15  N   UNL     1      33.518 -12.867 -24.043  0.00  0.00    +0.391 N 
ATOM     16  C   UNL     1      33.161 -10.811 -23.063  0.00  0.00    +0.015 C 
ATOM     17  C   UNL     1      33.953 -10.556 -24.348  0.00  0.00    +0.089 C 
ATOM     18  C   UNL     1      32.465 -12.137 -23.336  0.00  0.00    -0.073 C 
ATOM     19  C   UNL     1      34.064 -11.924 -25.028  0.00  0.00    -0.047 C 
ATOM     20  H   UNL     1      34.242 -13.182 -23.399  0.00  0.00    -0.079 HD
BRANCH  17  21
ATOM     21  O   UNL     1      35.235 -10.041 -24.022  0.00  0.00    -0.387 OA
ATOM     22  H   UNL     1      35.905 -10.726 -24.168  0.00  0.00    +0.210 HD
ENDBRANCH  17  21
BRANCH  16  23
ATOM     23  C   UNL     1      32.189  -9.690 -22.727  0.00  0.00    +0.058 C 
BRANCH  23  24
ATOM     24  S   UNL     1      31.884  -9.632 -20.942  0.00  0.00    -0.139 S 
ATOM     25  C   UNL     1      32.641  -8.028 -20.594  0.00  0.00    +0.069 C 
ENDBRANCH  23  24
ENDBRANCH  16  23
ENDBRANCH  14  15
ENDBRANCH   5  14
TORSDOF 5
ENDMDL
MODEL 5
REMARK VINA RESULT:      -8.1      8.845      9.966
REMARK  Name = 656970
REMARK  5 active torsions:
REMARK  status: ('A' for Active; 'I' for Inactive)
REMARK    1  A    between atoms: C_5  and  C_14
REMARK    2  A    between atoms: C_14  and  N_15
REMARK    3  A    between atoms: C_16  and  C_23
REMARK    4  A    between atoms: C_17  and  O_21
REMARK    5  A    between atoms: C_23  and  S_24
REMARK                            x       y       z     vdW  Elec       q    Type
REMARK                         _______ _______ _______ _____ _____    ______ ____
ROOT
ATOM      1  N   UNL     1      35.920 -24.973 -15.167  0.00  0.00    -0.323 N 
ATOM      2  N   UNL     1      34.602 -24.153 -12.005  0.00  0.00    -0.247 NA
ATOM      3  N   UNL     1      36.673 -25.360 -11.585  0.00  0.00    -0.232 NA
ATOM      4  N   UNL     1      38.043 -26.192 -13.362  0.00  0.00    -0.345 N 
ATOM      5  C   UNL     1      34.120 -23.908 -14.453  0.00  0.00    -0.014 C 
ATOM      6  C   UNL     1      34.852 -24.320 -13.327  0.00  0.00    +0.076 C 
ATOM      7  C   UNL     1      34.787 -24.316 -15.575  0.00  0.00    +0.053 C 
ATOM      8  C   UNL     1      35.979 -24.988 -13.797  0.00  0.00    +0.163 C 
ATOM      9  C   UNL     1      36.901 -25.514 -12.908  0.00  0.00    +0.123 C 
ATOM     10  C   UNL     1      35.553 -24.698 -11.220  0.00  0.00    +0.251 C 
ATOM     11  H   UNL     1      36.588 -25.376 -15.768  0.00  0.00    +0.148 HD
ATOM     12  H   UNL     1      38.688 -26.560 -12.716  0.00  0.00    +0.143 HD
ATOM     13  H   UNL     1      38.201 -26.300 -14.329  0.00  0.00    +0.143 HD
ENDROOT
BRANCH   5  14
ATOM     14  C   UNL     1      32.832 -23.152 -14.436  0.00  0.00    -0.047 C 
BRANCH  14  15
ATOM     15  N   UNL     1      31.759 -24.020 -14.894  0.00  0.00    +0.391 N 
ATOM     16  C   UNL     1      29.806 -24.386 -16.064  0.00  0.00    +0.015 C 
ATOM     17  C   UNL     1      29.503 -24.687 -14.594  0.00  0.00    +0.089 C 
ATOM     18  C   UNL     1      30.989 -23.431 -15.991  0.00  0.00    -0.073 C 
ATOM     19  C   UNL     1      30.783 -24.317 -13.838  0.00  0.00    -0.047 C 
ATOM     20  H   UNL     1      32.240 -24.867 -15.197  0.00  0.00    -0.079 HD
BRANCH  17  21
ATOM     21  O   UNL     1      29.200 -26.065 -14.442  0.00  0.00    -0.387 OA
ATOM     22  H   UNL     1      28.437 -26.290 -14.996  0.00  0.00    +0.210 HD
ENDBRANCH  17  21
BRANCH  16  23
ATOM     23  C   UNL     1      28.618 -23.801 -16.812  0.00  0.00    +0.058 C 
BRANCH  23  24
ATOM     24  S   UNL     1      27.827 -22.504 -15.826  0.00  0.00    -0.139 S 
ATOM     25  C   UNL     1      26.687 -21.874 -17.081  0.00  0.00    +0.069 C 
ENDBRANCH  23  24
ENDBRANCH  16  23
ENDBRANCH  14  15
ENDBRANCH   5  14
TORSDOF 5
ENDMDL
MODEL 6
REMARK VINA RESULT:      -8.1      4.030      6.247
REMARK  Name = 656970
REMARK  5 active torsions:
REMARK  status: ('A' for Active; 'I' for Inactive)
REMARK    1  A    between atoms: C_5  and  C_14
REMARK    2  A    between atoms: C_14  and  N_15
REMARK    3  A    between atoms: C_16  and  C_23
REMARK    4  A    between atoms: C_17  and  O_21
REMARK    5  A    between atoms: C_23  and  S_24
REMARK                            x       y       z     vdW  Elec       q    Type
REMARK                         _______ _______ _______ _____ _____    ______ ____
ROOT
ATOM      1  N   UNL     1      34.137 -15.596 -20.690  0.00  0.00    -0.323 N 
ATOM      2  N   UNL     1      34.112 -16.113 -24.174  0.00  0.00    -0.247 NA
ATOM      3  N   UNL     1      35.410 -17.940 -23.227  0.00  0.00    -0.232 NA
ATOM      4  N   UNL     1      35.791 -18.143 -20.873  0.00  0.00    -0.345 N 
ATOM      5  C   UNL     1      33.262 -14.537 -22.420  0.00  0.00    -0.014 C 
ATOM      6  C   UNL     1      33.949 -15.661 -22.906  0.00  0.00    +0.076 C 
ATOM      7  C   UNL     1      33.386 -14.510 -21.059  0.00  0.00    +0.053 C 
ATOM      8  C   UNL     1      34.492 -16.314 -21.804  0.00  0.00    +0.163 C 
ATOM      9  C   UNL     1      35.233 -17.471 -21.972  0.00  0.00    +0.123 C 
ATOM     10  C   UNL     1      34.846 -17.242 -24.237  0.00  0.00    +0.251 C 
ATOM     11  H   UNL     1      34.386 -15.825 -19.765  0.00  0.00    +0.148 HD
ATOM     12  H   UNL     1      36.315 -18.964 -21.011  0.00  0.00    +0.143 HD
ATOM     13  H   UNL     1      35.657 -17.793 -19.961  0.00  0.00    +0.143 HD
ENDROOT
BRANCH   5  14
ATOM     14  C   UNL     1      32.518 -13.536 -23.244  0.00  0.00    -0.047 C 
BRANCH  14  15
ATOM     15  N   UNL     1      33.184 -12.247 -23.151  0.00  0.00    +0.391 N 
ATOM     16  C   UNL     1      33.150  -9.942 -23.145  0.00  0.00    +0.015 C 
ATOM     17  C   UNL     1      34.007 -10.368 -24.341  0.00  0.00    +0.089 C 
ATOM     18  C   UNL     1      32.249 -11.147 -22.911  0.00  0.00    -0.073 C 
ATOM     19  C   UNL     1      33.906 -11.895 -24.381  0.00  0.00    -0.047 C 
ATOM     20  H   UNL     1      33.828 -12.359 -22.369  0.00  0.00    -0.079 HD
BRANCH  17  21
ATOM     21  O   UNL     1      35.348  -9.949 -24.138  0.00  0.00    -0.387 OA
ATOM     22  H   UNL     1      35.870 -10.144 -24.930  0.00  0.00    +0.210 HD
ENDBRANCH  17  21
BRANCH  16  23
ATOM     23  C   UNL     1      32.370  -8.660 -23.395  0.00  0.00    +0.058 C 
BRANCH  23  24
ATOM     24  S   UNL     1      32.999  -7.323 -22.348  0.00  0.00    -0.139 S 
ATOM     25  C   UNL     1      32.576  -8.024 -20.736  0.00  0.00    +0.069 C 
ENDBRANCH  23  24
ENDBRANCH  16  23
ENDBRANCH  14  15
ENDBRANCH   5  14
TORSDOF 5
ENDMDL
MODEL 7
REMARK VINA RESULT:      -8.0      3.276      5.344
REMARK  Name = 656970
REMARK  5 active torsions:
REMARK  status: ('A' for Active; 'I' for Inactive)
REMARK    1  A    between atoms: C_5  and  C_14
REMARK    2  A    between atoms: C_14  and  N_15
REMARK    3  A    between atoms: C_16  and  C_23
REMARK    4  A    between atoms: C_17  and  O_21
REMARK    5  A    between atoms: C_23  and  S_24
REMARK                            x       y       z     vdW  Elec       q    Type
REMARK                         _______ _______ _______ _____ _____    ______ ____
ROOT
ATOM      1  N   UNL     1      33.273 -23.392 -14.812  0.00  0.00    -0.323 N 
ATOM      2  N   UNL     1      36.295 -23.067 -16.593  0.00  0.00    -0.247 NA
ATOM      3  N   UNL     1      36.905 -23.207 -14.241  0.00  0.00    -0.232 NA
ATOM      4  N   UNL     1      35.265 -23.439 -12.513  0.00  0.00    -0.345 N 
ATOM      5  C   UNL     1      33.817 -23.196 -16.945  0.00  0.00    -0.014 C 
ATOM      6  C   UNL     1      35.004 -23.178 -16.195  0.00  0.00    +0.076 C 
ATOM      7  C   UNL     1      32.763 -23.328 -16.084  0.00  0.00    +0.053 C 
ATOM      8  C   UNL     1      34.641 -23.302 -14.857  0.00  0.00    +0.163 C 
ATOM      9  C   UNL     1      35.611 -23.316 -13.869  0.00  0.00    +0.123 C 
ATOM     10  C   UNL     1      37.164 -23.091 -15.562  0.00  0.00    +0.251 C 
ATOM     11  H   UNL     1      32.738 -23.487 -13.991  0.00  0.00    +0.148 HD
ATOM     12  H   UNL     1      35.967 -23.447 -11.824  0.00  0.00    +0.143 HD
ATOM     13  H   UNL     1      34.318 -23.518 -12.252  0.00  0.00    +0.143 HD
ENDROOT
BRANCH   5  14
ATOM     14  C   UNL     1      33.715 -23.091 -18.433  0.00  0.00    -0.047 C 
BRANCH  14  15
ATOM     15  N   UNL     1      34.268 -21.817 -18.863  0.00  0.00    +0.391 N 
ATOM     16  C   UNL     1      34.341 -20.023 -20.310  0.00  0.00    +0.015 C 
ATOM     17  C   UNL     1      35.706 -20.713 -20.391  0.00  0.00    +0.089 C 
ATOM     18  C   UNL     1      33.414 -21.134 -19.836  0.00  0.00    -0.073 C 
ATOM     19  C   UNL     1      35.576 -21.961 -19.514  0.00  0.00    -0.047 C 
ATOM     20  H   UNL     1      34.345 -21.278 -18.001  0.00  0.00    -0.079 HD
BRANCH  17  21
ATOM     21  O   UNL     1      36.710 -19.840 -19.895  0.00  0.00    -0.387 OA
ATOM     22  H   UNL     1      37.573 -20.275 -19.953  0.00  0.00    +0.210 HD
ENDBRANCH  17  21
BRANCH  16  23
ATOM     23  C   UNL     1      33.902 -19.408 -21.630  0.00  0.00    +0.058 C 
BRANCH  23  24
ATOM     24  S   UNL     1      35.183 -18.298 -22.268  0.00  0.00    -0.139 S 
ATOM     25  C   UNL     1      34.949 -16.928 -21.113  0.00  0.00    +0.069 C 
ENDBRANCH  23  24
ENDBRANCH  16  23
ENDBRANCH  14  15
ENDBRANCH   5  14
TORSDOF 5
ENDMDL
MODEL 8
REMARK VINA RESULT:      -7.9      3.556      7.353
REMARK  Name = 656970
REMARK  5 active torsions:
REMARK  status: ('A' for Active; 'I' for Inactive)
REMARK    1  A    between atoms: C_5  and  C_14
REMARK    2  A    between atoms: C_14  and  N_15
REMARK    3  A    between atoms: C_16  and  C_23
REMARK    4  A    between atoms: C_17  and  O_21
REMARK    5  A    between atoms: C_23  and  S_24
REMARK                            x       y       z     vdW  Elec       q    Type
REMARK                         _______ _______ _______ _____ _____    ______ ____
ROOT
ATOM      1  N   UNL     1      34.285 -15.380 -22.057  0.00  0.00    -0.323 N 
ATOM      2  N   UNL     1      34.931 -17.899 -24.433  0.00  0.00    -0.247 NA
ATOM      3  N   UNL     1      33.799 -16.109 -25.632  0.00  0.00    -0.232 NA
ATOM      4  N   UNL     1      33.093 -14.098 -24.544  0.00  0.00    -0.345 N 
ATOM      5  C   UNL     1      35.245 -17.370 -22.004  0.00  0.00    -0.014 C 
ATOM      6  C   UNL     1      34.824 -17.131 -23.322  0.00  0.00    +0.076 C 
ATOM      7  C   UNL     1      34.908 -16.288 -21.239  0.00  0.00    +0.053 C 
ATOM      8  C   UNL     1      34.223 -15.875 -23.335  0.00  0.00    +0.163 C 
ATOM      9  C   UNL     1      33.705 -15.362 -24.511  0.00  0.00    +0.123 C 
ATOM     10  C   UNL     1      34.399 -17.316 -25.526  0.00  0.00    +0.251 C 
ATOM     11  H   UNL     1      33.935 -14.506 -21.770  0.00  0.00    +0.148 HD
ATOM     12  H   UNL     1      32.730 -13.748 -25.389  0.00  0.00    +0.143 HD
ATOM     13  H   UNL     1      33.028 -13.560 -23.721  0.00  0.00    +0.143 HD
ENDROOT
BRANCH   5  14
ATOM     14  C   UNL     1      35.945 -18.596 -21.513  0.00  0.00    -0.047 C 
BRANCH  14  15
ATOM     15  N   UNL     1      35.090 -19.287 -20.560  0.00  0.00    +0.391 N 
ATOM     16  C   UNL     1      34.501 -21.160 -19.350  0.00  0.00    +0.015 C 
ATOM     17  C   UNL     1      33.321 -20.839 -20.270  0.00  0.00    +0.089 C 
ATOM     18  C   UNL     1      35.688 -20.529 -20.068  0.00  0.00    -0.073 C 
ATOM     19  C   UNL     1      33.796 -19.670 -21.138  0.00  0.00    -0.047 C 
ATOM     20  H   UNL     1      34.969 -18.614 -19.804  0.00  0.00    -0.079 HD
BRANCH  17  21
ATOM     21  O   UNL     1      32.195 -20.471 -19.488  0.00  0.00    -0.387 OA
ATOM     22  H   UNL     1      32.458 -20.395 -18.559  0.00  0.00    +0.210 HD
ENDBRANCH  17  21
BRANCH  16  23
ATOM     23  C   UNL     1      34.682 -22.650 -19.105  0.00  0.00    +0.058 C 
BRANCH  23  24
ATOM     24  S   UNL     1      34.496 -23.028 -17.343  0.00  0.00    -0.139 S 
ATOM     25  C   UNL     1      36.097 -22.416 -16.769  0.00  0.00    +0.069 C 
ENDBRANCH  23  24
ENDBRANCH  16  23
ENDBRANCH  14  15
ENDBRANCH   5  14
TORSDOF 5
ENDMDL
MODEL 9
REMARK VINA RESULT:      -7.8      4.996      8.612
REMARK  Name = 656970
REMARK  5 active torsions:
REMARK  status: ('A' for Active; 'I' for Inactive)
REMARK    1  A    between atoms: C_5  and  C_14
REMARK    2  A    between atoms: C_14  and  N_15
REMARK    3  A    between atoms: C_16  and  C_23
REMARK    4  A    between atoms: C_17  and  O_21
REMARK    5  A    between atoms: C_23  and  S_24
REMARK                            x       y       z     vdW  Elec       q    Type
REMARK                         _______ _______ _______ _____ _____    ______ ____
ROOT
ATOM      1  N   UNL     1      36.291 -20.768 -19.596  0.00  0.00    -0.323 N 
ATOM      2  N   UNL     1      32.820 -20.882 -20.182  0.00  0.00    -0.247 NA
ATOM      3  N   UNL     1      33.656 -18.963 -21.424  0.00  0.00    -0.232 NA
ATOM      4  N   UNL     1      35.971 -18.355 -21.420  0.00  0.00    -0.345 N 
ATOM      5  C   UNL     1      34.640 -22.086 -18.950  0.00  0.00    -0.014 C 
ATOM      6  C   UNL     1      34.098 -21.093 -19.781  0.00  0.00    +0.076 C 
ATOM      7  C   UNL     1      35.987 -21.875 -18.845  0.00  0.00    +0.053 C 
ATOM      8  C   UNL     1      35.152 -20.274 -20.176  0.00  0.00    +0.163 C 
ATOM      9  C   UNL     1      34.921 -19.194 -21.011  0.00  0.00    +0.123 C 
ATOM     10  C   UNL     1      32.696 -19.810 -20.990  0.00  0.00    +0.251 C 
ATOM     11  H   UNL     1      37.193 -20.385 -19.700  0.00  0.00    +0.148 HD
ATOM     12  H   UNL     1      35.788 -17.592 -22.014  0.00  0.00    +0.143 HD
ATOM     13  H   UNL     1      36.890 -18.531 -21.113  0.00  0.00    +0.143 HD
ENDROOT
BRANCH   5  14
ATOM     14  C   UNL     1      33.881 -23.192 -18.289  0.00  0.00    -0.047 C 
BRANCH  14  15
ATOM     15  N   UNL     1      33.754 -22.904 -16.869  0.00  0.00    +0.391 N 
ATOM     16  C   UNL     1      34.224 -23.359 -14.658  0.00  0.00    +0.015 C 
ATOM     17  C   UNL     1      32.709 -23.505 -14.827  0.00  0.00    +0.089 C 
ATOM     18  C   UNL     1      34.759 -23.599 -16.063  0.00  0.00    -0.073 C 
ATOM     19  C   UNL     1      32.454 -23.316 -16.325  0.00  0.00    -0.047 C 
ATOM     20  H   UNL     1      33.871 -21.894 -16.810  0.00  0.00    -0.079 HD
BRANCH  17  21
ATOM     21  O   UNL     1      32.047 -22.508 -14.065  0.00  0.00    -0.387 OA
ATOM     22  H   UNL     1      32.426 -21.640 -14.270  0.00  0.00    +0.210 HD
ENDBRANCH  17  21
BRANCH  16  23
ATOM     23  C   UNL     1      34.807 -24.317 -13.631  0.00  0.00    +0.058 C 
BRANCH  23  24
ATOM     24  S   UNL     1      36.208 -23.552 -12.775  0.00  0.00    -0.139 S 
ATOM     25  C   UNL     1      37.547 -24.370 -13.671  0.00  0.00    +0.069 C 
ENDBRANCH  23  24
ENDBRANCH  16  23
ENDBRANCH  14  15
ENDBRANCH   5  14
TORSDOF 5
ENDMDL
