MODEL 1
REMARK VINA RESULT:      -7.6      0.000      0.000
REMARK  Name = 26175
REMARK  4 active torsions:
REMARK  status: ('A' for Active; 'I' for Inactive)
REMARK    1  A    between atoms: C_3  and  C_12
REMARK    2  A    between atoms: C_8  and  O_10
REMARK    3  A    between atoms: C_12  and  C_13
REMARK    4  A    between atoms: C_13  and  N_15
REMARK                            x       y       z     vdW  Elec       q    Type
REMARK                         _______ _______ _______ _____ _____    ______ ____
ROOT
ATOM      1  O   UNL     1      33.579 -16.072 -26.345  0.00  0.00    -0.435 OA
ATOM      2  O   UNL     1      32.980 -14.167 -24.998  0.00  0.00    -0.431 OA
ATOM      3  C   UNL     1      35.115 -17.178 -23.202  0.00  0.00    -0.018 C 
ATOM      4  C   UNL     1      34.741 -17.244 -24.547  0.00  0.00    +0.036 C 
ATOM      5  C   UNL     1      34.025 -16.185 -25.065  0.00  0.00    +0.179 C 
ATOM      6  C   UNL     1      34.766 -16.066 -22.416  0.00  0.00    +0.036 C 
ATOM      7  C   UNL     1      33.683 -15.096 -24.296  0.00  0.00    +0.210 C 
ATOM      8  C   UNL     1      34.039 -15.006 -22.965  0.00  0.00    +0.175 C 
ATOM      9  C   UNL     1      32.918 -14.793 -26.296  0.00  0.00    +0.429 C 
ENDROOT
BRANCH   8  10
ATOM     10  O   UNL     1      33.701 -13.931 -22.211  0.00  0.00    -0.468 OA
ATOM     11  C   UNL     1      32.762 -14.141 -21.155  0.00  0.00    +0.253 C 
ENDBRANCH   8  10
BRANCH   3  12
ATOM     12  C   UNL     1      35.891 -18.298 -22.593  0.00  0.00    +0.005 C 
BRANCH  12  13
ATOM     13  C   UNL     1      35.433 -18.684 -21.166  0.00  0.00    -0.061 C 
ATOM     14  C   UNL     1      34.209 -19.598 -21.177  0.00  0.00    -0.024 C 
BRANCH  13  15
ATOM     15  N   UNL     1      36.518 -19.372 -20.459  0.00  0.00    +0.382 N 
ATOM     16  H   UNL     1      36.187 -20.277 -20.127  0.00  0.00    -0.089 HD
ATOM     17  H   UNL     1      36.818 -18.807 -19.664  0.00  0.00    -0.089 HD
ATOM     18  H   UNL     1      37.304 -19.509 -21.094  0.00  0.00    -0.089 HD
ENDBRANCH  13  15
ENDBRANCH  12  13
ENDBRANCH   3  12
TORSDOF 4
ENDMDL
MODEL 2
REMARK VINA RESULT:      -7.6      5.455      7.936
REMARK  Name = 26175
REMARK  4 active torsions:
REMARK  status: ('A' for Active; 'I' for Inactive)
REMARK    1  A    between atoms: C_3  and  C_12
REMARK    2  A    between atoms: C_8  and  O_10
REMARK    3  A    between atoms: C_12  and  C_13
REMARK    4  A    between atoms: C_13  and  N_15
REMARK                            x       y       z     vdW  Elec       q    Type
REMARK                         _______ _______ _______ _____ _____    ______ ____
ROOT
ATOM      1  O   UNL     1      32.332 -22.637 -18.143  0.00  0.00    -0.435 OA
ATOM      2  O   UNL     1      34.468 -23.218 -17.193  0.00  0.00    -0.431 OA
ATOM      3  C   UNL     1      34.432 -20.557 -20.317  0.00  0.00    -0.018 C 
ATOM      4  C   UNL     1      33.254 -21.114 -19.814  0.00  0.00    +0.036 C 
ATOM      5  C   UNL     1      33.363 -22.000 -18.762  0.00  0.00    +0.179 C 
ATOM      6  C   UNL     1      35.679 -20.897 -19.762  0.00  0.00    +0.036 C 
ATOM      7  C   UNL     1      34.583 -22.333 -18.218  0.00  0.00    +0.210 C 
ATOM      8  C   UNL     1      35.762 -21.797 -18.697  0.00  0.00    +0.175 C 
ATOM      9  C   UNL     1      33.039 -23.407 -17.151  0.00  0.00    +0.429 C 
ENDROOT
BRANCH   8  10
ATOM     10  O   UNL     1      36.962 -22.127 -18.158  0.00  0.00    -0.468 OA
ATOM     11  C   UNL     1      37.273 -21.586 -16.873  0.00  0.00    +0.253 C 
ENDBRANCH   8  10
BRANCH   3  12
ATOM     12  C   UNL     1      34.369 -19.594 -21.455  0.00  0.00    +0.005 C 
BRANCH  12  13
ATOM     13  C   UNL     1      35.557 -18.604 -21.515  0.00  0.00    -0.061 C 
ATOM     14  C   UNL     1      35.912 -18.211 -22.948  0.00  0.00    -0.024 C 
BRANCH  13  15
ATOM     15  N   UNL     1      35.235 -17.385 -20.767  0.00  0.00    +0.382 N 
ATOM     16  H   UNL     1      36.066 -17.058 -20.275  0.00  0.00    -0.089 HD
ATOM     17  H   UNL     1      34.497 -17.585 -20.092  0.00  0.00    -0.089 HD
ATOM     18  H   UNL     1      34.917 -16.664 -21.415  0.00  0.00    -0.089 HD
ENDBRANCH  13  15
ENDBRANCH  12  13
ENDBRANCH   3  12
TORSDOF 4
ENDMDL
MODEL 3
REMARK VINA RESULT:      -6.9      1.114      3.173
REMARK  Name = 26175
REMARK  4 active torsions:
REMARK  status: ('A' for Active; 'I' for Inactive)
REMARK    1  A    between atoms: C_3  and  C_12
REMARK    2  A    between atoms: C_8  and  O_10
REMARK    3  A    between atoms: C_12  and  C_13
REMARK    4  A    between atoms: C_13  and  N_15
REMARK                            x       y       z     vdW  Elec       q    Type
REMARK                         _______ _______ _______ _____ _____    ______ ____
ROOT
ATOM      1  O   UNL     1      32.630 -13.783 -20.614  0.00  0.00    -0.435 OA
ATOM      2  O   UNL     1      32.141 -12.936 -22.816  0.00  0.00    -0.431 OA
ATOM      3  C   UNL     1      34.541 -16.255 -22.538  0.00  0.00    -0.018 C 
ATOM      4  C   UNL     1      34.020 -15.628 -21.403  0.00  0.00    +0.036 C 
ATOM      5  C   UNL     1      33.223 -14.519 -21.593  0.00  0.00    +0.179 C 
ATOM      6  C   UNL     1      34.255 -15.760 -23.823  0.00  0.00    +0.036 C 
ATOM      7  C   UNL     1      32.944 -14.034 -22.851  0.00  0.00    +0.210 C 
ATOM      8  C   UNL     1      33.445 -14.634 -23.988  0.00  0.00    +0.175 C 
ATOM      9  C   UNL     1      31.946 -12.783 -21.395  0.00  0.00    +0.429 C 
ENDROOT
BRANCH   8  10
ATOM     10  O   UNL     1      33.166 -14.154 -25.225  0.00  0.00    -0.468 OA
ATOM     11  C   UNL     1      32.995 -15.108 -26.275  0.00  0.00    +0.253 C 
ENDBRANCH   8  10
BRANCH   3  12
ATOM     12  C   UNL     1      35.409 -17.459 -22.387  0.00  0.00    +0.005 C 
BRANCH  12  13
ATOM     13  C   UNL     1      35.056 -18.345 -21.168  0.00  0.00    -0.061 C 
ATOM     14  C   UNL     1      34.051 -19.441 -21.520  0.00  0.00    -0.024 C 
BRANCH  13  15
ATOM     15  N   UNL     1      36.267 -18.981 -20.641  0.00  0.00    +0.382 N 
ATOM     16  H   UNL     1      36.018 -19.851 -20.172  0.00  0.00    -0.089 HD
ATOM     17  H   UNL     1      36.719 -18.354 -19.975  0.00  0.00    -0.089 HD
ATOM     18  H   UNL     1      36.909 -19.180 -21.409  0.00  0.00    -0.089 HD
ENDBRANCH  13  15
ENDBRANCH  12  13
ENDBRANCH   3  12
TORSDOF 4
ENDMDL
MODEL 4
REMARK VINA RESULT:      -6.9      8.259     10.863
REMARK  Name = 26175
REMARK  4 active torsions:
REMARK  status: ('A' for Active; 'I' for Inactive)
REMARK    1  A    between atoms: C_3  and  C_12
REMARK    2  A    between atoms: C_8  and  O_10
REMARK    3  A    between atoms: C_12  and  C_13
REMARK    4  A    between atoms: C_13  and  N_15
REMARK                            x       y       z     vdW  Elec       q    Type
REMARK                         _______ _______ _______ _____ _____    ______ ____
ROOT
ATOM      1  O   UNL     1      30.069 -23.263 -14.619  0.00  0.00    -0.435 OA
ATOM      2  O   UNL     1      30.211 -22.630 -16.940  0.00  0.00    -0.431 OA
ATOM      3  C   UNL     1      33.680 -23.748 -15.053  0.00  0.00    -0.018 C 
ATOM      4  C   UNL     1      32.454 -23.730 -14.384  0.00  0.00    +0.036 C 
ATOM      5  C   UNL     1      31.340 -23.340 -15.099  0.00  0.00    +0.179 C 
ATOM      6  C   UNL     1      33.762 -23.379 -16.408  0.00  0.00    +0.036 C 
ATOM      7  C   UNL     1      31.420 -22.979 -16.425  0.00  0.00    +0.210 C 
ATOM      8  C   UNL     1      32.619 -22.988 -17.109  0.00  0.00    +0.175 C 
ATOM      9  C   UNL     1      29.359 -22.812 -15.790  0.00  0.00    +0.429 C 
ENDROOT
BRANCH   8  10
ATOM     10  O   UNL     1      32.693 -22.632 -18.415  0.00  0.00    -0.468 OA
ATOM     11  C   UNL     1      33.982 -22.299 -18.931  0.00  0.00    +0.253 C 
ENDBRANCH   8  10
BRANCH   3  12
ATOM     12  C   UNL     1      34.915 -24.163 -14.325  0.00  0.00    +0.005 C 
BRANCH  12  13
ATOM     13  C   UNL     1      35.930 -24.946 -15.192  0.00  0.00    -0.061 C 
ATOM     14  C   UNL     1      37.376 -24.574 -14.871  0.00  0.00    -0.024 C 
BRANCH  13  15
ATOM     15  N   UNL     1      35.766 -26.387 -14.980  0.00  0.00    +0.382 N 
ATOM     16  H   UNL     1      36.232 -26.659 -14.115  0.00  0.00    -0.089 HD
ATOM     17  H   UNL     1      36.178 -26.896 -15.762  0.00  0.00    -0.089 HD
ATOM     18  H   UNL     1      34.772 -26.610 -14.915  0.00  0.00    -0.089 HD
ENDBRANCH  13  15
ENDBRANCH  12  13
ENDBRANCH   3  12
TORSDOF 4
ENDMDL
MODEL 5
REMARK VINA RESULT:      -6.8      8.701     11.518
REMARK  Name = 26175
REMARK  4 active torsions:
REMARK  status: ('A' for Active; 'I' for Inactive)
REMARK    1  A    between atoms: C_3  and  C_12
REMARK    2  A    between atoms: C_8  and  O_10
REMARK    3  A    between atoms: C_12  and  C_13
REMARK    4  A    between atoms: C_13  and  N_15
REMARK                            x       y       z     vdW  Elec       q    Type
REMARK                         _______ _______ _______ _____ _____    ______ ____
ROOT
ATOM      1  O   UNL     1      34.797 -24.209 -13.759  0.00  0.00    -0.435 OA
ATOM      2  O   UNL     1      35.645 -24.088 -16.011  0.00  0.00    -0.431 OA
ATOM      3  C   UNL     1      31.698 -23.139 -15.406  0.00  0.00    -0.018 C 
ATOM      4  C   UNL     1      32.531 -23.521 -14.352  0.00  0.00    +0.036 C 
ATOM      5  C   UNL     1      33.844 -23.821 -14.650  0.00  0.00    +0.179 C 
ATOM      6  C   UNL     1      32.193 -23.068 -16.720  0.00  0.00    +0.036 C 
ATOM      7  C   UNL     1      34.329 -23.753 -15.936  0.00  0.00    +0.210 C 
ATOM      8  C   UNL     1      33.527 -23.378 -16.995  0.00  0.00    +0.175 C 
ATOM      9  C   UNL     1      35.935 -24.376 -14.627  0.00  0.00    +0.429 C 
ENDROOT
BRANCH   8  10
ATOM     10  O   UNL     1      34.010 -23.311 -18.261  0.00  0.00    -0.468 OA
ATOM     11  C   UNL     1      33.657 -22.164 -19.036  0.00  0.00    +0.253 C 
ENDBRANCH   8  10
BRANCH   3  12
ATOM     12  C   UNL     1      30.269 -22.802 -15.137  0.00  0.00    +0.005 C 
BRANCH  12  13
ATOM     13  C   UNL     1      29.257 -23.799 -15.751  0.00  0.00    -0.061 C 
ATOM     14  C   UNL     1      29.058 -25.036 -14.877  0.00  0.00    -0.024 C 
BRANCH  13  15
ATOM     15  N   UNL     1      27.956 -23.147 -15.933  0.00  0.00    +0.382 N 
ATOM     16  H   UNL     1      27.693 -23.182 -16.917  0.00  0.00    -0.089 HD
ATOM     17  H   UNL     1      28.018 -22.174 -15.632  0.00  0.00    -0.089 HD
ATOM     18  H   UNL     1      27.253 -23.631 -15.374  0.00  0.00    -0.089 HD
ENDBRANCH  13  15
ENDBRANCH  12  13
ENDBRANCH   3  12
TORSDOF 4
ENDMDL
MODEL 6
REMARK VINA RESULT:      -6.8      8.016     10.344
REMARK  Name = 26175
REMARK  4 active torsions:
REMARK  status: ('A' for Active; 'I' for Inactive)
REMARK    1  A    between atoms: C_3  and  C_12
REMARK    2  A    between atoms: C_8  and  O_10
REMARK    3  A    between atoms: C_12  and  C_13
REMARK    4  A    between atoms: C_13  and  N_15
REMARK                            x       y       z     vdW  Elec       q    Type
REMARK                         _______ _______ _______ _____ _____    ______ ____
ROOT
ATOM      1  O   UNL     1      34.955 -22.729 -18.303  0.00  0.00    -0.435 OA
ATOM      2  O   UNL     1      32.647 -22.285 -18.835  0.00  0.00    -0.431 OA
ATOM      3  C   UNL     1      33.503 -23.684 -15.072  0.00  0.00    -0.018 C 
ATOM      4  C   UNL     1      34.505 -23.469 -16.021  0.00  0.00    +0.036 C 
ATOM      5  C   UNL     1      34.124 -22.997 -17.260  0.00  0.00    +0.179 C 
ATOM      6  C   UNL     1      32.156 -23.425 -15.382  0.00  0.00    +0.036 C 
ATOM      7  C   UNL     1      32.806 -22.744 -17.564  0.00  0.00    +0.210 C 
ATOM      8  C   UNL     1      31.796 -22.947 -16.645  0.00  0.00    +0.175 C 
ATOM      9  C   UNL     1      34.014 -22.278 -19.297  0.00  0.00    +0.429 C 
ENDROOT
BRANCH   8  10
ATOM     10  O   UNL     1      30.499 -22.695 -16.949  0.00  0.00    -0.468 OA
ATOM     11  C   UNL     1      29.505 -23.236 -16.078  0.00  0.00    +0.253 C 
ENDBRANCH   8  10
BRANCH   3  12
ATOM     12  C   UNL     1      33.863 -24.194 -13.716  0.00  0.00    +0.005 C 
BRANCH  12  13
ATOM     13  C   UNL     1      35.382 -24.196 -13.423  0.00  0.00    -0.061 C 
ATOM     14  C   UNL     1      35.704 -23.657 -12.030  0.00  0.00    -0.024 C 
BRANCH  13  15
ATOM     15  N   UNL     1      35.912 -25.558 -13.526  0.00  0.00    +0.382 N 
ATOM     16  H   UNL     1      36.754 -25.553 -14.101  0.00  0.00    -0.089 HD
ATOM     17  H   UNL     1      35.213 -26.165 -13.953  0.00  0.00    -0.089 HD
ATOM     18  H   UNL     1      36.139 -25.906 -12.593  0.00  0.00    -0.089 HD
ENDBRANCH  13  15
ENDBRANCH  12  13
ENDBRANCH   3  12
TORSDOF 4
ENDMDL
MODEL 7
REMARK VINA RESULT:      -6.8      0.730      2.766
REMARK  Name = 26175
REMARK  4 active torsions:
REMARK  status: ('A' for Active; 'I' for Inactive)
REMARK    1  A    between atoms: C_3  and  C_12
REMARK    2  A    between atoms: C_8  and  O_10
REMARK    3  A    between atoms: C_12  and  C_13
REMARK    4  A    between atoms: C_13  and  N_15
REMARK                            x       y       z     vdW  Elec       q    Type
REMARK                         _______ _______ _______ _____ _____    ______ ____
ROOT
ATOM      1  O   UNL     1      33.794 -14.170 -21.799  0.00  0.00    -0.435 OA
ATOM      2  O   UNL     1      33.444 -13.795 -24.153  0.00  0.00    -0.431 OA
ATOM      3  C   UNL     1      34.893 -17.458 -23.000  0.00  0.00    -0.018 C 
ATOM      4  C   UNL     1      34.609 -16.455 -22.069  0.00  0.00    +0.036 C 
ATOM      5  C   UNL     1      34.126 -15.256 -22.549  0.00  0.00    +0.179 C 
ATOM      6  C   UNL     1      34.688 -17.240 -24.373  0.00  0.00    +0.036 C 
ATOM      7  C   UNL     1      33.926 -15.041 -23.894  0.00  0.00    +0.210 C 
ATOM      8  C   UNL     1      34.198 -16.015 -24.833  0.00  0.00    +0.175 C 
ATOM      9  C   UNL     1      33.363 -13.249 -22.820  0.00  0.00    +0.429 C 
ENDROOT
BRANCH   8  10
ATOM     10  O   UNL     1      33.998 -15.799 -26.157  0.00  0.00    -0.468 OA
ATOM     11  C   UNL     1      32.731 -15.271 -26.551  0.00  0.00    +0.253 C 
ENDBRANCH   8  10
BRANCH   3  12
ATOM     12  C   UNL     1      35.418 -18.775 -22.532  0.00  0.00    +0.005 C 
BRANCH  12  13
ATOM     13  C   UNL     1      35.257 -19.018 -21.012  0.00  0.00    -0.061 C 
ATOM     14  C   UNL     1      34.177 -20.053 -20.702  0.00  0.00    -0.024 C 
BRANCH  13  15
ATOM     15  N   UNL     1      36.523 -19.486 -20.441  0.00  0.00    +0.382 N 
ATOM     16  H   UNL     1      36.839 -20.313 -20.945  0.00  0.00    -0.089 HD
ATOM     17  H   UNL     1      36.387 -19.719 -19.457  0.00  0.00    -0.089 HD
ATOM     18  H   UNL     1      37.225 -18.749 -20.522  0.00  0.00    -0.089 HD
ENDBRANCH  13  15
ENDBRANCH  12  13
ENDBRANCH   3  12
TORSDOF 4
ENDMDL
MODEL 8
REMARK VINA RESULT:      -6.7      8.230     10.700
REMARK  Name = 26175
REMARK  4 active torsions:
REMARK  status: ('A' for Active; 'I' for Inactive)
REMARK    1  A    between atoms: C_3  and  C_12
REMARK    2  A    between atoms: C_8  and  O_10
REMARK    3  A    between atoms: C_12  and  C_13
REMARK    4  A    between atoms: C_13  and  N_15
REMARK                            x       y       z     vdW  Elec       q    Type
REMARK                         _______ _______ _______ _____ _____    ______ ____
ROOT
ATOM      1  O   UNL     1      32.948 -22.404 -18.985  0.00  0.00    -0.435 OA
ATOM      2  O   UNL     1      35.097 -22.843 -17.988  0.00  0.00    -0.431 OA
ATOM      3  C   UNL     1      31.777 -23.210 -15.602  0.00  0.00    -0.018 C 
ATOM      4  C   UNL     1      31.678 -22.843 -16.947  0.00  0.00    +0.036 C 
ATOM      5  C   UNL     1      32.848 -22.745 -17.671  0.00  0.00    +0.179 C 
ATOM      6  C   UNL     1      33.031 -23.466 -15.021  0.00  0.00    +0.036 C 
ATOM      7  C   UNL     1      34.076 -22.995 -17.102  0.00  0.00    +0.210 C 
ATOM      8  C   UNL     1      34.201 -23.359 -15.777  0.00  0.00    +0.175 C 
ATOM      9  C   UNL     1      34.375 -22.468 -19.179  0.00  0.00    +0.429 C 
ENDROOT
BRANCH   8  10
ATOM     10  O   UNL     1      35.413 -23.606 -15.221  0.00  0.00    -0.468 OA
ATOM     11  C   UNL     1      35.784 -24.974 -15.040  0.00  0.00    +0.253 C 
ENDBRANCH   8  10
BRANCH   3  12
ATOM     12  C   UNL     1      30.541 -23.331 -14.775  0.00  0.00    +0.005 C 
BRANCH  12  13
ATOM     13  C   UNL     1      29.378 -24.070 -15.477  0.00  0.00    -0.061 C 
ATOM     14  C   UNL     1      28.905 -25.290 -14.687  0.00  0.00    -0.024 C 
BRANCH  13  15
ATOM     15  N   UNL     1      28.239 -23.164 -15.653  0.00  0.00    +0.382 N 
ATOM     16  H   UNL     1      27.408 -23.576 -15.229  0.00  0.00    -0.089 HD
ATOM     17  H   UNL     1      28.074 -23.014 -16.648  0.00  0.00    -0.089 HD
ATOM     18  H   UNL     1      28.443 -22.271 -15.204  0.00  0.00    -0.089 HD
ENDBRANCH  13  15
ENDBRANCH  12  13
ENDBRANCH   3  12
TORSDOF 4
ENDMDL
MODEL 9
REMARK VINA RESULT:      -6.6      3.108      4.801
REMARK  Name = 26175
REMARK  4 active torsions:
REMARK  status: ('A' for Active; 'I' for Inactive)
REMARK    1  A    between atoms: C_3  and  C_12
REMARK    2  A    between atoms: C_8  and  O_10
REMARK    3  A    between atoms: C_12  and  C_13
REMARK    4  A    between atoms: C_13  and  N_15
REMARK                            x       y       z     vdW  Elec       q    Type
REMARK                         _______ _______ _______ _____ _____    ______ ____
ROOT
ATOM      1  O   UNL     1      34.483 -18.111 -25.239  0.00  0.00    -0.435 OA
ATOM      2  O   UNL     1      35.012 -19.604 -23.423  0.00  0.00    -0.431 OA
ATOM      3  C   UNL     1      34.569 -15.618 -22.547  0.00  0.00    -0.018 C 
ATOM      4  C   UNL     1      34.422 -16.105 -23.849  0.00  0.00    +0.036 C 
ATOM      5  C   UNL     1      34.589 -17.459 -24.048  0.00  0.00    +0.179 C 
ATOM      6  C   UNL     1      34.878 -16.490 -21.488  0.00  0.00    +0.036 C 
ATOM      7  C   UNL     1      34.891 -18.313 -23.012  0.00  0.00    +0.210 C 
ATOM      8  C   UNL     1      35.042 -17.858 -21.717  0.00  0.00    +0.175 C 
ATOM      9  C   UNL     1      34.752 -19.468 -24.835  0.00  0.00    +0.429 C 
ENDROOT
BRANCH   8  10
ATOM     10  O   UNL     1      35.339 -18.703 -20.699  0.00  0.00    -0.468 OA
ATOM     11  C   UNL     1      36.646 -19.278 -20.685  0.00  0.00    +0.253 C 
ENDBRANCH   8  10
BRANCH   3  12
ATOM     12  C   UNL     1      34.399 -14.160 -22.278  0.00  0.00    +0.005 C 
BRANCH  12  13
ATOM     13  C   UNL     1      33.425 -13.447 -23.246  0.00  0.00    -0.061 C 
ATOM     14  C   UNL     1      32.194 -12.896 -22.528  0.00  0.00    -0.024 C 
BRANCH  13  15
ATOM     15  N   UNL     1      34.106 -12.334 -23.915  0.00  0.00    +0.382 N 
ATOM     16  H   UNL     1      34.781 -12.701 -24.585  0.00  0.00    -0.089 HD
ATOM     17  H   UNL     1      34.592 -11.765 -23.221  0.00  0.00    -0.089 HD
ATOM     18  H   UNL     1      33.419 -11.760 -24.403  0.00  0.00    -0.089 HD
ENDBRANCH  13  15
ENDBRANCH  12  13
ENDBRANCH   3  12
TORSDOF 4
ENDMDL
