MODEL 1
REMARK VINA RESULT:      -9.4      0.000      0.000
REMARK  Name = 14677
REMARK  2 active torsions:
REMARK  status: ('A' for Active; 'I' for Inactive)
REMARK    1  A    between atoms: N_2  and  C_15
REMARK    2  A    between atoms: C_15  and  C_17
REMARK                            x       y       z     vdW  Elec       q    Type
REMARK                         _______ _______ _______ _____ _____    ______ ____
ROOT
ATOM      1  S   UNL     1      33.662 -10.586 -24.225  0.00  0.00    -0.084 S 
ATOM      2  N   UNL     1      32.711 -13.338 -23.136  0.00  0.00    -0.286 N 
ATOM      3  C   UNL     1      33.042 -13.303 -24.515  0.00  0.00    +0.058 C 
ATOM      4  C   UNL     1      32.353 -12.210 -22.355  0.00  0.00    +0.058 C 
ATOM      5  C   UNL     1      33.463 -12.108 -25.130  0.00  0.00    +0.043 C 
ATOM      6  C   UNL     1      32.706 -10.907 -22.756  0.00  0.00    +0.043 C 
ATOM      7  C   UNL     1      32.932 -14.445 -25.338  0.00  0.00    +0.015 C 
ATOM      8  C   UNL     1      31.601 -12.333 -21.166  0.00  0.00    +0.015 C 
ATOM      9  C   UNL     1      33.783 -12.077 -26.499  0.00  0.00    +0.008 C 
ATOM     10  C   UNL     1      32.342  -9.791 -21.982  0.00  0.00    +0.008 C 
ATOM     11  C   UNL     1      33.246 -14.407 -26.700  0.00  0.00    +0.001 C 
ATOM     12  C   UNL     1      31.236 -11.220 -20.402  0.00  0.00    +0.001 C 
ATOM     13  C   UNL     1      33.675 -13.223 -27.280  0.00  0.00    +0.001 C 
ATOM     14  C   UNL     1      31.610  -9.948 -20.810  0.00  0.00    +0.001 C 
ENDROOT
BRANCH   2  15
ATOM     15  C   UNL     1      32.671 -14.653 -22.483  0.00  0.00    +0.093 C 
BRANCH  15  17
ATOM     16  N   UNL     1      35.518 -16.980 -22.226  0.00  0.00    +0.386 N 
ATOM     17  C   UNL     1      34.068 -15.179 -22.202  0.00  0.00    -0.003 C 
ATOM     18  C   UNL     1      34.279 -15.610 -20.749  0.00  0.00    -0.023 C 
ATOM     19  C   UNL     1      34.413 -16.426 -23.009  0.00  0.00    -0.076 C 
ATOM     20  C   UNL     1      35.076 -16.911 -20.830  0.00  0.00    -0.077 C 
ATOM     21  C   UNL     1      35.866 -18.334 -22.632  0.00  0.00    -0.101 C 
ATOM     22  H   UNL     1      36.378 -16.451 -22.370  0.00  0.00    -0.080 HD
ENDBRANCH  15  17
ENDBRANCH   2  15
TORSDOF 2
ENDMDL
MODEL 2
REMARK VINA RESULT:      -9.2      3.980      7.184
REMARK  Name = 14677
REMARK  2 active torsions:
REMARK  status: ('A' for Active; 'I' for Inactive)
REMARK    1  A    between atoms: N_2  and  C_15
REMARK    2  A    between atoms: C_15  and  C_17
REMARK                            x       y       z     vdW  Elec       q    Type
REMARK                         _______ _______ _______ _____ _____    ______ ____
ROOT
ATOM      1  S   UNL     1      31.983 -11.737 -22.969  0.00  0.00    -0.084 S 
ATOM      2  N   UNL     1      33.089  -8.873 -22.484  0.00  0.00    -0.286 N 
ATOM      3  C   UNL     1      33.693  -9.594 -23.546  0.00  0.00    +0.058 C 
ATOM      4  C   UNL     1      32.394  -9.457 -21.394  0.00  0.00    +0.058 C 
ATOM      5  C   UNL     1      33.293 -10.911 -23.849  0.00  0.00    +0.043 C 
ATOM      6  C   UNL     1      31.866 -10.760 -21.484  0.00  0.00    +0.043 C 
ATOM      7  C   UNL     1      34.737  -9.046 -24.323  0.00  0.00    +0.015 C 
ATOM      8  C   UNL     1      32.229  -8.781 -20.166  0.00  0.00    +0.015 C 
ATOM      9  C   UNL     1      33.900 -11.623 -24.898  0.00  0.00    +0.008 C 
ATOM     10  C   UNL     1      31.184 -11.337 -20.399  0.00  0.00    +0.008 C 
ATOM     11  C   UNL     1      35.340  -9.761 -25.362  0.00  0.00    +0.001 C 
ATOM     12  C   UNL     1      31.555  -9.361 -19.087  0.00  0.00    +0.001 C 
ATOM     13  C   UNL     1      34.919 -11.050 -25.652  0.00  0.00    +0.001 C 
ATOM     14  C   UNL     1      31.029 -10.639 -19.205  0.00  0.00    +0.001 C 
ENDROOT
BRANCH   2  15
ATOM     15  C   UNL     1      33.256  -7.414 -22.476  0.00  0.00    +0.093 C 
BRANCH  15  17
ATOM     16  N   UNL     1      31.390  -5.036 -24.585  0.00  0.00    +0.386 N 
ATOM     17  C   UNL     1      32.093  -6.716 -23.161  0.00  0.00    -0.003 C 
ATOM     18  C   UNL     1      31.434  -5.638 -22.298  0.00  0.00    -0.023 C 
ATOM     19  C   UNL     1      32.503  -5.973 -24.428  0.00  0.00    -0.076 C 
ATOM     20  C   UNL     1      31.167  -4.473 -23.250  0.00  0.00    -0.077 C 
ATOM     21  C   UNL     1      31.660  -4.011 -25.582  0.00  0.00    -0.101 C 
ATOM     22  H   UNL     1      30.554  -5.506 -24.934  0.00  0.00    -0.080 HD
ENDBRANCH  15  17
ENDBRANCH   2  15
TORSDOF 2
ENDMDL
MODEL 3
REMARK VINA RESULT:      -8.7      8.483     12.420
REMARK  Name = 14677
REMARK  2 active torsions:
REMARK  status: ('A' for Active; 'I' for Inactive)
REMARK    1  A    between atoms: N_2  and  C_15
REMARK    2  A    between atoms: C_15  and  C_17
REMARK                            x       y       z     vdW  Elec       q    Type
REMARK                         _______ _______ _______ _____ _____    ______ ____
ROOT
ATOM      1  S   UNL     1      33.389 -24.282 -13.683  0.00  0.00    -0.084 S 
ATOM      2  N   UNL     1      33.753 -23.286 -16.605  0.00  0.00    -0.286 N 
ATOM      3  C   UNL     1      34.924 -23.284 -15.804  0.00  0.00    +0.058 C 
ATOM      4  C   UNL     1      32.425 -23.262 -16.108  0.00  0.00    +0.058 C 
ATOM      5  C   UNL     1      34.882 -23.691 -14.456  0.00  0.00    +0.043 C 
ATOM      6  C   UNL     1      32.136 -23.667 -14.790  0.00  0.00    +0.043 C 
ATOM      7  C   UNL     1      36.170 -22.845 -16.303  0.00  0.00    +0.015 C 
ATOM      8  C   UNL     1      31.343 -22.803 -16.889  0.00  0.00    +0.015 C 
ATOM      9  C   UNL     1      36.044 -23.680 -13.664  0.00  0.00    +0.008 C 
ATOM     10  C   UNL     1      30.819 -23.635 -14.300  0.00  0.00    +0.008 C 
ATOM     11  C   UNL     1      37.321 -22.831 -15.510  0.00  0.00    +0.001 C 
ATOM     12  C   UNL     1      30.036 -22.767 -16.396  0.00  0.00    +0.001 C 
ATOM     13  C   UNL     1      37.258 -23.252 -14.190  0.00  0.00    +0.001 C 
ATOM     14  C   UNL     1      29.774 -23.187 -15.100  0.00  0.00    +0.001 C 
ENDROOT
BRANCH   2  15
ATOM     15  C   UNL     1      33.931 -23.241 -18.062  0.00  0.00    +0.093 C 
BRANCH  15  17
ATOM     16  N   UNL     1      34.193 -20.236 -20.180  0.00  0.00    +0.386 N 
ATOM     17  C   UNL     1      34.329 -21.853 -18.533  0.00  0.00    -0.003 C 
ATOM     18  C   UNL     1      35.685 -21.813 -19.241  0.00  0.00    -0.023 C 
ATOM     19  C   UNL     1      33.362 -21.267 -19.557  0.00  0.00    -0.076 C 
ATOM     20  C   UNL     1      35.483 -20.881 -20.435  0.00  0.00    -0.077 C 
ATOM     21  C   UNL     1      33.593 -19.693 -21.390  0.00  0.00    -0.101 C 
ATOM     22  H   UNL     1      34.297 -19.424 -19.571  0.00  0.00    -0.080 HD
ENDBRANCH  15  17
ENDBRANCH   2  15
TORSDOF 2
ENDMDL
MODEL 4
REMARK VINA RESULT:      -8.6      7.921     11.327
REMARK  Name = 14677
REMARK  2 active torsions:
REMARK  status: ('A' for Active; 'I' for Inactive)
REMARK    1  A    between atoms: N_2  and  C_15
REMARK    2  A    between atoms: C_15  and  C_17
REMARK                            x       y       z     vdW  Elec       q    Type
REMARK                         _______ _______ _______ _____ _____    ______ ____
ROOT
ATOM      1  S   UNL     1      36.837 -21.413 -19.016  0.00  0.00    -0.084 S 
ATOM      2  N   UNL     1      34.161 -22.544 -17.909  0.00  0.00    -0.286 N 
ATOM      3  C   UNL     1      34.044 -21.633 -18.990  0.00  0.00    +0.058 C 
ATOM      4  C   UNL     1      35.275 -22.632 -17.035  0.00  0.00    +0.058 C 
ATOM      5  C   UNL     1      35.184 -21.035 -19.562  0.00  0.00    +0.043 C 
ATOM      6  C   UNL     1      36.536 -22.133 -17.414  0.00  0.00    +0.043 C 
ATOM      7  C   UNL     1      32.789 -21.258 -19.518  0.00  0.00    +0.015 C 
ATOM      8  C   UNL     1      35.167 -23.188 -15.742  0.00  0.00    +0.015 C 
ATOM      9  C   UNL     1      35.062 -20.128 -20.629  0.00  0.00    +0.008 C 
ATOM     10  C   UNL     1      37.636 -22.218 -16.542  0.00  0.00    +0.008 C 
ATOM     11  C   UNL     1      32.673 -20.351 -20.576  0.00  0.00    +0.001 C 
ATOM     12  C   UNL     1      36.262 -23.264 -14.875  0.00  0.00    +0.001 C 
ATOM     13  C   UNL     1      33.811 -19.788 -21.134  0.00  0.00    +0.001 C 
ATOM     14  C   UNL     1      37.498 -22.781 -15.278  0.00  0.00    +0.001 C 
ENDROOT
BRANCH   2  15
ATOM     15  C   UNL     1      33.012 -23.415 -17.630  0.00  0.00    +0.093 C 
BRANCH  15  17
ATOM     16  N   UNL     1      30.999 -23.438 -14.543  0.00  0.00    +0.386 N 
ATOM     17  C   UNL     1      32.207 -22.914 -16.443  0.00  0.00    -0.003 C 
ATOM     18  C   UNL     1      30.731 -22.672 -16.765  0.00  0.00    -0.023 C 
ATOM     19  C   UNL     1      32.173 -23.902 -15.282  0.00  0.00    -0.076 C 
ATOM     20  C   UNL     1      29.966 -23.215 -15.559  0.00  0.00    -0.077 C 
ATOM     21  C   UNL     1      30.576 -24.381 -13.519  0.00  0.00    -0.101 C 
ATOM     22  H   UNL     1      31.200 -22.584 -14.024  0.00  0.00    -0.080 HD
ENDBRANCH  15  17
ENDBRANCH   2  15
TORSDOF 2
ENDMDL
MODEL 5
REMARK VINA RESULT:      -8.5     10.981     13.512
REMARK  Name = 14677
REMARK  2 active torsions:
REMARK  status: ('A' for Active; 'I' for Inactive)
REMARK    1  A    between atoms: N_2  and  C_15
REMARK    2  A    between atoms: C_15  and  C_17
REMARK                            x       y       z     vdW  Elec       q    Type
REMARK                         _______ _______ _______ _____ _____    ______ ____
ROOT
ATOM      1  S   UNL     1      33.221 -23.384 -17.615  0.00  0.00    -0.084 S 
ATOM      2  N   UNL     1      34.567 -23.183 -14.820  0.00  0.00    -0.286 N 
ATOM      3  C   UNL     1      33.160 -23.365 -14.814  0.00  0.00    +0.058 C 
ATOM      4  C   UNL     1      35.315 -22.655 -15.903  0.00  0.00    +0.058 C 
ATOM      5  C   UNL     1      32.433 -23.447 -16.019  0.00  0.00    +0.043 C 
ATOM      6  C   UNL     1      34.802 -22.667 -17.214  0.00  0.00    +0.043 C 
ATOM      7  C   UNL     1      32.421 -23.438 -13.613  0.00  0.00    +0.015 C 
ATOM      8  C   UNL     1      36.584 -22.066 -15.716  0.00  0.00    +0.015 C 
ATOM      9  C   UNL     1      31.038 -23.621 -16.007  0.00  0.00    +0.008 C 
ATOM     10  C   UNL     1      35.546 -22.137 -18.283  0.00  0.00    +0.008 C 
ATOM     11  C   UNL     1      31.033 -23.605 -13.608  0.00  0.00    +0.001 C 
ATOM     12  C   UNL     1      37.318 -21.535 -16.781  0.00  0.00    +0.001 C 
ATOM     13  C   UNL     1      30.341 -23.700 -14.806  0.00  0.00    +0.001 C 
ATOM     14  C   UNL     1      36.798 -21.573 -18.066  0.00  0.00    +0.001 C 
ENDROOT
BRANCH   2  15
ATOM     15  C   UNL     1      35.295 -23.501 -13.585  0.00  0.00    +0.093 C 
BRANCH  15  17
ATOM     16  N   UNL     1      37.866 -26.094 -14.089  0.00  0.00    +0.386 N 
ATOM     17  C   UNL     1      35.952 -24.869 -13.662  0.00  0.00    -0.003 C 
ATOM     18  C   UNL     1      35.750 -25.569 -15.007  0.00  0.00    -0.023 C 
ATOM     19  C   UNL     1      37.467 -24.815 -13.499  0.00  0.00    -0.076 C 
ATOM     20  C   UNL     1      37.103 -26.199 -15.336  0.00  0.00    -0.077 C 
ATOM     21  C   UNL     1      39.302 -26.184 -14.307  0.00  0.00    -0.101 C 
ATOM     22  H   UNL     1      37.662 -26.872 -13.462  0.00  0.00    -0.080 HD
ENDBRANCH  15  17
ENDBRANCH   2  15
TORSDOF 2
ENDMDL
MODEL 6
REMARK VINA RESULT:      -8.4      1.842      4.565
REMARK  Name = 14677
REMARK  2 active torsions:
REMARK  status: ('A' for Active; 'I' for Inactive)
REMARK    1  A    between atoms: N_2  and  C_15
REMARK    2  A    between atoms: C_15  and  C_17
REMARK                            x       y       z     vdW  Elec       q    Type
REMARK                         _______ _______ _______ _____ _____    ______ ____
ROOT
ATOM      1  S   UNL     1      32.668  -8.380 -22.443  0.00  0.00    -0.084 S 
ATOM      2  N   UNL     1      32.731 -11.451 -22.924  0.00  0.00    -0.286 N 
ATOM      3  C   UNL     1      32.253 -11.036 -21.654  0.00  0.00    +0.058 C 
ATOM      4  C   UNL     1      33.563 -10.678 -23.773  0.00  0.00    +0.058 C 
ATOM      5  C   UNL     1      32.199  -9.671 -21.309  0.00  0.00    +0.043 C 
ATOM      6  C   UNL     1      33.639  -9.278 -23.638  0.00  0.00    +0.043 C 
ATOM      7  C   UNL     1      31.845 -11.963 -20.670  0.00  0.00    +0.015 C 
ATOM      8  C   UNL     1      34.376 -11.271 -24.764  0.00  0.00    +0.015 C 
ATOM      9  C   UNL     1      31.731  -9.266 -20.047  0.00  0.00    +0.008 C 
ATOM     10  C   UNL     1      34.470  -8.517 -24.478  0.00  0.00    +0.008 C 
ATOM     11  C   UNL     1      31.385 -11.555 -19.415  0.00  0.00    +0.001 C 
ATOM     12  C   UNL     1      35.205 -10.511 -25.593  0.00  0.00    +0.001 C 
ATOM     13  C   UNL     1      31.326 -10.205 -19.104  0.00  0.00    +0.001 C 
ATOM     14  C   UNL     1      35.250  -9.132 -25.452  0.00  0.00    +0.001 C 
ENDROOT
BRANCH   2  15
ATOM     15  C   UNL     1      32.395 -12.811 -23.361  0.00  0.00    +0.093 C 
BRANCH  15  17
ATOM     16  N   UNL     1      34.536 -15.722 -24.092  0.00  0.00    +0.386 N 
ATOM     17  C   UNL     1      33.636 -13.679 -23.490  0.00  0.00    -0.003 C 
ATOM     18  C   UNL     1      34.009 -14.408 -22.198  0.00  0.00    -0.023 C 
ATOM     19  C   UNL     1      33.480 -14.800 -24.512  0.00  0.00    -0.076 C 
ATOM     20  C   UNL     1      34.410 -15.815 -22.635  0.00  0.00    -0.077 C 
ATOM     21  C   UNL     1      34.435 -17.019 -24.744  0.00  0.00    -0.101 C 
ATOM     22  H   UNL     1      35.457 -15.380 -24.364  0.00  0.00    -0.080 HD
ENDBRANCH  15  17
ENDBRANCH   2  15
TORSDOF 2
ENDMDL
MODEL 7
REMARK VINA RESULT:      -8.2     10.519     13.689
REMARK  Name = 14677
REMARK  2 active torsions:
REMARK  status: ('A' for Active; 'I' for Inactive)
REMARK    1  A    between atoms: N_2  and  C_15
REMARK    2  A    between atoms: C_15  and  C_17
REMARK                            x       y       z     vdW  Elec       q    Type
REMARK                         _______ _______ _______ _____ _____    ______ ____
ROOT
ATOM      1  S   UNL     1      37.221 -22.446 -15.932  0.00  0.00    -0.084 S 
ATOM      2  N   UNL     1      34.274 -23.097 -15.187  0.00  0.00    -0.286 N 
ATOM      3  C   UNL     1      35.259 -23.603 -14.300  0.00  0.00    +0.058 C 
ATOM      4  C   UNL     1      34.502 -22.741 -16.541  0.00  0.00    +0.058 C 
ATOM      5  C   UNL     1      36.631 -23.393 -14.544  0.00  0.00    +0.043 C 
ATOM      6  C   UNL     1      35.799 -22.446 -17.006  0.00  0.00    +0.043 C 
ATOM      7  C   UNL     1      34.919 -24.363 -13.160  0.00  0.00    +0.015 C 
ATOM      8  C   UNL     1      33.456 -22.698 -17.488  0.00  0.00    +0.015 C 
ATOM      9  C   UNL     1      37.604 -23.903 -13.665  0.00  0.00    +0.008 C 
ATOM     10  C   UNL     1      36.020 -22.099 -18.350  0.00  0.00    +0.008 C 
ATOM     11  C   UNL     1      35.890 -24.871 -12.293  0.00  0.00    +0.001 C 
ATOM     12  C   UNL     1      33.682 -22.359 -18.825  0.00  0.00    +0.001 C 
ATOM     13  C   UNL     1      37.234 -24.638 -12.544  0.00  0.00    +0.001 C 
ATOM     14  C   UNL     1      34.966 -22.057 -19.255  0.00  0.00    +0.001 C 
ENDROOT
BRANCH   2  15
ATOM     15  C   UNL     1      32.898 -23.000 -14.685  0.00  0.00    +0.093 C 
BRANCH  15  17
ATOM     16  N   UNL     1      29.908 -24.741 -15.956  0.00  0.00    +0.386 N 
ATOM     17  C   UNL     1      32.016 -24.096 -15.258  0.00  0.00    -0.003 C 
ATOM     18  C   UNL     1      31.461 -25.051 -14.199  0.00  0.00    -0.023 C 
ATOM     19  C   UNL     1      30.771 -23.560 -15.958  0.00  0.00    -0.076 C 
ATOM     20  C   UNL     1      30.006 -25.290 -14.601  0.00  0.00    -0.077 C 
ATOM     21  C   UNL     1      28.537 -24.431 -16.332  0.00  0.00    -0.101 C 
ATOM     22  H   UNL     1      30.207 -25.421 -16.655  0.00  0.00    -0.080 HD
ENDBRANCH  15  17
ENDBRANCH   2  15
TORSDOF 2
ENDMDL
MODEL 8
REMARK VINA RESULT:      -8.1      9.550     12.536
REMARK  Name = 14677
REMARK  2 active torsions:
REMARK  status: ('A' for Active; 'I' for Inactive)
REMARK    1  A    between atoms: N_2  and  C_15
REMARK    2  A    between atoms: C_15  and  C_17
REMARK                            x       y       z     vdW  Elec       q    Type
REMARK                         _______ _______ _______ _____ _____    ______ ____
ROOT
ATOM      1  S   UNL     1      37.314 -22.438 -16.497  0.00  0.00    -0.084 S 
ATOM      2  N   UNL     1      34.336 -23.323 -16.578  0.00  0.00    -0.286 N 
ATOM      3  C   UNL     1      34.765 -22.508 -17.657  0.00  0.00    +0.058 C 
ATOM      4  C   UNL     1      34.964 -23.392 -15.308  0.00  0.00    +0.058 C 
ATOM      5  C   UNL     1      36.086 -22.024 -17.720  0.00  0.00    +0.043 C 
ATOM      6  C   UNL     1      36.305 -22.995 -15.139  0.00  0.00    +0.043 C 
ATOM      7  C   UNL     1      33.888 -22.116 -18.692  0.00  0.00    +0.015 C 
ATOM      8  C   UNL     1      34.272 -23.823 -14.156  0.00  0.00    +0.015 C 
ATOM      9  C   UNL     1      36.505 -21.210 -18.787  0.00  0.00    +0.008 C 
ATOM     10  C   UNL     1      36.921 -23.059 -13.877  0.00  0.00    +0.008 C 
ATOM     11  C   UNL     1      34.308 -21.303 -19.748  0.00  0.00    +0.001 C 
ATOM     12  C   UNL     1      34.887 -23.879 -12.901  0.00  0.00    +0.001 C 
ATOM     13  C   UNL     1      35.618 -20.852 -19.798  0.00  0.00    +0.001 C 
ATOM     14  C   UNL     1      36.214 -23.499 -12.763  0.00  0.00    +0.001 C 
ENDROOT
BRANCH   2  15
ATOM     15  C   UNL     1      33.107 -24.105 -16.768  0.00  0.00    +0.093 C 
BRANCH  15  17
ATOM     16  N   UNL     1      29.865 -23.919 -15.024  0.00  0.00    +0.386 N 
ATOM     17  C   UNL     1      31.967 -23.566 -15.920  0.00  0.00    -0.003 C 
ATOM     18  C   UNL     1      30.988 -22.685 -16.700  0.00  0.00    -0.023 C 
ATOM     19  C   UNL     1      31.085 -24.664 -15.335  0.00  0.00    -0.076 C 
ATOM     20  C   UNL     1      29.602 -23.097 -16.208  0.00  0.00    -0.077 C 
ATOM     21  C   UNL     1      28.748 -24.792 -14.694  0.00  0.00    -0.101 C 
ATOM     22  H   UNL     1      29.983 -23.343 -14.191  0.00  0.00    -0.080 HD
ENDBRANCH  15  17
ENDBRANCH   2  15
TORSDOF 2
ENDMDL
MODEL 9
REMARK VINA RESULT:      -8.0      3.834      6.139
REMARK  Name = 14677
REMARK  2 active torsions:
REMARK  status: ('A' for Active; 'I' for Inactive)
REMARK    1  A    between atoms: N_2  and  C_15
REMARK    2  A    between atoms: C_15  and  C_17
REMARK                            x       y       z     vdW  Elec       q    Type
REMARK                         _______ _______ _______ _____ _____    ______ ____
ROOT
ATOM      1  S   UNL     1      32.444  -7.160 -20.125  0.00  0.00    -0.084 S 
ATOM      2  N   UNL     1      31.796  -8.936 -22.592  0.00  0.00    -0.286 N 
ATOM      3  C   UNL     1      31.670  -7.537 -22.791  0.00  0.00    +0.058 C 
ATOM      4  C   UNL     1      31.745  -9.588 -21.334  0.00  0.00    +0.058 C 
ATOM      5  C   UNL     1      31.914  -6.630 -21.741  0.00  0.00    +0.043 C 
ATOM      6  C   UNL     1      31.997  -8.884 -20.141  0.00  0.00    +0.043 C 
ATOM      7  C   UNL     1      31.264  -6.992 -24.029  0.00  0.00    +0.015 C 
ATOM      8  C   UNL     1      31.408 -10.954 -21.214  0.00  0.00    +0.015 C 
ATOM      9  C   UNL     1      31.781  -5.245 -21.941  0.00  0.00    +0.008 C 
ATOM     10  C   UNL     1      31.938  -9.534 -18.895  0.00  0.00    +0.008 C 
ATOM     11  C   UNL     1      31.128  -5.614 -24.221  0.00  0.00    +0.001 C 
ATOM     12  C   UNL     1      31.346 -11.595 -19.973  0.00  0.00    +0.001 C 
ATOM     13  C   UNL     1      31.389  -4.739 -23.177  0.00  0.00    +0.001 C 
ATOM     14  C   UNL     1      31.614 -10.884 -18.813  0.00  0.00    +0.001 C 
ENDROOT
BRANCH   2  15
ATOM     15  C   UNL     1      31.921  -9.780 -23.787  0.00  0.00    +0.093 C 
BRANCH  15  17
ATOM     16  N   UNL     1      35.219 -10.593 -25.218  0.00  0.00    +0.386 N 
ATOM     17  C   UNL     1      33.321 -10.356 -23.920  0.00  0.00    -0.003 C 
ATOM     18  C   UNL     1      33.344 -11.798 -24.429  0.00  0.00    -0.023 C 
ATOM     19  C   UNL     1      34.188  -9.599 -24.921  0.00  0.00    -0.076 C 
ATOM     20  C   UNL     1      34.496 -11.850 -25.431  0.00  0.00    -0.077 C 
ATOM     21  C   UNL     1      36.038 -10.223 -26.363  0.00  0.00    -0.101 C 
ATOM     22  H   UNL     1      35.889 -10.675 -24.453  0.00  0.00    -0.080 HD
ENDBRANCH  15  17
ENDBRANCH   2  15
TORSDOF 2
ENDMDL
