MODEL 1
REMARK VINA RESULT:      -7.4      0.000      0.000
REMARK  Name = 2999413
REMARK  3 active torsions:
REMARK  status: ('A' for Active; 'I' for Inactive)
REMARK    1  A    between atoms: C_3  and  O_21
REMARK    2  A    between atoms: C_18  and  O_23
REMARK    3  A    between atoms: C_19  and  O_25
REMARK                            x       y       z     vdW  Elec       q    Type
REMARK                         _______ _______ _______ _____ _____    ______ ____
ROOT
ATOM      1  O   UNL     1      35.863 -23.086 -16.617  0.00  0.00    -0.449 OA
ATOM      2  O   UNL     1      36.007 -21.391 -15.039  0.00  0.00    -0.245 OA
ATOM      3  C   UNL     1      30.943 -23.085 -17.058  0.00  0.00    +0.111 C 
ATOM      4  C   UNL     1      31.097 -23.897 -15.764  0.00  0.00    +0.029 C 
ATOM      5  C   UNL     1      32.251 -22.496 -17.611  0.00  0.00    +0.029 C 
ATOM      6  C   UNL     1      31.528 -23.065 -14.546  0.00  0.00    +0.002 C 
ATOM      7  C   UNL     1      33.282 -23.561 -17.991  0.00  0.00    +0.006 C 
ATOM      8  C   UNL     1      31.913 -23.945 -13.350  0.00  0.00    +0.000 C 
ATOM      9  C   UNL     1      34.545 -22.974 -18.636  0.00  0.00    +0.044 C 
ATOM     10  C   UNL     1      33.319 -24.547 -13.462  0.00  0.00    +0.005 C 
ATOM     11  C   UNL     1      35.427 -22.186 -17.658  0.00  0.00    +0.169 C 
ATOM     12  C   UNL     1      34.421 -23.535 -13.116  0.00  0.00    +0.027 C 
ATOM     13  C   UNL     1      35.799 -24.071 -13.427  0.00  0.00    -0.010 C 
ATOM     14  C   UNL     1      36.661 -21.636 -18.368  0.00  0.00    +0.047 C 
ATOM     15  C   UNL     1      36.569 -23.635 -14.519  0.00  0.00    +0.105 C 
ATOM     16  C   UNL     1      36.115 -22.550 -15.399  0.00  0.00    +0.344 C 
ATOM     17  C   UNL     1      36.331 -25.082 -12.609  0.00  0.00    +0.033 C 
ATOM     18  C   UNL     1      37.827 -24.190 -14.786  0.00  0.00    +0.143 C 
ATOM     19  C   UNL     1      37.585 -25.639 -12.873  0.00  0.00    +0.136 C 
ATOM     20  C   UNL     1      38.330 -25.194 -13.962  0.00  0.00    +0.073 C 
ENDROOT
BRANCH   3  21
ATOM     21  O   UNL     1      30.019 -22.024 -16.823  0.00  0.00    -0.384 OA
ATOM     22  H   UNL     1      29.665 -22.097 -15.923  0.00  0.00    +0.210 HD
ENDBRANCH   3  21
BRANCH  18  23
ATOM     23  O   UNL     1      38.592 -23.759 -15.828  0.00  0.00    -0.505 OA
ATOM     24  H   UNL     1      39.476 -23.484 -15.679  0.00  0.00    +0.292 HD
ENDBRANCH  18  23
BRANCH  19  25
ATOM     25  O   UNL     1      38.076 -26.618 -12.066  0.00  0.00    -0.505 OA
ATOM     26  H   UNL     1      38.607 -26.394 -11.327  0.00  0.00    +0.292 HD
ENDBRANCH  19  25
TORSDOF 3
ENDMDL
MODEL 2
REMARK VINA RESULT:      -7.1     14.682     17.879
REMARK  Name = 2999413
REMARK  3 active torsions:
REMARK  status: ('A' for Active; 'I' for Inactive)
REMARK    1  A    between atoms: C_3  and  O_21
REMARK    2  A    between atoms: C_18  and  O_23
REMARK    3  A    between atoms: C_19  and  O_25
REMARK                            x       y       z     vdW  Elec       q    Type
REMARK                         _______ _______ _______ _____ _____    ______ ____
ROOT
ATOM      1  O   UNL     1      31.707  -8.780 -21.478  0.00  0.00    -0.449 OA
ATOM      2  O   UNL     1      33.764  -7.951 -20.799  0.00  0.00    -0.245 OA
ATOM      3  C   UNL     1      33.361 -13.044 -23.346  0.00  0.00    +0.111 C 
ATOM      4  C   UNL     1      33.696 -12.094 -24.505  0.00  0.00    +0.029 C 
ATOM      5  C   UNL     1      32.820 -12.356 -22.083  0.00  0.00    +0.029 C 
ATOM      6  C   UNL     1      34.867 -11.141 -24.222  0.00  0.00    +0.002 C 
ATOM      7  C   UNL     1      31.501 -11.615 -22.315  0.00  0.00    +0.006 C 
ATOM      8  C   UNL     1      35.001 -10.051 -25.293  0.00  0.00    +0.000 C 
ATOM      9  C   UNL     1      30.912 -11.015 -21.031  0.00  0.00    +0.044 C 
ATOM     10  C   UNL     1      33.998  -8.903 -25.124  0.00  0.00    +0.005 C 
ATOM     11  C   UNL     1      31.712  -9.826 -20.482  0.00  0.00    +0.169 C 
ATOM     12  C   UNL     1      34.413  -7.918 -24.021  0.00  0.00    +0.027 C 
ATOM     13  C   UNL     1      33.325  -6.913 -23.723  0.00  0.00    -0.010 C 
ATOM     14  C   UNL     1      31.068  -9.283 -19.210  0.00  0.00    +0.047 C 
ATOM     15  C   UNL     1      32.534  -6.953 -22.563  0.00  0.00    +0.105 C 
ATOM     16  C   UNL     1      32.769  -7.941 -21.502  0.00  0.00    +0.344 C 
ATOM     17  C   UNL     1      33.062  -5.903 -24.665  0.00  0.00    +0.033 C 
ATOM     18  C   UNL     1      31.513  -6.018 -22.350  0.00  0.00    +0.143 C 
ATOM     19  C   UNL     1      32.042  -4.971 -24.456  0.00  0.00    +0.136 C 
ATOM     20  C   UNL     1      31.268  -5.030 -23.301  0.00  0.00    +0.073 C 
ENDROOT
BRANCH   3  21
ATOM     21  O   UNL     1      34.536 -13.779 -23.006  0.00  0.00    -0.384 OA
ATOM     22  H   UNL     1      35.273 -13.488 -23.566  0.00  0.00    +0.210 HD
ENDBRANCH   3  21
BRANCH  18  23
ATOM     23  O   UNL     1      30.754  -6.033 -21.217  0.00  0.00    -0.505 OA
ATOM     24  H   UNL     1      30.714  -6.808 -20.691  0.00  0.00    +0.292 HD
ENDBRANCH  18  23
BRANCH  19  25
ATOM     25  O   UNL     1      31.806  -4.004 -25.385  0.00  0.00    -0.505 OA
ATOM     26  H   UNL     1      31.950  -4.182 -26.294  0.00  0.00    +0.292 HD
ENDBRANCH  19  25
TORSDOF 3
ENDMDL
MODEL 3
REMARK VINA RESULT:      -6.9     12.234     15.121
REMARK  Name = 2999413
REMARK  3 active torsions:
REMARK  status: ('A' for Active; 'I' for Inactive)
REMARK    1  A    between atoms: C_3  and  O_21
REMARK    2  A    between atoms: C_18  and  O_23
REMARK    3  A    between atoms: C_19  and  O_25
REMARK                            x       y       z     vdW  Elec       q    Type
REMARK                         _______ _______ _______ _____ _____    ______ ____
ROOT
ATOM      1  O   UNL     1      32.137 -11.233 -20.685  0.00  0.00    -0.449 OA
ATOM      2  O   UNL     1      30.635 -11.880 -22.331  0.00  0.00    -0.245 OA
ATOM      3  C   UNL     1      33.394  -6.895 -22.686  0.00  0.00    +0.111 C 
ATOM      4  C   UNL     1      34.264  -7.842 -23.526  0.00  0.00    +0.029 C 
ATOM      5  C   UNL     1      32.426  -7.595 -21.718  0.00  0.00    +0.029 C 
ATOM      6  C   UNL     1      33.477  -8.691 -24.536  0.00  0.00    +0.002 C 
ATOM      7  C   UNL     1      33.135  -8.445 -20.661  0.00  0.00    +0.006 C 
ATOM      8  C   UNL     1      34.340  -9.791 -25.166  0.00  0.00    +0.000 C 
ATOM      9  C   UNL     1      32.172  -9.060 -19.636  0.00  0.00    +0.044 C 
ATOM     10  C   UNL     1      34.534 -11.011 -24.258  0.00  0.00    +0.005 C 
ATOM     11  C   UNL     1      31.283 -10.169 -20.215  0.00  0.00    +0.169 C 
ATOM     12  C   UNL     1      33.307 -11.935 -24.246  0.00  0.00    +0.027 C 
ATOM     13  C   UNL     1      33.424 -13.017 -23.197  0.00  0.00    -0.010 C 
ATOM     14  C   UNL     1      30.356 -10.732 -19.141  0.00  0.00    +0.047 C 
ATOM     15  C   UNL     1      32.691 -13.013 -21.999  0.00  0.00    +0.105 C 
ATOM     16  C   UNL     1      31.681 -11.986 -21.715  0.00  0.00    +0.344 C 
ATOM     17  C   UNL     1      34.336 -14.065 -23.408  0.00  0.00    +0.033 C 
ATOM     18  C   UNL     1      32.862 -14.022 -21.041  0.00  0.00    +0.143 C 
ATOM     19  C   UNL     1      34.511 -15.071 -22.454  0.00  0.00    +0.136 C 
ATOM     20  C   UNL     1      33.777 -15.048 -21.272  0.00  0.00    +0.073 C 
ENDROOT
BRANCH   3  21
ATOM     21  O   UNL     1      32.645  -6.061 -23.568  0.00  0.00    -0.384 OA
ATOM     22  H   UNL     1      33.169  -5.878 -24.363  0.00  0.00    +0.210 HD
ENDBRANCH   3  21
BRANCH  18  23
ATOM     23  O   UNL     1      32.140 -14.041 -19.886  0.00  0.00    -0.505 OA
ATOM     24  H   UNL     1      31.211 -13.922 -19.913  0.00  0.00    +0.292 HD
ENDBRANCH  18  23
BRANCH  19  25
ATOM     25  O   UNL     1      35.403 -16.074 -22.682  0.00  0.00    -0.505 OA
ATOM     26  H   UNL     1      35.579 -16.354 -23.558  0.00  0.00    +0.292 HD
ENDBRANCH  19  25
TORSDOF 3
ENDMDL
MODEL 4
REMARK VINA RESULT:      -6.8     12.556     15.090
REMARK  Name = 2999413
REMARK  3 active torsions:
REMARK  status: ('A' for Active; 'I' for Inactive)
REMARK    1  A    between atoms: C_3  and  O_21
REMARK    2  A    between atoms: C_18  and  O_23
REMARK    3  A    between atoms: C_19  and  O_25
REMARK                            x       y       z     vdW  Elec       q    Type
REMARK                         _______ _______ _______ _____ _____    ______ ____
ROOT
ATOM      1  O   UNL     1      33.247 -10.351 -24.348  0.00  0.00    -0.449 OA
ATOM      2  O   UNL     1      35.328 -11.134 -23.686  0.00  0.00    -0.245 OA
ATOM      3  C   UNL     1      31.305  -9.903 -19.828  0.00  0.00    +0.111 C 
ATOM      4  C   UNL     1      31.136 -11.414 -20.045  0.00  0.00    +0.029 C 
ATOM      5  C   UNL     1      32.082  -9.173 -20.935  0.00  0.00    +0.029 C 
ATOM      6  C   UNL     1      32.449 -12.209 -19.989  0.00  0.00    +0.002 C 
ATOM      7  C   UNL     1      31.404  -9.254 -22.305  0.00  0.00    +0.006 C 
ATOM      8  C   UNL     1      32.270 -13.658 -20.458  0.00  0.00    +0.000 C 
ATOM      9  C   UNL     1      32.130  -8.441 -23.386  0.00  0.00    +0.044 C 
ATOM     10  C   UNL     1      32.222 -13.804 -21.984  0.00  0.00    +0.005 C 
ATOM     11  C   UNL     1      33.482  -9.036 -23.801  0.00  0.00    +0.169 C 
ATOM     12  C   UNL     1      33.616 -13.733 -22.625  0.00  0.00    +0.027 C 
ATOM     13  C   UNL     1      33.542 -13.670 -24.133  0.00  0.00    -0.010 C 
ATOM     14  C   UNL     1      34.141  -8.177 -24.876  0.00  0.00    +0.047 C 
ATOM     15  C   UNL     1      33.797 -12.502 -24.871  0.00  0.00    +0.105 C 
ATOM     16  C   UNL     1      34.242 -11.261 -24.223  0.00  0.00    +0.344 C 
ATOM     17  C   UNL     1      33.166 -14.825 -24.840  0.00  0.00    +0.033 C 
ATOM     18  C   UNL     1      33.679 -12.486 -26.267  0.00  0.00    +0.143 C 
ATOM     19  C   UNL     1      33.046 -14.813 -26.231  0.00  0.00    +0.136 C 
ATOM     20  C   UNL     1      33.300 -13.644 -26.944  0.00  0.00    +0.073 C 
ENDROOT
BRANCH   3  21
ATOM     21  O   UNL     1      31.966  -9.693 -18.582  0.00  0.00    -0.384 OA
ATOM     22  H   UNL     1      32.388  -8.819 -18.582  0.00  0.00    +0.210 HD
ENDBRANCH   3  21
BRANCH  18  23
ATOM     23  O   UNL     1      33.947 -11.365 -26.995  0.00  0.00    -0.505 OA
ATOM     24  H   UNL     1      33.275 -10.975 -27.519  0.00  0.00    +0.292 HD
ENDBRANCH  18  23
BRANCH  19  25
ATOM     25  O   UNL     1      32.678 -15.945 -26.891  0.00  0.00    -0.505 OA
ATOM     26  H   UNL     1      32.790 -16.004 -27.820  0.00  0.00    +0.292 HD
ENDBRANCH  19  25
TORSDOF 3
ENDMDL
MODEL 5
REMARK VINA RESULT:      -6.6      1.873      4.832
REMARK  Name = 2999413
REMARK  3 active torsions:
REMARK  status: ('A' for Active; 'I' for Inactive)
REMARK    1  A    between atoms: C_3  and  O_21
REMARK    2  A    between atoms: C_18  and  O_23
REMARK    3  A    between atoms: C_19  and  O_25
REMARK                            x       y       z     vdW  Elec       q    Type
REMARK                         _______ _______ _______ _____ _____    ______ ____
ROOT
ATOM      1  O   UNL     1      35.349 -23.657 -14.364  0.00  0.00    -0.449 OA
ATOM      2  O   UNL     1      35.458 -25.407 -15.883  0.00  0.00    -0.245 OA
ATOM      3  C   UNL     1      30.506 -23.964 -13.438  0.00  0.00    +0.111 C 
ATOM      4  C   UNL     1      30.478 -23.202 -14.770  0.00  0.00    +0.029 C 
ATOM      5  C   UNL     1      31.899 -24.440 -12.995  0.00  0.00    +0.029 C 
ATOM      6  C   UNL     1      30.846 -24.057 -15.993  0.00  0.00    +0.002 C 
ATOM      7  C   UNL     1      32.885 -23.293 -12.760  0.00  0.00    +0.006 C 
ATOM      8  C   UNL     1      31.051 -23.208 -17.254  0.00  0.00    +0.000 C 
ATOM      9  C   UNL     1      34.242 -23.766 -12.222  0.00  0.00    +0.044 C 
ATOM     10  C   UNL     1      32.416 -22.509 -17.304  0.00  0.00    +0.005 C 
ATOM     11  C   UNL     1      35.079 -24.537 -13.251  0.00  0.00    +0.169 C 
ATOM     12  C   UNL     1      33.548 -23.461 -17.719  0.00  0.00    +0.027 C 
ATOM     13  C   UNL     1      34.908 -22.821 -17.566  0.00  0.00    -0.010 C 
ATOM     14  C   UNL     1      36.411 -24.971 -12.646  0.00  0.00    +0.047 C 
ATOM     15  C   UNL     1      35.808 -23.156 -16.541  0.00  0.00    +0.105 C 
ATOM     16  C   UNL     1      35.519 -24.228 -15.580  0.00  0.00    +0.344 C 
ATOM     17  C   UNL     1      35.287 -21.815 -18.471  0.00  0.00    +0.033 C 
ATOM     18  C   UNL     1      37.045 -22.508 -16.421  0.00  0.00    +0.143 C 
ATOM     19  C   UNL     1      36.518 -21.165 -18.353  0.00  0.00    +0.136 C 
ATOM     20  C   UNL     1      37.394 -21.510 -17.328  0.00  0.00    +0.073 C 
ENDROOT
BRANCH   3  21
ATOM     21  O   UNL     1      29.641 -25.093 -13.540  0.00  0.00    -0.384 OA
ATOM     22  H   UNL     1      29.172 -25.218 -12.700  0.00  0.00    +0.210 HD
ENDBRANCH   3  21
BRANCH  18  23
ATOM     23  O   UNL     1      37.935 -22.841 -15.444  0.00  0.00    -0.505 OA
ATOM     24  H   UNL     1      37.845 -22.478 -14.585  0.00  0.00    +0.292 HD
ENDBRANCH  18  23
BRANCH  19  25
ATOM     25  O   UNL     1      36.860 -20.192 -19.242  0.00  0.00    -0.505 OA
ATOM     26  H   UNL     1      37.517 -20.358 -19.889  0.00  0.00    +0.292 HD
ENDBRANCH  19  25
TORSDOF 3
ENDMDL
MODEL 6
REMARK VINA RESULT:      -6.2     13.357     15.766
REMARK  Name = 2999413
REMARK  3 active torsions:
REMARK  status: ('A' for Active; 'I' for Inactive)
REMARK    1  A    between atoms: C_3  and  O_21
REMARK    2  A    between atoms: C_18  and  O_23
REMARK    3  A    between atoms: C_19  and  O_25
REMARK                            x       y       z     vdW  Elec       q    Type
REMARK                         _______ _______ _______ _____ _____    ______ ____
ROOT
ATOM      1  O   UNL     1      33.167  -8.803 -22.743  0.00  0.00    -0.449 OA
ATOM      2  O   UNL     1      30.897  -8.928 -23.207  0.00  0.00    -0.245 OA
ATOM      3  C   UNL     1      34.640 -12.200 -26.012  0.00  0.00    +0.111 C 
ATOM      4  C   UNL     1      34.154 -13.112 -24.876  0.00  0.00    +0.029 C 
ATOM      5  C   UNL     1      34.375 -10.702 -25.797  0.00  0.00    +0.029 C 
ATOM      6  C   UNL     1      32.628 -13.153 -24.709  0.00  0.00    +0.002 C 
ATOM      7  C   UNL     1      35.086 -10.132 -24.567  0.00  0.00    +0.006 C 
ATOM      8  C   UNL     1      32.204 -13.866 -23.419  0.00  0.00    +0.000 C 
ATOM      9  C   UNL     1      34.901  -8.616 -24.412  0.00  0.00    +0.044 C 
ATOM     10  C   UNL     1      32.339 -12.991 -22.167  0.00  0.00    +0.005 C 
ATOM     11  C   UNL     1      33.474  -8.206 -24.022  0.00  0.00    +0.169 C 
ATOM     12  C   UNL     1      31.189 -11.982 -22.028  0.00  0.00    +0.027 C 
ATOM     13  C   UNL     1      31.436 -10.994 -20.912  0.00  0.00    -0.010 C 
ATOM     14  C   UNL     1      33.368  -6.690 -23.885  0.00  0.00    +0.047 C 
ATOM     15  C   UNL     1      31.792  -9.652 -21.135  0.00  0.00    +0.105 C 
ATOM     16  C   UNL     1      31.868  -9.088 -22.488  0.00  0.00    +0.344 C 
ATOM     17  C   UNL     1      31.340 -11.437 -19.583  0.00  0.00    +0.033 C 
ATOM     18  C   UNL     1      32.046  -8.783 -20.065  0.00  0.00    +0.143 C 
ATOM     19  C   UNL     1      31.595 -10.574 -18.514  0.00  0.00    +0.136 C 
ATOM     20  C   UNL     1      31.949  -9.249 -18.756  0.00  0.00    +0.073 C 
ENDROOT
BRANCH   3  21
ATOM     21  O   UNL     1      34.013 -12.612 -27.226  0.00  0.00    -0.384 OA
ATOM     22  H   UNL     1      34.454 -12.187 -27.978  0.00  0.00    +0.210 HD
ENDBRANCH   3  21
BRANCH  18  23
ATOM     23  O   UNL     1      32.369  -7.475 -20.269  0.00  0.00    -0.505 OA
ATOM     24  H   UNL     1      31.763  -6.800 -20.033  0.00  0.00    +0.292 HD
ENDBRANCH  18  23
BRANCH  19  25
ATOM     25  O   UNL     1      31.497 -11.030 -17.235  0.00  0.00    -0.505 OA
ATOM     26  H   UNL     1      30.661 -11.071 -16.815  0.00  0.00    +0.292 HD
ENDBRANCH  19  25
TORSDOF 3
ENDMDL
MODEL 7
REMARK VINA RESULT:      -5.9      1.552      5.848
REMARK  Name = 2999413
REMARK  3 active torsions:
REMARK  status: ('A' for Active; 'I' for Inactive)
REMARK    1  A    between atoms: C_3  and  O_21
REMARK    2  A    between atoms: C_18  and  O_23
REMARK    3  A    between atoms: C_19  and  O_25
REMARK                            x       y       z     vdW  Elec       q    Type
REMARK                         _______ _______ _______ _____ _____    ______ ____
ROOT
ATOM      1  O   UNL     1      34.224 -22.469 -17.357  0.00  0.00    -0.449 OA
ATOM      2  O   UNL     1      33.716 -24.698 -17.751  0.00  0.00    -0.245 OA
ATOM      3  C   UNL     1      38.095 -23.250 -14.389  0.00  0.00    +0.111 C 
ATOM      4  C   UNL     1      36.946 -23.473 -13.396  0.00  0.00    +0.029 C 
ATOM      5  C   UNL     1      37.658 -23.033 -15.846  0.00  0.00    +0.029 C 
ATOM      6  C   UNL     1      36.165 -24.778 -13.616  0.00  0.00    +0.002 C 
ATOM      7  C   UNL     1      36.788 -21.788 -16.038  0.00  0.00    +0.006 C 
ATOM      8  C   UNL     1      34.884 -24.837 -12.776  0.00  0.00    +0.000 C 
ATOM      9  C   UNL     1      36.437 -21.519 -17.508  0.00  0.00    +0.044 C 
ATOM     10  C   UNL     1      33.728 -24.021 -13.368  0.00  0.00    +0.005 C 
ATOM     11  C   UNL     1      35.457 -22.538 -18.105  0.00  0.00    +0.169 C 
ATOM     12  C   UNL     1      33.037 -24.742 -14.535  0.00  0.00    +0.027 C 
ATOM     13  C   UNL     1      32.042 -23.851 -15.241  0.00  0.00    -0.010 C 
ATOM     14  C   UNL     1      35.156 -22.205 -19.563  0.00  0.00    +0.047 C 
ATOM     15  C   UNL     1      32.273 -23.288 -16.507  0.00  0.00    +0.105 C 
ATOM     16  C   UNL     1      33.480 -23.599 -17.282  0.00  0.00    +0.344 C 
ATOM     17  C   UNL     1      30.837 -23.536 -14.590  0.00  0.00    +0.033 C 
ATOM     18  C   UNL     1      31.332 -22.437 -17.104  0.00  0.00    +0.143 C 
ATOM     19  C   UNL     1      29.898 -22.687 -15.182  0.00  0.00    +0.136 C 
ATOM     20  C   UNL     1      30.147 -22.137 -16.436  0.00  0.00    +0.073 C 
ENDROOT
BRANCH   3  21
ATOM     21  O   UNL     1      38.972 -24.374 -14.330  0.00  0.00    -0.384 OA
ATOM     22  H   UNL     1      38.794 -24.963 -15.081  0.00  0.00    +0.210 HD
ENDBRANCH   3  21
BRANCH  18  23
ATOM     23  O   UNL     1      31.535 -21.904 -18.342  0.00  0.00    -0.505 OA
ATOM     24  H   UNL     1      30.839 -21.453 -18.778  0.00  0.00    +0.292 HD
ENDBRANCH  18  23
BRANCH  19  25
ATOM     25  O   UNL     1      28.739 -22.397 -14.529  0.00  0.00    -0.505 OA
ATOM     26  H   UNL     1      28.584 -22.743 -13.673  0.00  0.00    +0.292 HD
ENDBRANCH  19  25
TORSDOF 3
ENDMDL
MODEL 8
REMARK VINA RESULT:      -5.5     16.350     18.722
REMARK  Name = 2999413
REMARK  3 active torsions:
REMARK  status: ('A' for Active; 'I' for Inactive)
REMARK    1  A    between atoms: C_3  and  O_21
REMARK    2  A    between atoms: C_18  and  O_23
REMARK    3  A    between atoms: C_19  and  O_25
REMARK                            x       y       z     vdW  Elec       q    Type
REMARK                         _______ _______ _______ _____ _____    ______ ____
ROOT
ATOM      1  O   UNL     1      34.085  -7.025 -25.366  0.00  0.00    -0.449 OA
ATOM      2  O   UNL     1      35.565  -7.010 -23.579  0.00  0.00    -0.245 OA
ATOM      3  C   UNL     1      31.051  -3.517 -23.664  0.00  0.00    +0.111 C 
ATOM      4  C   UNL     1      30.550  -4.722 -22.855  0.00  0.00    +0.029 C 
ATOM      5  C   UNL     1      32.299  -3.787 -24.520  0.00  0.00    +0.029 C 
ATOM      6  C   UNL     1      31.513  -5.182 -21.749  0.00  0.00    +0.002 C 
ATOM      7  C   UNL     1      32.078  -4.857 -25.592  0.00  0.00    +0.006 C 
ATOM      8  C   UNL     1      31.097  -6.527 -21.141  0.00  0.00    +0.000 C 
ATOM      9  C   UNL     1      33.294  -5.052 -26.509  0.00  0.00    +0.044 C 
ATOM     10  C   UNL     1      31.481  -7.733 -22.007  0.00  0.00    +0.005 C 
ATOM     11  C   UNL     1      34.491  -5.714 -25.813  0.00  0.00    +0.169 C 
ATOM     12  C   UNL     1      32.968  -8.097 -21.881  0.00  0.00    +0.027 C 
ATOM     13  C   UNL     1      33.379  -9.148 -22.887  0.00  0.00    -0.010 C 
ATOM     14  C   UNL     1      35.657  -5.875 -26.785  0.00  0.00    +0.047 C 
ATOM     15  C   UNL     1      34.158  -8.866 -24.022  0.00  0.00    +0.105 C 
ATOM     16  C   UNL     1      34.705  -7.526 -24.271  0.00  0.00    +0.344 C 
ATOM     17  C   UNL     1      32.938 -10.469 -22.703  0.00  0.00    +0.033 C 
ATOM     18  C   UNL     1      34.483  -9.870 -24.945  0.00  0.00    +0.143 C 
ATOM     19  C   UNL     1      33.258 -11.471 -23.622  0.00  0.00    +0.136 C 
ATOM     20  C   UNL     1      34.028 -11.171 -24.742  0.00  0.00    +0.073 C 
ENDROOT
BRANCH   3  21
ATOM     21  O   UNL     1      31.329  -2.447 -22.764  0.00  0.00    -0.384 OA
ATOM     22  H   UNL     1      31.522  -2.806 -21.884  0.00  0.00    +0.210 HD
ENDBRANCH   3  21
BRANCH  18  23
ATOM     23  O   UNL     1      35.256  -9.613 -26.037  0.00  0.00    -0.505 OA
ATOM     24  H   UNL     1      36.036  -9.101 -25.949  0.00  0.00    +0.292 HD
ENDBRANCH  18  23
BRANCH  19  25
ATOM     25  O   UNL     1      32.815 -12.743 -23.421  0.00  0.00    -0.505 OA
ATOM     26  H   UNL     1      32.569 -13.274 -24.152  0.00  0.00    +0.292 HD
ENDBRANCH  19  25
TORSDOF 3
ENDMDL
MODEL 9
REMARK VINA RESULT:      -5.4      2.183      4.216
REMARK  Name = 2999413
REMARK  3 active torsions:
REMARK  status: ('A' for Active; 'I' for Inactive)
REMARK    1  A    between atoms: C_3  and  O_21
REMARK    2  A    between atoms: C_18  and  O_23
REMARK    3  A    between atoms: C_19  and  O_25
REMARK                            x       y       z     vdW  Elec       q    Type
REMARK                         _______ _______ _______ _____ _____    ______ ____
ROOT
ATOM      1  O   UNL     1      33.576 -24.086 -14.375  0.00  0.00    -0.449 OA
ATOM      2  O   UNL     1      34.833 -25.866 -15.172  0.00  0.00    -0.245 OA
ATOM      3  C   UNL     1      32.957 -21.798 -18.710  0.00  0.00    +0.111 C 
ATOM      4  C   UNL     1      34.379 -21.336 -18.362  0.00  0.00    +0.029 C 
ATOM      5  C   UNL     1      32.357 -22.831 -17.741  0.00  0.00    +0.029 C 
ATOM      6  C   UNL     1      35.446 -22.436 -18.482  0.00  0.00    +0.002 C 
ATOM      7  C   UNL     1      32.212 -22.306 -16.311  0.00  0.00    +0.006 C 
ATOM      8  C   UNL     1      36.793 -22.004 -17.889  0.00  0.00    +0.000 C 
ATOM      9  C   UNL     1      31.522 -23.303 -15.370  0.00  0.00    +0.044 C 
ATOM     10  C   UNL     1      36.842 -22.094 -16.358  0.00  0.00    +0.005 C 
ATOM     11  C   UNL     1      32.377 -24.534 -15.042  0.00  0.00    +0.169 C 
ATOM     12  C   UNL     1      37.044 -23.533 -15.861  0.00  0.00    +0.027 C 
ATOM     13  C   UNL     1      36.886 -23.640 -14.362  0.00  0.00    -0.010 C 
ATOM     14  C   UNL     1      31.627 -25.476 -14.103  0.00  0.00    +0.047 C 
ATOM     15  C   UNL     1      35.764 -24.218 -13.744  0.00  0.00    +0.105 C 
ATOM     16  C   UNL     1      34.689 -24.844 -14.525  0.00  0.00    +0.344 C 
ATOM     17  C   UNL     1      37.890 -23.107 -13.536  0.00  0.00    +0.033 C 
ATOM     18  C   UNL     1      35.647 -24.261 -12.348  0.00  0.00    +0.143 C 
ATOM     19  C   UNL     1      37.775 -23.146 -12.145  0.00  0.00    +0.136 C 
ATOM     20  C   UNL     1      36.655 -23.721 -11.552  0.00  0.00    +0.073 C 
ENDROOT
BRANCH   3  21
ATOM     21  O   UNL     1      32.965 -22.348 -20.026  0.00  0.00    -0.384 OA
ATOM     22  H   UNL     1      32.125 -22.805 -20.191  0.00  0.00    +0.210 HD
ENDBRANCH   3  21
BRANCH  18  23
ATOM     23  O   UNL     1      34.575 -24.840 -11.738  0.00  0.00    -0.505 OA
ATOM     24  H   UNL     1      34.703 -25.405 -11.002  0.00  0.00    +0.292 HD
ENDBRANCH  18  23
BRANCH  19  25
ATOM     25  O   UNL     1      38.762 -22.620 -11.367  0.00  0.00    -0.505 OA
ATOM     26  H   UNL     1      39.627 -22.978 -11.403  0.00  0.00    +0.292 HD
ENDBRANCH  19  25
TORSDOF 3
ENDMDL
