MODEL 1
REMARK VINA RESULT:      -8.9      0.000      0.000
REMARK  Name = 24741805
REMARK  0 active torsions:
REMARK  status: ('A' for Active; 'I' for Inactive)
REMARK                            x       y       z     vdW  Elec       q    Type
REMARK                         _______ _______ _______ _____ _____    ______ ____
ROOT
ATOM      1  O   UNL     1      34.935 -17.188 -24.695  0.00  0.00    -0.209 OA
ATOM      2  N   UNL     1      32.174 -13.112 -22.860  0.00  0.00    -0.318 N 
ATOM      3  N   UNL     1      35.153 -17.200 -20.696  0.00  0.00    -0.275 N 
ATOM      4  N   UNL     1      32.313 -13.147 -20.643  0.00  0.00    -0.318 N 
ATOM      5  N   UNL     1      35.729 -18.176 -22.788  0.00  0.00    -0.302 NA
ATOM      6  N   UNL     1      36.467 -19.078 -20.755  0.00  0.00    -0.320 N 
ATOM      7  C   UNL     1      32.953 -14.201 -22.559  0.00  0.00    +0.060 C 
ATOM      8  C   UNL     1      33.025 -14.200 -21.170  0.00  0.00    +0.060 C 
ATOM      9  C   UNL     1      34.407 -16.180 -21.296  0.00  0.00    +0.064 C 
ATOM     10  C   UNL     1      34.311 -16.147 -22.695  0.00  0.00    +0.110 C 
ATOM     11  C   UNL     1      33.580 -15.154 -23.363  0.00  0.00    +0.029 C 
ATOM     12  C   UNL     1      33.764 -15.204 -20.519  0.00  0.00    +0.031 C 
ATOM     13  C   UNL     1      31.816 -12.516 -21.683  0.00  0.00    +0.144 C 
ATOM     14  C   UNL     1      35.015 -17.209 -23.471  0.00  0.00    +0.208 C 
ATOM     15  C   UNL     1      35.774 -18.143 -21.482  0.00  0.00    +0.248 C 
ATOM     16  C   UNL     1      30.969 -11.310 -21.661  0.00  0.00    +0.044 C 
ATOM     17  H   UNL     1      31.918 -12.814 -23.762  0.00  0.00    +0.148 HD
ATOM     18  H   UNL     1      35.235 -17.241 -19.716  0.00  0.00    +0.156 HD
ATOM     19  H   UNL     1      32.200 -12.916 -19.692  0.00  0.00    +0.148 HD
ATOM     20  H   UNL     1      36.482 -19.026 -19.773  0.00  0.00    +0.146 HD
ATOM     21  H   UNL     1      36.950 -19.803 -21.217  0.00  0.00    +0.146 HD
ENDROOT
TORSDOF 0
ENDMDL
MODEL 2
REMARK VINA RESULT:      -8.9      2.060      5.365
REMARK  Name = 24741805
REMARK  0 active torsions:
REMARK  status: ('A' for Active; 'I' for Inactive)
REMARK                            x       y       z     vdW  Elec       q    Type
REMARK                         _______ _______ _______ _____ _____    ______ ____
ROOT
ATOM      1  O   UNL     1      33.617 -16.016 -26.268  0.00  0.00    -0.209 OA
ATOM      2  N   UNL     1      35.239 -19.222 -22.435  0.00  0.00    -0.318 N 
ATOM      3  N   UNL     1      34.162 -13.851 -22.943  0.00  0.00    -0.275 N 
ATOM      4  N   UNL     1      35.534 -17.993 -20.607  0.00  0.00    -0.318 N 
ATOM      5  N   UNL     1      33.545 -13.972 -25.238  0.00  0.00    -0.302 NA
ATOM      6  N   UNL     1      33.522 -11.950 -24.054  0.00  0.00    -0.320 N 
ATOM      7  C   UNL     1      34.914 -17.940 -22.800  0.00  0.00    +0.060 C 
ATOM      8  C   UNL     1      35.106 -17.193 -21.642  0.00  0.00    +0.060 C 
ATOM      9  C   UNL     1      34.422 -15.223 -22.866  0.00  0.00    +0.064 C 
ATOM     10  C   UNL     1      34.240 -16.010 -24.013  0.00  0.00    +0.110 C 
ATOM     11  C   UNL     1      34.483 -17.392 -24.008  0.00  0.00    +0.029 C 
ATOM     12  C   UNL     1      34.857 -15.809 -21.667  0.00  0.00    +0.031 C 
ATOM     13  C   UNL     1      35.603 -19.202 -21.117  0.00  0.00    +0.144 C 
ATOM     14  C   UNL     1      33.777 -15.335 -25.260  0.00  0.00    +0.208 C 
ATOM     15  C   UNL     1      33.736 -13.303 -24.131  0.00  0.00    +0.248 C 
ATOM     16  C   UNL     1      36.014 -20.433 -20.418  0.00  0.00    +0.044 C 
ATOM     17  H   UNL     1      35.215 -20.014 -23.019  0.00  0.00    +0.148 HD
ATOM     18  H   UNL     1      34.281 -13.280 -22.150  0.00  0.00    +0.156 HD
ATOM     19  H   UNL     1      35.743 -17.720 -19.685  0.00  0.00    +0.148 HD
ATOM     20  H   UNL     1      33.675 -11.474 -23.206  0.00  0.00    +0.146 HD
ATOM     21  H   UNL     1      33.216 -11.453 -24.848  0.00  0.00    +0.146 HD
ENDROOT
TORSDOF 0
ENDMDL
MODEL 3
REMARK VINA RESULT:      -8.9      4.379      5.867
REMARK  Name = 24741805
REMARK  0 active torsions:
REMARK  status: ('A' for Active; 'I' for Inactive)
REMARK                            x       y       z     vdW  Elec       q    Type
REMARK                         _______ _______ _______ _____ _____    ______ ____
ROOT
ATOM      1  O   UNL     1      33.092 -22.228 -19.333  0.00  0.00    -0.209 OA
ATOM      2  N   UNL     1      34.111 -18.609 -23.002  0.00  0.00    -0.318 N 
ATOM      3  N   UNL     1      36.857 -20.950 -18.849  0.00  0.00    -0.275 N 
ATOM      4  N   UNL     1      36.203 -17.919 -22.707  0.00  0.00    -0.318 N 
ATOM      5  N   UNL     1      35.058 -22.350 -18.165  0.00  0.00    -0.302 NA
ATOM      6  N   UNL     1      37.127 -22.365 -17.065  0.00  0.00    -0.320 N 
ATOM      7  C   UNL     1      34.583 -19.321 -21.929  0.00  0.00    +0.060 C 
ATOM      8  C   UNL     1      35.890 -18.872 -21.765  0.00  0.00    +0.060 C 
ATOM      9  C   UNL     1      36.116 -20.385 -19.892  0.00  0.00    +0.064 C 
ATOM     10  C   UNL     1      34.794 -20.812 -20.089  0.00  0.00    +0.110 C 
ATOM     11  C   UNL     1      33.993 -20.289 -21.115  0.00  0.00    +0.029 C 
ATOM     12  C   UNL     1      36.677 -19.410 -20.731  0.00  0.00    +0.031 C 
ATOM     13  C   UNL     1      35.114 -17.785 -23.431  0.00  0.00    +0.144 C 
ATOM     14  C   UNL     1      34.248 -21.851 -19.168  0.00  0.00    +0.208 C 
ATOM     15  C   UNL     1      36.281 -21.905 -18.043  0.00  0.00    +0.248 C 
ATOM     16  C   UNL     1      34.924 -16.879 -24.578  0.00  0.00    +0.044 C 
ATOM     17  H   UNL     1      33.210 -18.678 -23.392  0.00  0.00    +0.148 HD
ATOM     18  H   UNL     1      37.786 -20.667 -18.694  0.00  0.00    +0.156 HD
ATOM     19  H   UNL     1      37.056 -17.440 -22.815  0.00  0.00    +0.148 HD
ATOM     20  H   UNL     1      38.043 -22.010 -16.999  0.00  0.00    +0.146 HD
ATOM     21  H   UNL     1      36.818 -23.051 -16.429  0.00  0.00    +0.146 HD
ENDROOT
TORSDOF 0
ENDMDL
MODEL 4
REMARK VINA RESULT:      -8.7      4.278      6.257
REMARK  Name = 24741805
REMARK  0 active torsions:
REMARK  status: ('A' for Active; 'I' for Inactive)
REMARK                            x       y       z     vdW  Elec       q    Type
REMARK                         _______ _______ _______ _____ _____    ______ ____
ROOT
ATOM      1  O   UNL     1      36.902 -21.938 -18.344  0.00  0.00    -0.209 OA
ATOM      2  N   UNL     1      36.048 -18.406 -22.138  0.00  0.00    -0.318 N 
ATOM      3  N   UNL     1      32.978 -21.846 -19.138  0.00  0.00    -0.275 N 
ATOM      4  N   UNL     1      33.866 -18.379 -22.556  0.00  0.00    -0.318 N 
ATOM      5  N   UNL     1      34.803 -22.734 -17.896  0.00  0.00    -0.302 NA
ATOM      6  N   UNL     1      32.600 -23.454 -17.548  0.00  0.00    -0.320 N 
ATOM      7  C   UNL     1      35.501 -19.329 -21.283  0.00  0.00    +0.060 C 
ATOM      8  C   UNL     1      34.138 -19.293 -21.565  0.00  0.00    +0.060 C 
ATOM      9  C   UNL     1      33.802 -20.989 -19.875  0.00  0.00    +0.064 C 
ATOM     10  C   UNL     1      35.182 -20.996 -19.620  0.00  0.00    +0.110 C 
ATOM     11  C   UNL     1      36.068 -20.164 -20.321  0.00  0.00    +0.029 C 
ATOM     12  C   UNL     1      33.267 -20.135 -20.850  0.00  0.00    +0.031 C 
ATOM     13  C   UNL     1      35.032 -17.866 -22.877  0.00  0.00    +0.144 C 
ATOM     14  C   UNL     1      35.697 -21.925 -18.572  0.00  0.00    +0.208 C 
ATOM     15  C   UNL     1      33.530 -22.673 -18.186  0.00  0.00    +0.248 C 
ATOM     16  C   UNL     1      35.292 -16.834 -23.898  0.00  0.00    +0.044 C 
ATOM     17  H   UNL     1      37.002 -18.174 -22.207  0.00  0.00    +0.148 HD
ATOM     18  H   UNL     1      32.007 -21.856 -19.299  0.00  0.00    +0.156 HD
ATOM     19  H   UNL     1      32.988 -18.157 -22.943  0.00  0.00    +0.148 HD
ATOM     20  H   UNL     1      31.648 -23.385 -17.789  0.00  0.00    +0.146 HD
ATOM     21  H   UNL     1      32.885 -24.085 -16.847  0.00  0.00    +0.146 HD
ENDROOT
TORSDOF 0
ENDMDL
MODEL 5
REMARK VINA RESULT:      -8.7      1.656      2.002
REMARK  Name = 24741805
REMARK  0 active torsions:
REMARK  status: ('A' for Active; 'I' for Inactive)
REMARK                            x       y       z     vdW  Elec       q    Type
REMARK                         _______ _______ _______ _____ _____    ______ ____
ROOT
ATOM      1  O   UNL     1      33.579 -15.314 -26.451  0.00  0.00    -0.209 OA
ATOM      2  N   UNL     1      31.715 -12.261 -22.602  0.00  0.00    -0.318 N 
ATOM      3  N   UNL     1      34.627 -16.917 -22.933  0.00  0.00    -0.275 N 
ATOM      4  N   UNL     1      32.311 -13.176 -20.667  0.00  0.00    -0.318 N 
ATOM      5  N   UNL     1      34.644 -16.991 -25.312  0.00  0.00    -0.302 NA
ATOM      6  N   UNL     1      35.691 -18.637 -24.014  0.00  0.00    -0.320 N 
ATOM      7  C   UNL     1      32.419 -13.391 -22.933  0.00  0.00    +0.060 C 
ATOM      8  C   UNL     1      32.779 -13.944 -21.708  0.00  0.00    +0.060 C 
ATOM      9  C   UNL     1      33.885 -15.732 -22.903  0.00  0.00    +0.064 C 
ATOM     10  C   UNL     1      33.503 -15.144 -24.118  0.00  0.00    +0.110 C 
ATOM     11  C   UNL     1      32.758 -13.956 -24.163  0.00  0.00    +0.029 C 
ATOM     12  C   UNL     1      33.527 -15.135 -21.685  0.00  0.00    +0.031 C 
ATOM     13  C   UNL     1      31.678 -12.177 -21.238  0.00  0.00    +0.144 C 
ATOM     14  C   UNL     1      33.911 -15.821 -25.384  0.00  0.00    +0.208 C 
ATOM     15  C   UNL     1      34.965 -17.480 -24.143  0.00  0.00    +0.248 C 
ATOM     16  C   UNL     1      30.987 -11.065 -20.558  0.00  0.00    +0.044 C 
ATOM     17  H   UNL     1      31.309 -11.626 -23.234  0.00  0.00    +0.148 HD
ATOM     18  H   UNL     1      34.908 -17.346 -22.093  0.00  0.00    +0.156 HD
ATOM     19  H   UNL     1      32.424 -13.340 -19.703  0.00  0.00    +0.148 HD
ATOM     20  H   UNL     1      35.917 -18.980 -23.119  0.00  0.00    +0.146 HD
ATOM     21  H   UNL     1      35.986 -19.126 -24.817  0.00  0.00    +0.146 HD
ENDROOT
TORSDOF 0
ENDMDL
MODEL 6
REMARK VINA RESULT:      -8.7      2.450      3.520
REMARK  Name = 24741805
REMARK  0 active torsions:
REMARK  status: ('A' for Active; 'I' for Inactive)
REMARK                            x       y       z     vdW  Elec       q    Type
REMARK                         _______ _______ _______ _____ _____    ______ ____
ROOT
ATOM      1  O   UNL     1      34.821 -15.332 -20.198  0.00  0.00    -0.209 OA
ATOM      2  N   UNL     1      33.318 -13.612 -24.929  0.00  0.00    -0.318 N 
ATOM      3  N   UNL     1      35.059 -18.373 -22.794  0.00  0.00    -0.275 N 
ATOM      4  N   UNL     1      33.462 -15.318 -26.345  0.00  0.00    -0.318 N 
ATOM      5  N   UNL     1      35.322 -17.533 -20.583  0.00  0.00    -0.302 NA
ATOM      6  N   UNL     1      35.798 -19.762 -21.126  0.00  0.00    -0.320 N 
ATOM      7  C   UNL     1      33.765 -14.671 -24.181  0.00  0.00    +0.060 C 
ATOM      8  C   UNL     1      33.847 -15.723 -25.088  0.00  0.00    +0.060 C 
ATOM      9  C   UNL     1      34.622 -17.140 -23.288  0.00  0.00    +0.064 C 
ATOM     10  C   UNL     1      34.526 -16.054 -22.404  0.00  0.00    +0.110 C 
ATOM     11  C   UNL     1      34.094 -14.789 -22.831  0.00  0.00    +0.029 C 
ATOM     12  C   UNL     1      34.281 -16.983 -24.640  0.00  0.00    +0.031 C 
ATOM     13  C   UNL     1      33.152 -14.048 -26.215  0.00  0.00    +0.144 C 
ATOM     14  C   UNL     1      34.900 -16.277 -20.977  0.00  0.00    +0.208 C 
ATOM     15  C   UNL     1      35.386 -18.498 -21.463  0.00  0.00    +0.248 C 
ATOM     16  C   UNL     1      32.678 -13.141 -27.277  0.00  0.00    +0.044 C 
ATOM     17  H   UNL     1      33.147 -12.700 -24.600  0.00  0.00    +0.148 HD
ATOM     18  H   UNL     1      35.133 -19.148 -23.396  0.00  0.00    +0.156 HD
ATOM     19  H   UNL     1      33.427 -15.861 -27.165  0.00  0.00    +0.148 HD
ATOM     20  H   UNL     1      35.836 -20.468 -21.812  0.00  0.00    +0.146 HD
ATOM     21  H   UNL     1      36.058 -19.965 -20.198  0.00  0.00    +0.146 HD
ENDROOT
TORSDOF 0
ENDMDL
MODEL 7
REMARK VINA RESULT:      -8.5      3.945      6.896
REMARK  Name = 24741805
REMARK  0 active torsions:
REMARK  status: ('A' for Active; 'I' for Inactive)
REMARK                            x       y       z     vdW  Elec       q    Type
REMARK                         _______ _______ _______ _____ _____    ______ ____
ROOT
ATOM      1  O   UNL     1      37.830 -19.081 -21.345  0.00  0.00    -0.209 OA
ATOM      2  N   UNL     1      34.887 -22.328 -18.447  0.00  0.00    -0.318 N 
ATOM      3  N   UNL     1      33.978 -18.444 -22.236  0.00  0.00    -0.275 N 
ATOM      4  N   UNL     1      32.759 -21.950 -18.962  0.00  0.00    -0.318 N 
ATOM      5  N   UNL     1      36.277 -17.925 -22.567  0.00  0.00    -0.302 NA
ATOM      6  N   UNL     1      34.576 -16.824 -23.745  0.00  0.00    -0.320 N 
ATOM      7  C   UNL     1      34.910 -21.337 -19.396  0.00  0.00    +0.060 C 
ATOM      8  C   UNL     1      33.570 -21.119 -19.700  0.00  0.00    +0.060 C 
ATOM      9  C   UNL     1      34.262 -19.422 -21.278  0.00  0.00    +0.064 C 
ATOM     10  C   UNL     1      35.602 -19.671 -20.944  0.00  0.00    +0.110 C 
ATOM     11  C   UNL     1      35.960 -20.637 -19.991  0.00  0.00    +0.029 C 
ATOM     12  C   UNL     1      33.233 -20.147 -20.658  0.00  0.00    +0.031 C 
ATOM     13  C   UNL     1      33.579 -22.660 -18.222  0.00  0.00    +0.144 C 
ATOM     14  C   UNL     1      36.656 -18.871 -21.633  0.00  0.00    +0.208 C 
ATOM     15  C   UNL     1      35.008 -17.749 -22.828  0.00  0.00    +0.248 C 
ATOM     16  C   UNL     1      33.211 -23.702 -17.246  0.00  0.00    +0.044 C 
ATOM     17  H   UNL     1      35.671 -22.728 -18.007  0.00  0.00    +0.148 HD
ATOM     18  H   UNL     1      33.045 -18.254 -22.487  0.00  0.00    +0.156 HD
ATOM     19  H   UNL     1      31.776 -22.001 -18.983  0.00  0.00    +0.148 HD
ATOM     20  H   UNL     1      33.614 -16.715 -23.919  0.00  0.00    +0.146 HD
ATOM     21  H   UNL     1      35.230 -16.268 -24.229  0.00  0.00    +0.146 HD
ENDROOT
TORSDOF 0
ENDMDL
MODEL 8
REMARK VINA RESULT:      -8.4      2.384      5.762
REMARK  Name = 24741805
REMARK  0 active torsions:
REMARK  status: ('A' for Active; 'I' for Inactive)
REMARK                            x       y       z     vdW  Elec       q    Type
REMARK                         _______ _______ _______ _____ _____    ______ ____
ROOT
ATOM      1  O   UNL     1      33.714 -13.336 -22.496  0.00  0.00    -0.209 OA
ATOM      2  N   UNL     1      35.505 -17.953 -20.741  0.00  0.00    -0.318 N 
ATOM      3  N   UNL     1      33.798 -15.916 -25.558  0.00  0.00    -0.275 N 
ATOM      4  N   UNL     1      35.538 -19.361 -22.460  0.00  0.00    -0.318 N 
ATOM      5  N   UNL     1      33.333 -13.739 -24.717  0.00  0.00    -0.302 NA
ATOM      6  N   UNL     1      32.990 -14.297 -26.967  0.00  0.00    -0.320 N 
ATOM      7  C   UNL     1      35.045 -17.232 -21.814  0.00  0.00    +0.060 C 
ATOM      8  C   UNL     1      35.075 -18.133 -22.873  0.00  0.00    +0.060 C 
ATOM      9  C   UNL     1      34.222 -16.385 -24.311  0.00  0.00    +0.064 C 
ATOM     10  C   UNL     1      34.206 -15.506 -23.217  0.00  0.00    +0.110 C 
ATOM     11  C   UNL     1      34.618 -15.909 -21.938  0.00  0.00    +0.029 C 
ATOM     12  C   UNL     1      34.659 -17.709 -24.148  0.00  0.00    +0.031 C 
ATOM     13  C   UNL     1      35.786 -19.218 -21.177  0.00  0.00    +0.144 C 
ATOM     14  C   UNL     1      33.733 -14.110 -23.447  0.00  0.00    +0.208 C 
ATOM     15  C   UNL     1      33.376 -14.613 -25.689  0.00  0.00    +0.248 C 
ATOM     16  C   UNL     1      36.303 -20.248 -20.258  0.00  0.00    +0.044 C 
ATOM     17  H   UNL     1      35.613 -17.619 -19.822  0.00  0.00    +0.148 HD
ATOM     18  H   UNL     1      33.802 -16.515 -26.339  0.00  0.00    +0.156 HD
ATOM     19  H   UNL     1      35.657 -20.171 -23.006  0.00  0.00    +0.148 HD
ATOM     20  H   UNL     1      33.034 -14.978 -27.677  0.00  0.00    +0.146 HD
ATOM     21  H   UNL     1      32.668 -13.390 -27.175  0.00  0.00    +0.146 HD
ENDROOT
TORSDOF 0
ENDMDL
MODEL 9
REMARK VINA RESULT:      -8.4      9.864     10.898
REMARK  Name = 24741805
REMARK  0 active torsions:
REMARK  status: ('A' for Active; 'I' for Inactive)
REMARK                            x       y       z     vdW  Elec       q    Type
REMARK                         _______ _______ _______ _____ _____    ______ ____
ROOT
ATOM      1  O   UNL     1      35.389 -23.157 -16.774  0.00  0.00    -0.209 OA
ATOM      2  N   UNL     1      30.168 -22.616 -17.007  0.00  0.00    -0.318 N 
ATOM      3  N   UNL     1      33.806 -24.616 -13.397  0.00  0.00    -0.275 N 
ATOM      4  N   UNL     1      29.320 -23.435 -15.123  0.00  0.00    -0.318 N 
ATOM      5  N   UNL     1      35.717 -24.143 -14.734  0.00  0.00    -0.302 NA
ATOM      6  N   UNL     1      35.898 -25.152 -12.626  0.00  0.00    -0.320 N 
ATOM      7  C   UNL     1      31.246 -23.048 -16.278  0.00  0.00    +0.060 C 
ATOM      8  C   UNL     1      30.691 -23.555 -15.107  0.00  0.00    +0.060 C 
ATOM      9  C   UNL     1      32.922 -24.096 -14.348  0.00  0.00    +0.064 C 
ATOM     10  C   UNL     1      33.444 -23.575 -15.542  0.00  0.00    +0.110 C 
ATOM     11  C   UNL     1      32.617 -23.038 -16.539  0.00  0.00    +0.029 C 
ATOM     12  C   UNL     1      31.537 -24.089 -14.119  0.00  0.00    +0.031 C 
ATOM     13  C   UNL     1      29.040 -22.869 -16.275  0.00  0.00    +0.144 C 
ATOM     14  C   UNL     1      34.924 -23.608 -15.732  0.00  0.00    +0.208 C 
ATOM     15  C   UNL     1      35.159 -24.609 -13.647  0.00  0.00    +0.248 C 
ATOM     16  C   UNL     1      27.702 -22.521 -16.786  0.00  0.00    +0.044 C 
ATOM     17  H   UNL     1      30.200 -22.199 -17.898  0.00  0.00    +0.148 HD
ATOM     18  H   UNL     1      33.461 -24.985 -12.552  0.00  0.00    +0.156 HD
ATOM     19  H   UNL     1      28.686 -23.713 -14.424  0.00  0.00    +0.148 HD
ATOM     20  H   UNL     1      35.449 -25.494 -11.821  0.00  0.00    +0.146 HD
ATOM     21  H   UNL     1      36.879 -25.199 -12.700  0.00  0.00    +0.146 HD
ENDROOT
TORSDOF 0
ENDMDL
