MODEL 1
REMARK VINA RESULT:      -7.8      0.000      0.000
REMARK  Name = 9577221
REMARK  7 active torsions:
REMARK  status: ('A' for Active; 'I' for Inactive)
REMARK    1  A    between atoms: C_4  and  O_30
REMARK    2  A    between atoms: C_4  and  C_32
REMARK    3  A    between atoms: C_9  and  C_20
REMARK    4  A    between atoms: C_25  and  C_27
REMARK    5  A    between atoms: N_26  and  C_27
REMARK    6  A    between atoms: N_26  and  O_28
REMARK    7  A    between atoms: C_32  and  O_33
REMARK                            x       y       z     vdW  Elec       q    Type
REMARK                         _______ _______ _______ _____ _____    ______ ____
ROOT
ATOM      1  O   UNL     1      27.824 -24.528 -15.355  0.00  0.00    -0.291 OA
ATOM      2  C   UNL     1      36.071 -24.019 -14.969  0.00  0.00    +0.026 C 
ATOM      3  C   UNL     1      35.005 -23.869 -13.867  0.00  0.00    +0.006 C 
ATOM      4  C   UNL     1      37.130 -24.900 -14.226  0.00  0.00    +0.120 C 
ATOM      5  C   UNL     1      33.853 -22.937 -14.259  0.00  0.00    +0.019 C 
ATOM      6  C   UNL     1      35.380 -24.659 -16.185  0.00  0.00    +0.011 C 
ATOM      7  C   UNL     1      35.826 -23.520 -12.627  0.00  0.00    +0.003 C 
ATOM      8  C   UNL     1      37.137 -24.308 -12.792  0.00  0.00    +0.030 C 
ATOM      9  C   UNL     1      34.104 -23.907 -16.681  0.00  0.00    +0.040 C 
ATOM     10  C   UNL     1      33.166 -23.451 -15.542  0.00  0.00    -0.045 C 
ATOM     11  C   UNL     1      36.734 -22.680 -15.391  0.00  0.00    +0.002 C 
ATOM     12  C   UNL     1      32.886 -22.764 -13.073  0.00  0.00    +0.009 C 
ATOM     13  C   UNL     1      31.811 -23.474 -15.651  0.00  0.00    -0.033 C 
ATOM     14  C   UNL     1      31.587 -22.121 -13.529  0.00  0.00    +0.026 C 
ATOM     15  C   UNL     1      30.942 -22.996 -14.568  0.00  0.00    -0.024 C 
ATOM     16  C   UNL     1      31.034 -23.897 -16.882  0.00  0.00    +0.034 C 
ATOM     17  C   UNL     1      29.641 -23.314 -14.480  0.00  0.00    +0.033 C 
ATOM     18  C   UNL     1      29.894 -24.843 -16.524  0.00  0.00    +0.074 C 
ATOM     19  C   UNL     1      29.013 -24.236 -15.460  0.00  0.00    +0.173 C 
ENDROOT
BRANCH   9  20
ATOM     20  C   UNL     1      34.394 -22.848 -17.747  0.00  0.00    -0.019 C 
ATOM     21  C   UNL     1      35.685 -22.349 -17.892  0.00  0.00    -0.004 C 
ATOM     22  C   UNL     1      33.365 -22.392 -18.566  0.00  0.00    -0.004 C 
ATOM     23  C   UNL     1      35.950 -21.386 -18.865  0.00  0.00    -0.003 C 
ATOM     24  C   UNL     1      33.630 -21.428 -19.539  0.00  0.00    -0.003 C 
ATOM     25  C   UNL     1      34.923 -20.925 -19.688  0.00  0.00    -0.002 C 
BRANCH  25  26
ATOM     26  C   UNL     1      35.198 -19.918 -20.701  0.00  0.00    +0.147 C 
BRANCH  26  27
ATOM     27  N   UNL     1      36.152 -19.038 -20.584  0.00  0.00    -0.083 NA
BRANCH  27  28
ATOM     28  O   UNL     1      35.606 -17.754 -20.662  0.00  0.00    -0.295 OA
ATOM     29  H   UNL     1      36.117 -17.047 -21.005  0.00  0.00    +0.238 HD
ENDBRANCH  27  28
ENDBRANCH  26  27
ENDBRANCH  25  26
ENDBRANCH   9  20
BRANCH   4  30
ATOM     30  O   UNL     1      38.430 -24.755 -14.796  0.00  0.00    -0.353 OA
ATOM     31  C   UNL     1      39.444 -24.971 -13.827  0.00  0.00    +0.174 C 
ENDBRANCH   4  30
BRANCH   4  32
ATOM     32  C   UNL     1      36.840 -26.405 -14.179  0.00  0.00    +0.169 C 
BRANCH  32  33
ATOM     33  O   UNL     1      37.623 -27.038 -15.169  0.00  0.00    -0.349 OA
ATOM     34  C   UNL     1      36.820 -27.591 -16.207  0.00  0.00    +0.174 C 
ENDBRANCH  32  33
ENDBRANCH   4  32
TORSDOF 7
ENDMDL
