MODEL 1
REMARK VINA RESULT:      -8.1      0.000      0.000
REMARK  Name = 24866443
REMARK  3 active torsions:
REMARK  status: ('A' for Active; 'I' for Inactive)
REMARK    1  A    between atoms: N_3  and  C_10
REMARK    2  A    between atoms: C_5  and  C_18
REMARK    3  A    between atoms: C_18  and  C_19
REMARK                            x       y       z     vdW  Elec       q    Type
REMARK                         _______ _______ _______ _____ _____    ______ ____
ROOT
ATOM      1  S   UNL     1      33.930 -11.865 -24.406  0.00  0.00    -0.051 S 
ATOM      2  O   UNL     1      31.802 -13.888 -21.933  0.00  0.00    -0.213 OA
ATOM      3  N   UNL     1      32.851  -9.646 -23.467  0.00  0.00    -0.304 N 
ATOM      4  N   UNL     1      32.153 -11.692 -22.522  0.00  0.00    -0.314 NA
ATOM      5  C   UNL     1      33.400 -13.451 -23.686  0.00  0.00    +0.150 C 
ATOM      6  C   UNL     1      32.856 -10.981 -23.343  0.00  0.00    +0.221 C 
ATOM      7  C   UNL     1      32.374 -13.051 -22.627  0.00  0.00    +0.190 C 
ATOM      8  C   UNL     1      32.746 -14.314 -24.759  0.00  0.00    +0.029 C 
ATOM      9  H   UNL     1      33.440  -9.232 -24.137  0.00  0.00    +0.150 HD
ENDROOT
BRANCH   3  10
ATOM     10  C   UNL     1      32.009  -8.786 -22.649  0.00  0.00    +0.072 C 
ATOM     11  C   UNL     1      32.926  -7.872 -21.832  0.00  0.00    +0.020 C 
ATOM     12  C   UNL     1      30.978  -8.103 -23.561  0.00  0.00    +0.020 C 
ATOM     13  C   UNL     1      32.243  -7.008 -20.776  0.00  0.00    +0.002 C 
ATOM     14  C   UNL     1      31.493  -6.899 -24.358  0.00  0.00    +0.002 C 
ATOM     15  C   UNL     1      31.262  -5.939 -21.255  0.00  0.00    +0.000 C 
ATOM     16  C   UNL     1      31.082  -5.538 -23.791  0.00  0.00    +0.000 C 
ATOM     17  C   UNL     1      31.723  -5.124 -22.463  0.00  0.00    +0.000 C 
ENDBRANCH   3  10
BRANCH   5  18
ATOM     18  C   UNL     1      34.589 -14.148 -23.035  0.00  0.00    +0.027 C 
BRANCH  18  19
ATOM     19  C   UNL     1      34.580 -15.646 -23.320  0.00  0.00    +0.002 C 
ATOM     20  C   UNL     1      34.555 -16.454 -22.034  0.00  0.00    +0.000 C 
ENDBRANCH  18  19
ENDBRANCH   5  18
TORSDOF 3
ENDMDL
MODEL 2
REMARK VINA RESULT:      -8.0     15.058     16.856
REMARK  Name = 24866443
REMARK  3 active torsions:
REMARK  status: ('A' for Active; 'I' for Inactive)
REMARK    1  A    between atoms: N_3  and  C_10
REMARK    2  A    between atoms: C_5  and  C_18
REMARK    3  A    between atoms: C_18  and  C_19
REMARK                            x       y       z     vdW  Elec       q    Type
REMARK                         _______ _______ _______ _____ _____    ______ ____
ROOT
ATOM      1  S   UNL     1      35.909 -24.906 -12.276  0.00  0.00    -0.051 S 
ATOM      2  O   UNL     1      37.797 -22.914 -14.960  0.00  0.00    -0.213 OA
ATOM      3  N   UNL     1      33.633 -23.975 -13.234  0.00  0.00    -0.304 N 
ATOM      4  N   UNL     1      35.630 -23.288 -14.286  0.00  0.00    -0.314 NA
ATOM      5  C   UNL     1      37.458 -24.383 -13.077  0.00  0.00    +0.150 C 
ATOM      6  C   UNL     1      34.963 -23.947 -13.394  0.00  0.00    +0.221 C 
ATOM      7  C   UNL     1      36.997 -23.457 -14.202  0.00  0.00    +0.190 C 
ATOM      8  C   UNL     1      38.325 -23.620 -12.082  0.00  0.00    +0.029 C 
ATOM      9  H   UNL     1      33.256 -24.523 -12.510  0.00  0.00    +0.150 HD
ENDROOT
BRANCH   3  10
ATOM     10  C   UNL     1      32.724 -23.228 -14.091  0.00  0.00    +0.072 C 
ATOM     11  C   UNL     1      32.813 -23.822 -15.499  0.00  0.00    +0.020 C 
ATOM     12  C   UNL     1      31.338 -23.207 -13.430  0.00  0.00    +0.020 C 
ATOM     13  C   UNL     1      32.064 -23.066 -16.594  0.00  0.00    +0.002 C 
ATOM     14  C   UNL     1      30.503 -24.481 -13.599  0.00  0.00    +0.002 C 
ATOM     15  C   UNL     1      30.540 -22.995 -16.496  0.00  0.00    +0.000 C 
ATOM     16  C   UNL     1      29.399 -24.382 -14.654  0.00  0.00    +0.000 C 
ATOM     17  C   UNL     1      29.848 -24.303 -16.115  0.00  0.00    +0.000 C 
ENDBRANCH   3  10
BRANCH   5  18
ATOM     18  C   UNL     1      38.179 -25.597 -13.653  0.00  0.00    +0.027 C 
BRANCH  18  19
ATOM     19  C   UNL     1      39.692 -25.410 -13.624  0.00  0.00    +0.002 C 
ATOM     20  C   UNL     1      40.285 -25.472 -15.022  0.00  0.00    +0.000 C 
ENDBRANCH  18  19
ENDBRANCH   5  18
TORSDOF 3
ENDMDL
MODEL 3
REMARK VINA RESULT:      -7.7     14.876     17.189
REMARK  Name = 24866443
REMARK  3 active torsions:
REMARK  status: ('A' for Active; 'I' for Inactive)
REMARK    1  A    between atoms: N_3  and  C_10
REMARK    2  A    between atoms: C_5  and  C_18
REMARK    3  A    between atoms: C_18  and  C_19
REMARK                            x       y       z     vdW  Elec       q    Type
REMARK                         _______ _______ _______ _____ _____    ______ ____
ROOT
ATOM      1  S   UNL     1      31.201 -24.602 -13.858  0.00  0.00    -0.051 S 
ATOM      2  O   UNL     1      31.657 -22.705 -17.163  0.00  0.00    -0.213 OA
ATOM      3  N   UNL     1      33.800 -24.426 -13.437  0.00  0.00    -0.304 N 
ATOM      4  N   UNL     1      32.940 -23.469 -15.415  0.00  0.00    -0.314 NA
ATOM      5  C   UNL     1      30.524 -23.869 -15.381  0.00  0.00    +0.150 C 
ATOM      6  C   UNL     1      32.822 -24.106 -14.295  0.00  0.00    +0.221 C 
ATOM      7  C   UNL     1      31.748 -23.286 -16.085  0.00  0.00    +0.190 C 
ATOM      8  C   UNL     1      29.884 -24.954 -16.239  0.00  0.00    +0.029 C 
ATOM      9  H   UNL     1      33.568 -24.915 -12.616  0.00  0.00    +0.150 HD
ENDROOT
BRANCH   3  10
ATOM     10  C   UNL     1      35.194 -24.076 -13.671  0.00  0.00    +0.072 C 
ATOM     11  C   UNL     1      35.992 -24.474 -12.427  0.00  0.00    +0.020 C 
ATOM     12  C   UNL     1      35.634 -24.693 -15.007  0.00  0.00    +0.020 C 
ATOM     13  C   UNL     1      37.452 -24.032 -12.398  0.00  0.00    +0.002 C 
ATOM     14  C   UNL     1      35.980 -26.186 -14.966  0.00  0.00    +0.002 C 
ATOM     15  C   UNL     1      38.397 -24.621 -13.446  0.00  0.00    +0.000 C 
ATOM     16  C   UNL     1      37.479 -26.490 -14.958  0.00  0.00    +0.000 C 
ATOM     17  C   UNL     1      38.249 -26.123 -13.686  0.00  0.00    +0.000 C 
ENDBRANCH   3  10
BRANCH   5  18
ATOM     18  C   UNL     1      29.538 -22.761 -15.028  0.00  0.00    +0.027 C 
BRANCH  18  19
ATOM     19  C   UNL     1      28.591 -22.470 -16.187  0.00  0.00    +0.002 C 
ATOM     20  C   UNL     1      27.161 -22.290 -15.702  0.00  0.00    +0.000 C 
ENDBRANCH  18  19
ENDBRANCH   5  18
TORSDOF 3
ENDMDL
MODEL 4
REMARK VINA RESULT:      -7.6      7.244     12.753
REMARK  Name = 24866443
REMARK  3 active torsions:
REMARK  status: ('A' for Active; 'I' for Inactive)
REMARK    1  A    between atoms: N_3  and  C_10
REMARK    2  A    between atoms: C_5  and  C_18
REMARK    3  A    between atoms: C_18  and  C_19
REMARK                            x       y       z     vdW  Elec       q    Type
REMARK                         _______ _______ _______ _____ _____    ______ ____
ROOT
ATOM      1  S   UNL     1      33.383 -19.635 -20.973  0.00  0.00    -0.051 S 
ATOM      2  O   UNL     1      37.154 -18.962 -21.225  0.00  0.00    -0.213 OA
ATOM      3  N   UNL     1      33.885 -21.634 -19.324  0.00  0.00    -0.304 N 
ATOM      4  N   UNL     1      35.722 -20.416 -20.164  0.00  0.00    -0.314 NA
ATOM      5  C   UNL     1      34.792 -18.687 -21.630  0.00  0.00    +0.150 C 
ATOM      6  C   UNL     1      34.458 -20.670 -20.057  0.00  0.00    +0.221 C 
ATOM      7  C   UNL     1      36.013 -19.354 -20.997  0.00  0.00    +0.190 C 
ATOM      8  C   UNL     1      34.843 -18.819 -23.148  0.00  0.00    +0.029 C 
ATOM      9  H   UNL     1      32.904 -21.715 -19.334  0.00  0.00    +0.150 HD
ENDROOT
BRANCH   3  10
ATOM     10  C   UNL     1      34.655 -22.565 -18.513  0.00  0.00    +0.072 C 
ATOM     11  C   UNL     1      35.520 -21.745 -17.552  0.00  0.00    +0.020 C 
ATOM     12  C   UNL     1      33.687 -23.580 -17.886  0.00  0.00    +0.020 C 
ATOM     13  C   UNL     1      36.536 -22.532 -16.729  0.00  0.00    +0.002 C 
ATOM     14  C   UNL     1      32.919 -23.090 -16.653  0.00  0.00    +0.002 C 
ATOM     15  C   UNL     1      36.003 -23.543 -15.715  0.00  0.00    +0.000 C 
ATOM     16  C   UNL     1      33.461 -23.606 -15.319  0.00  0.00    +0.000 C 
ATOM     17  C   UNL     1      34.822 -23.063 -14.873  0.00  0.00    +0.000 C 
ENDBRANCH   3  10
BRANCH   5  18
ATOM     18  C   UNL     1      34.692 -17.233 -21.183  0.00  0.00    +0.027 C 
BRANCH  18  19
ATOM     19  C   UNL     1      34.935 -16.277 -22.345  0.00  0.00    +0.002 C 
ATOM     20  C   UNL     1      34.253 -14.938 -22.113  0.00  0.00    +0.000 C 
ENDBRANCH  18  19
ENDBRANCH   5  18
TORSDOF 3
ENDMDL
MODEL 5
REMARK VINA RESULT:      -7.5      7.498     10.207
REMARK  Name = 24866443
REMARK  3 active torsions:
REMARK  status: ('A' for Active; 'I' for Inactive)
REMARK    1  A    between atoms: N_3  and  C_10
REMARK    2  A    between atoms: C_5  and  C_18
REMARK    3  A    between atoms: C_18  and  C_19
REMARK                            x       y       z     vdW  Elec       q    Type
REMARK                         _______ _______ _______ _____ _____    ______ ____
ROOT
ATOM      1  S   UNL     1      35.800 -21.714 -19.862  0.00  0.00    -0.051 S 
ATOM      2  O   UNL     1      32.222 -21.936 -18.491  0.00  0.00    -0.213 OA
ATOM      3  N   UNL     1      35.146 -19.484 -21.114  0.00  0.00    -0.304 N 
ATOM      4  N   UNL     1      33.478 -20.556 -19.835  0.00  0.00    -0.314 NA
ATOM      5  C   UNL     1      34.522 -22.552 -18.872  0.00  0.00    +0.150 C 
ATOM      6  C   UNL     1      34.676 -20.451 -20.313  0.00  0.00    +0.221 C 
ATOM      7  C   UNL     1      33.289 -21.665 -19.036  0.00  0.00    +0.190 C 
ATOM      8  C   UNL     1      34.256 -23.942 -19.439  0.00  0.00    +0.029 C 
ATOM      9  H   UNL     1      36.084 -19.528 -21.405  0.00  0.00    +0.150 HD
ENDROOT
BRANCH   3  10
ATOM     10  C   UNL     1      34.324 -18.372 -21.567  0.00  0.00    +0.072 C 
ATOM     11  C   UNL     1      35.070 -17.075 -21.242  0.00  0.00    +0.020 C 
ATOM     12  C   UNL     1      33.949 -18.610 -23.037  0.00  0.00    +0.020 C 
ATOM     13  C   UNL     1      34.298 -15.780 -21.480  0.00  0.00    +0.002 C 
ATOM     14  C   UNL     1      35.036 -18.268 -24.063  0.00  0.00    +0.002 C 
ATOM     15  C   UNL     1      33.906 -15.438 -22.917  0.00  0.00    +0.000 C 
ATOM     16  C   UNL     1      34.826 -16.940 -24.793  0.00  0.00    +0.000 C 
ATOM     17  C   UNL     1      34.997 -15.665 -23.963  0.00  0.00    +0.000 C 
ENDBRANCH   3  10
BRANCH   5  18
ATOM     18  C   UNL     1      34.950 -22.601 -17.410  0.00  0.00    +0.027 C 
BRANCH  18  19
ATOM     19  C   UNL     1      36.352 -22.034 -17.221  0.00  0.00    +0.002 C 
ATOM     20  C   UNL     1      37.073 -22.711 -16.067  0.00  0.00    +0.000 C 
ENDBRANCH  18  19
ENDBRANCH   5  18
TORSDOF 3
ENDMDL
MODEL 6
REMARK VINA RESULT:      -7.5      2.032      7.441
REMARK  Name = 24866443
REMARK  3 active torsions:
REMARK  status: ('A' for Active; 'I' for Inactive)
REMARK    1  A    between atoms: N_3  and  C_10
REMARK    2  A    between atoms: C_5  and  C_18
REMARK    3  A    between atoms: C_18  and  C_19
REMARK                            x       y       z     vdW  Elec       q    Type
REMARK                         _______ _______ _______ _____ _____    ______ ____
ROOT
ATOM      1  S   UNL     1      31.210  -9.975 -22.541  0.00  0.00    -0.051 S 
ATOM      2  O   UNL     1      34.194  -7.962 -23.876  0.00  0.00    -0.213 OA
ATOM      3  N   UNL     1      32.589 -12.196 -22.907  0.00  0.00    -0.304 N 
ATOM      4  N   UNL     1      33.624 -10.154 -23.478  0.00  0.00    -0.314 NA
ATOM      5  C   UNL     1      31.997  -8.392 -22.978  0.00  0.00    +0.150 C 
ATOM      6  C   UNL     1      32.637 -10.863 -23.032  0.00  0.00    +0.221 C 
ATOM      7  C   UNL     1      33.379  -8.796 -23.489  0.00  0.00    +0.190 C 
ATOM      8  C   UNL     1      31.202  -7.706 -24.083  0.00  0.00    +0.029 C 
ATOM      9  H   UNL     1      31.769 -12.608 -22.551  0.00  0.00    +0.150 HD
ENDROOT
BRANCH   3  10
ATOM     10  C   UNL     1      33.701 -13.059 -23.276  0.00  0.00    +0.072 C 
ATOM     11  C   UNL     1      33.510 -14.400 -22.561  0.00  0.00    +0.020 C 
ATOM     12  C   UNL     1      33.803 -13.096 -24.808  0.00  0.00    +0.020 C 
ATOM     13  C   UNL     1      34.665 -15.391 -22.676  0.00  0.00    +0.002 C 
ATOM     14  C   UNL     1      32.807 -14.020 -25.517  0.00  0.00    +0.002 C 
ATOM     15  C   UNL     1      34.996 -15.942 -24.063  0.00  0.00    +0.000 C 
ATOM     16  C   UNL     1      33.399 -15.348 -25.992  0.00  0.00    +0.000 C 
ATOM     17  C   UNL     1      33.790 -16.355 -24.906  0.00  0.00    +0.000 C 
ENDBRANCH   3  10
BRANCH   5  18
ATOM     18  C   UNL     1      32.126  -7.518 -21.736  0.00  0.00    +0.027 C 
BRANCH  18  19
ATOM     19  C   UNL     1      31.985  -6.039 -22.080  0.00  0.00    +0.002 C 
ATOM     20  C   UNL     1      30.735  -5.442 -21.455  0.00  0.00    +0.000 C 
ENDBRANCH  18  19
ENDBRANCH   5  18
TORSDOF 3
ENDMDL
MODEL 7
REMARK VINA RESULT:      -7.5     14.794     16.640
REMARK  Name = 24866443
REMARK  3 active torsions:
REMARK  status: ('A' for Active; 'I' for Inactive)
REMARK    1  A    between atoms: N_3  and  C_10
REMARK    2  A    between atoms: C_5  and  C_18
REMARK    3  A    between atoms: C_18  and  C_19
REMARK                            x       y       z     vdW  Elec       q    Type
REMARK                         _______ _______ _______ _____ _____    ______ ____
ROOT
ATOM      1  S   UNL     1      35.816 -25.407 -14.936  0.00  0.00    -0.051 S 
ATOM      2  O   UNL     1      36.238 -23.203 -11.822  0.00  0.00    -0.213 OA
ATOM      3  N   UNL     1      33.390 -24.421 -15.264  0.00  0.00    -0.304 N 
ATOM      4  N   UNL     1      34.653 -23.642 -13.430  0.00  0.00    -0.314 NA
ATOM      5  C   UNL     1      36.802 -24.816 -13.524  0.00  0.00    +0.150 C 
ATOM      6  C   UNL     1      34.479 -24.372 -14.485  0.00  0.00    +0.221 C 
ATOM      7  C   UNL     1      35.886 -23.808 -12.831  0.00  0.00    +0.190 C 
ATOM      8  C   UNL     1      37.116 -25.977 -12.589  0.00  0.00    +0.029 C 
ATOM      9  H   UNL     1      33.392 -25.025 -16.041  0.00  0.00    +0.150 HD
ENDROOT
BRANCH   3  10
ATOM     10  C   UNL     1      32.205 -23.615 -15.009  0.00  0.00    +0.072 C 
ATOM     11  C   UNL     1      31.555 -23.298 -16.357  0.00  0.00    +0.020 C 
ATOM     12  C   UNL     1      31.337 -24.340 -13.970  0.00  0.00    +0.020 C 
ATOM     13  C   UNL     1      30.390 -22.312 -16.324  0.00  0.00    +0.002 C 
ATOM     14  C   UNL     1      30.479 -25.491 -14.510  0.00  0.00    +0.002 C 
ATOM     15  C   UNL     1      29.123 -22.730 -15.578  0.00  0.00    +0.000 C 
ATOM     16  C   UNL     1      29.001 -25.146 -14.700  0.00  0.00    +0.000 C 
ATOM     17  C   UNL     1      28.663 -24.165 -15.827  0.00  0.00    +0.000 C 
ENDBRANCH   3  10
BRANCH   5  18
ATOM     18  C   UNL     1      38.065 -24.126 -14.027  0.00  0.00    +0.027 C 
BRANCH  18  19
ATOM     19  C   UNL     1      37.971 -23.810 -15.516  0.00  0.00    +0.002 C 
ATOM     20  C   UNL     1      37.473 -22.393 -15.751  0.00  0.00    +0.000 C 
ENDBRANCH  18  19
ENDBRANCH   5  18
TORSDOF 3
ENDMDL
MODEL 8
REMARK VINA RESULT:      -7.5      2.308      7.498
REMARK  Name = 24866443
REMARK  3 active torsions:
REMARK  status: ('A' for Active; 'I' for Inactive)
REMARK    1  A    between atoms: N_3  and  C_10
REMARK    2  A    between atoms: C_5  and  C_18
REMARK    3  A    between atoms: C_18  and  C_19
REMARK                            x       y       z     vdW  Elec       q    Type
REMARK                         _______ _______ _______ _____ _____    ______ ____
ROOT
ATOM      1  S   UNL     1      34.623  -8.906 -23.654  0.00  0.00    -0.051 S 
ATOM      2  O   UNL     1      30.860  -8.204 -23.357  0.00  0.00    -0.213 OA
ATOM      3  N   UNL     1      34.068 -11.363 -24.441  0.00  0.00    -0.304 N 
ATOM      4  N   UNL     1      32.258  -9.934 -23.944  0.00  0.00    -0.314 NA
ATOM      5  C   UNL     1      33.235  -7.793 -23.266  0.00  0.00    +0.150 C 
ATOM      6  C   UNL     1      33.519 -10.204 -24.055  0.00  0.00    +0.221 C 
ATOM      7  C   UNL     1      31.994  -8.647 -23.522  0.00  0.00    +0.190 C 
ATOM      8  C   UNL     1      33.300  -7.375 -21.802  0.00  0.00    +0.029 C 
ATOM      9  H   UNL     1      35.048 -11.431 -24.482  0.00  0.00    +0.150 HD
ENDROOT
BRANCH   3  10
ATOM     10  C   UNL     1      33.271 -12.526 -24.805  0.00  0.00    +0.072 C 
ATOM     11  C   UNL     1      33.849 -13.103 -26.100  0.00  0.00    +0.020 C 
ATOM     12  C   UNL     1      33.201 -13.467 -23.594  0.00  0.00    +0.020 C 
ATOM     13  C   UNL     1      33.047 -14.229 -26.748  0.00  0.00    +0.002 C 
ATOM     14  C   UNL     1      34.437 -14.344 -23.363  0.00  0.00    +0.002 C 
ATOM     15  C   UNL     1      32.914 -15.543 -25.979  0.00  0.00    +0.000 C 
ATOM     16  C   UNL     1      34.278 -15.798 -23.812  0.00  0.00    +0.000 C 
ATOM     17  C   UNL     1      34.197 -16.047 -25.321  0.00  0.00    +0.000 C 
ENDBRANCH   3  10
BRANCH   5  18
ATOM     18  C   UNL     1      33.255  -6.593 -24.207  0.00  0.00    +0.027 C 
BRANCH  18  19
ATOM     19  C   UNL     1      34.537  -6.554 -25.031  0.00  0.00    +0.002 C 
ATOM     20  C   UNL     1      34.412  -5.598 -26.206  0.00  0.00    +0.000 C 
ENDBRANCH  18  19
ENDBRANCH   5  18
TORSDOF 3
ENDMDL
MODEL 9
REMARK VINA RESULT:      -7.4     15.267     17.221
REMARK  Name = 24866443
REMARK  3 active torsions:
REMARK  status: ('A' for Active; 'I' for Inactive)
REMARK    1  A    between atoms: N_3  and  C_10
REMARK    2  A    between atoms: C_5  and  C_18
REMARK    3  A    between atoms: C_18  and  C_19
REMARK                            x       y       z     vdW  Elec       q    Type
REMARK                         _______ _______ _______ _____ _____    ______ ____
ROOT
ATOM      1  S   UNL     1      32.478 -23.400 -16.179  0.00  0.00    -0.051 S 
ATOM      2  O   UNL     1      30.993 -24.561 -12.836  0.00  0.00    -0.213 OA
ATOM      3  N   UNL     1      34.896 -23.849 -15.222  0.00  0.00    -0.304 N 
ATOM      4  N   UNL     1      33.058 -24.289 -13.811  0.00  0.00    -0.314 NA
ATOM      5  C   UNL     1      31.050 -23.734 -15.101  0.00  0.00    +0.150 C 
ATOM      6  C   UNL     1      33.591 -23.904 -14.926  0.00  0.00    +0.221 C 
ATOM      7  C   UNL     1      31.678 -24.236 -13.802  0.00  0.00    +0.190 C 
ATOM      8  C   UNL     1      30.275 -22.446 -14.853  0.00  0.00    +0.029 C 
ATOM      9  H   UNL     1      35.165 -23.534 -16.115  0.00  0.00    +0.150 HD
ENDROOT
BRANCH   3  10
ATOM     10  C   UNL     1      35.933 -24.238 -14.277  0.00  0.00    +0.072 C 
ATOM     11  C   UNL     1      36.236 -25.722 -14.498  0.00  0.00    +0.020 C 
ATOM     12  C   UNL     1      37.109 -23.259 -14.413  0.00  0.00    +0.020 C 
ATOM     13  C   UNL     1      37.175 -26.372 -13.487  0.00  0.00    +0.002 C 
ATOM     14  C   UNL     1      38.048 -23.511 -15.598  0.00  0.00    +0.002 C 
ATOM     15  C   UNL     1      38.619 -25.873 -13.431  0.00  0.00    +0.000 C 
ATOM     16  C   UNL     1      39.368 -24.192 -15.230  0.00  0.00    +0.000 C 
ATOM     17  C   UNL     1      39.287 -25.656 -14.788  0.00  0.00    +0.000 C 
ENDBRANCH   3  10
BRANCH   5  18
ATOM     18  C   UNL     1      30.176 -24.819 -15.720  0.00  0.00    +0.027 C 
BRANCH  18  19
ATOM     19  C   UNL     1      28.699 -24.447 -15.656  0.00  0.00    +0.002 C 
ATOM     20  C   UNL     1      28.164 -24.062 -17.026  0.00  0.00    +0.000 C 
ENDBRANCH  18  19
ENDBRANCH   5  18
TORSDOF 3
ENDMDL
