MODEL 1
REMARK VINA RESULT:      -5.5      0.000      0.000
REMARK  Name = 5289457
REMARK  5 active torsions:
REMARK  status: ('A' for Active; 'I' for Inactive)
REMARK    1  A    between atoms: C_1  and  C_4
REMARK    2  A    between atoms: C_1  and  C_6
REMARK    3  A    between atoms: C_1  and  O_10
REMARK    4  A    between atoms: C_6  and  C_7
REMARK    5  A    between atoms: C_7  and  O_8
REMARK                            x       y       z     vdW  Elec       q    Type
REMARK                         _______ _______ _______ _____ _____    ______ ____
ROOT
ATOM      1  C   UNL     1      37.912 -25.108 -14.477  0.00  0.00    +0.225 C 
ENDROOT
BRANCH   1   4
ATOM      2  O   UNL     1      37.255 -27.175 -13.562  0.00  0.00    -0.243 OA
ATOM      3  O   UNL     1      37.236 -26.935 -15.834  0.00  0.00    -0.243 OA
ATOM      4  C   UNL     1      37.419 -26.545 -14.646  0.00  0.00    +0.392 C 
ENDBRANCH   1   4
BRANCH   1   5
ATOM      5  O   UNL     1      37.751 -24.413 -15.710  0.00  0.00    -0.374 OA
ATOM      6  H   UNL     1      37.009 -24.797 -16.203  0.00  0.00    +0.211 HD
ENDBRANCH   1   5
BRANCH   1   7
ATOM      7  C   UNL     1      39.377 -25.162 -14.144  0.00  0.00    +0.150 C 
BRANCH   7   9
ATOM      8  O   UNL     1      41.156 -26.661 -14.131  0.00  0.00    -0.250 OA
ATOM      9  C   UNL     1      40.316 -25.936 -14.737  0.00  0.00    +0.317 C 
BRANCH   9  10
ATOM     10  O   UNL     1      40.278 -25.870 -16.140  0.00  0.00    -0.480 OA
ATOM     11  H   UNL     1      40.994 -26.201 -16.644  0.00  0.00    +0.295 HD
ENDBRANCH   9  10
ENDBRANCH   7   9
ENDBRANCH   1   7
TORSDOF 5
ENDMDL
MODEL 2
REMARK VINA RESULT:      -5.5      0.911      1.461
REMARK  Name = 5289457
REMARK  5 active torsions:
REMARK  status: ('A' for Active; 'I' for Inactive)
REMARK    1  A    between atoms: C_1  and  C_4
REMARK    2  A    between atoms: C_1  and  C_6
REMARK    3  A    between atoms: C_1  and  O_10
REMARK    4  A    between atoms: C_6  and  C_7
REMARK    5  A    between atoms: C_7  and  O_8
REMARK                            x       y       z     vdW  Elec       q    Type
REMARK                         _______ _______ _______ _____ _____    ______ ____
ROOT
ATOM      1  C   UNL     1      38.056 -25.066 -14.174  0.00  0.00    +0.225 C 
ENDROOT
BRANCH   1   4
ATOM      2  O   UNL     1      37.219 -27.241 -13.832  0.00  0.00    -0.243 OA
ATOM      3  O   UNL     1      37.667 -25.948 -12.003  0.00  0.00    -0.243 OA
ATOM      4  C   UNL     1      37.605 -26.191 -13.241  0.00  0.00    +0.392 C 
ENDBRANCH   1   4
BRANCH   1   5
ATOM      5  O   UNL     1      37.627 -25.362 -15.500  0.00  0.00    -0.374 OA
ATOM      6  H   UNL     1      37.210 -26.238 -15.517  0.00  0.00    +0.211 HD
ENDBRANCH   1   5
BRANCH   1   7
ATOM      7  C   UNL     1      39.557 -25.026 -14.151  0.00  0.00    +0.150 C 
BRANCH   7   9
ATOM      8  O   UNL     1      41.168 -26.704 -14.095  0.00  0.00    -0.250 OA
ATOM      9  C   UNL     1      40.402 -25.917 -14.721  0.00  0.00    +0.317 C 
BRANCH   9  10
ATOM     10  O   UNL     1      40.354 -25.900 -16.126  0.00  0.00    -0.480 OA
ATOM     11  H   UNL     1      40.384 -26.703 -16.605  0.00  0.00    +0.295 HD
ENDBRANCH   9  10
ENDBRANCH   7   9
ENDBRANCH   1   7
TORSDOF 5
ENDMDL
MODEL 3
REMARK VINA RESULT:      -5.4      1.717      3.618
REMARK  Name = 5289457
REMARK  5 active torsions:
REMARK  status: ('A' for Active; 'I' for Inactive)
REMARK    1  A    between atoms: C_1  and  C_4
REMARK    2  A    between atoms: C_1  and  C_6
REMARK    3  A    between atoms: C_1  and  O_10
REMARK    4  A    between atoms: C_6  and  C_7
REMARK    5  A    between atoms: C_7  and  O_8
REMARK                            x       y       z     vdW  Elec       q    Type
REMARK                         _______ _______ _______ _____ _____    ______ ____
ROOT
ATOM      1  C   UNL     1      38.882 -25.788 -14.454  0.00  0.00    +0.225 C 
ENDROOT
BRANCH   1   4
ATOM      2  O   UNL     1      40.671 -26.115 -15.950  0.00  0.00    -0.243 OA
ATOM      3  O   UNL     1      40.928 -24.596 -14.263  0.00  0.00    -0.243 OA
ATOM      4  C   UNL     1      40.298 -25.464 -14.932  0.00  0.00    +0.392 C 
ENDBRANCH   1   4
BRANCH   1   5
ATOM      5  O   UNL     1      37.946 -25.077 -15.259  0.00  0.00    -0.374 OA
ATOM      6  H   UNL     1      37.214 -25.666 -15.501  0.00  0.00    +0.211 HD
ENDBRANCH   1   5
BRANCH   1   7
ATOM      7  C   UNL     1      38.757 -25.310 -13.035  0.00  0.00    +0.150 C 
BRANCH   7   9
ATOM      8  O   UNL     1      37.449 -24.675 -11.219  0.00  0.00    -0.250 OA
ATOM      9  C   UNL     1      37.657 -25.377 -12.250  0.00  0.00    +0.317 C 
BRANCH   9  10
ATOM     10  O   UNL     1      36.722 -26.329 -12.693  0.00  0.00    -0.480 OA
ATOM     11  H   UNL     1      36.274 -26.202 -13.505  0.00  0.00    +0.295 HD
ENDBRANCH   9  10
ENDBRANCH   7   9
ENDBRANCH   1   7
TORSDOF 5
ENDMDL
MODEL 4
REMARK VINA RESULT:      -5.3      2.255      3.754
REMARK  Name = 5289457
REMARK  5 active torsions:
REMARK  status: ('A' for Active; 'I' for Inactive)
REMARK    1  A    between atoms: C_1  and  C_4
REMARK    2  A    between atoms: C_1  and  C_6
REMARK    3  A    between atoms: C_1  and  O_10
REMARK    4  A    between atoms: C_6  and  C_7
REMARK    5  A    between atoms: C_7  and  O_8
REMARK                            x       y       z     vdW  Elec       q    Type
REMARK                         _______ _______ _______ _____ _____    ______ ____
ROOT
ATOM      1  C   UNL     1      36.852 -25.118 -12.731  0.00  0.00    +0.225 C 
ENDROOT
BRANCH   1   4
ATOM      2  O   UNL     1      39.133 -24.589 -12.980  0.00  0.00    -0.243 OA
ATOM      3  O   UNL     1      37.944 -23.532 -11.340  0.00  0.00    -0.243 OA
ATOM      4  C   UNL     1      38.094 -24.333 -12.306  0.00  0.00    +0.392 C 
ENDBRANCH   1   4
BRANCH   1   5
ATOM      5  O   UNL     1      36.897 -26.414 -12.142  0.00  0.00    -0.374 OA
ATOM      6  H   UNL     1      35.993 -26.735 -11.996  0.00  0.00    +0.211 HD
ENDBRANCH   1   5
BRANCH   1   7
ATOM      7  C   UNL     1      36.894 -25.267 -14.225  0.00  0.00    +0.150 C 
BRANCH   7   9
ATOM      8  O   UNL     1      36.268 -26.879 -15.781  0.00  0.00    -0.250 OA
ATOM      9  C   UNL     1      37.070 -26.414 -14.922  0.00  0.00    +0.317 C 
BRANCH   9  10
ATOM     10  O   UNL     1      38.270 -27.073 -14.604  0.00  0.00    -0.480 OA
ATOM     11  H   UNL     1      39.006 -26.583 -14.296  0.00  0.00    +0.295 HD
ENDBRANCH   9  10
ENDBRANCH   7   9
ENDBRANCH   1   7
TORSDOF 5
ENDMDL
MODEL 5
REMARK VINA RESULT:      -5.2      1.224      1.443
REMARK  Name = 5289457
REMARK  5 active torsions:
REMARK  status: ('A' for Active; 'I' for Inactive)
REMARK    1  A    between atoms: C_1  and  C_4
REMARK    2  A    between atoms: C_1  and  C_6
REMARK    3  A    between atoms: C_1  and  O_10
REMARK    4  A    between atoms: C_6  and  C_7
REMARK    5  A    between atoms: C_7  and  O_8
REMARK                            x       y       z     vdW  Elec       q    Type
REMARK                         _______ _______ _______ _____ _____    ______ ____
ROOT
ATOM      1  C   UNL     1      37.715 -25.193 -14.146  0.00  0.00    +0.225 C 
ENDROOT
BRANCH   1   4
ATOM      2  O   UNL     1      37.301 -26.883 -15.733  0.00  0.00    -0.243 OA
ATOM      3  O   UNL     1      35.749 -25.225 -15.479  0.00  0.00    -0.243 OA
ATOM      4  C   UNL     1      36.832 -25.825 -15.223  0.00  0.00    +0.392 C 
ENDBRANCH   1   4
BRANCH   1   5
ATOM      5  O   UNL     1      37.893 -23.811 -14.442  0.00  0.00    -0.374 OA
ATOM      6  H   UNL     1      37.829 -23.675 -15.401  0.00  0.00    +0.211 HD
ENDBRANCH   1   5
BRANCH   1   7
ATOM      7  C   UNL     1      39.054 -25.871 -14.196  0.00  0.00    +0.150 C 
BRANCH   7   9
ATOM      8  O   UNL     1      40.986 -24.578 -14.281  0.00  0.00    -0.250 OA
ATOM      9  C   UNL     1      40.179 -25.407 -14.790  0.00  0.00    +0.317 C 
BRANCH   9  10
ATOM     10  O   UNL     1      40.388 -25.947 -16.071  0.00  0.00    -0.480 OA
ATOM     11  H   UNL     1      40.459 -26.873 -16.182  0.00  0.00    +0.295 HD
ENDBRANCH   9  10
ENDBRANCH   7   9
ENDBRANCH   1   7
TORSDOF 5
ENDMDL
MODEL 6
REMARK VINA RESULT:      -5.2      2.569      3.298
REMARK  Name = 5289457
REMARK  5 active torsions:
REMARK  status: ('A' for Active; 'I' for Inactive)
REMARK    1  A    between atoms: C_1  and  C_4
REMARK    2  A    between atoms: C_1  and  C_6
REMARK    3  A    between atoms: C_1  and  O_10
REMARK    4  A    between atoms: C_6  and  C_7
REMARK    5  A    between atoms: C_7  and  O_8
REMARK                            x       y       z     vdW  Elec       q    Type
REMARK                         _______ _______ _______ _____ _____    ______ ____
ROOT
ATOM      1  C   UNL     1      37.667 -25.017 -12.686  0.00  0.00    +0.225 C 
ENDROOT
BRANCH   1   4
ATOM      2  O   UNL     1      36.757 -24.102 -10.716  0.00  0.00    -0.243 OA
ATOM      3  O   UNL     1      38.532 -23.042 -11.689  0.00  0.00    -0.243 OA
ATOM      4  C   UNL     1      37.655 -23.948 -11.593  0.00  0.00    +0.392 C 
ENDBRANCH   1   4
BRANCH   1   5
ATOM      5  O   UNL     1      37.293 -26.268 -12.116  0.00  0.00    -0.374 OA
ATOM      6  H   UNL     1      38.087 -26.734 -11.809  0.00  0.00    +0.211 HD
ENDBRANCH   1   5
BRANCH   1   7
ATOM      7  C   UNL     1      39.072 -25.126 -13.205  0.00  0.00    +0.150 C 
BRANCH   7   9
ATOM      8  O   UNL     1      38.853 -26.855 -14.746  0.00  0.00    -0.250 OA
ATOM      9  C   UNL     1      39.504 -25.905 -14.224  0.00  0.00    +0.317 C 
BRANCH   9  10
ATOM     10  O   UNL     1      40.788 -25.556 -14.678  0.00  0.00    -0.480 OA
ATOM     11  H   UNL     1      41.395 -26.225 -14.923  0.00  0.00    +0.295 HD
ENDBRANCH   9  10
ENDBRANCH   7   9
ENDBRANCH   1   7
TORSDOF 5
ENDMDL
MODEL 7
REMARK VINA RESULT:      -5.1     10.915     11.742
REMARK  Name = 5289457
REMARK  5 active torsions:
REMARK  status: ('A' for Active; 'I' for Inactive)
REMARK    1  A    between atoms: C_1  and  C_4
REMARK    2  A    between atoms: C_1  and  C_6
REMARK    3  A    between atoms: C_1  and  O_10
REMARK    4  A    between atoms: C_6  and  C_7
REMARK    5  A    between atoms: C_7  and  O_8
REMARK                            x       y       z     vdW  Elec       q    Type
REMARK                         _______ _______ _______ _____ _____    ______ ____
ROOT
ATOM      1  C   UNL     1      42.490 -14.964 -16.789  0.00  0.00    +0.225 C 
ENDROOT
BRANCH   1   4
ATOM      2  O   UNL     1      40.947 -14.336 -18.453  0.00  0.00    -0.243 OA
ATOM      3  O   UNL     1      42.121 -16.276 -18.734  0.00  0.00    -0.243 OA
ATOM      4  C   UNL     1      41.787 -15.221 -18.123  0.00  0.00    +0.392 C 
ENDBRANCH   1   4
BRANCH   1   5
ATOM      5  O   UNL     1      42.788 -16.213 -16.173  0.00  0.00    -0.374 OA
ATOM      6  H   UNL     1      41.966 -16.711 -16.034  0.00  0.00    +0.211 HD
ENDBRANCH   1   5
BRANCH   1   7
ATOM      7  C   UNL     1      41.536 -14.209 -15.907  0.00  0.00    +0.150 C 
BRANCH   7   9
ATOM      8  O   UNL     1      40.810 -14.183 -13.697  0.00  0.00    -0.250 OA
ATOM      9  C   UNL     1      40.845 -14.698 -14.851  0.00  0.00    +0.317 C 
BRANCH   9  10
ATOM     10  O   UNL     1      40.137 -15.874 -15.154  0.00  0.00    -0.480 OA
ATOM     11  H   UNL     1      39.205 -15.894 -15.071  0.00  0.00    +0.295 HD
ENDBRANCH   9  10
ENDBRANCH   7   9
ENDBRANCH   1   7
TORSDOF 5
ENDMDL
MODEL 8
REMARK VINA RESULT:      -5.1      3.364      4.476
REMARK  Name = 5289457
REMARK  5 active torsions:
REMARK  status: ('A' for Active; 'I' for Inactive)
REMARK    1  A    between atoms: C_1  and  C_4
REMARK    2  A    between atoms: C_1  and  C_6
REMARK    3  A    between atoms: C_1  and  O_10
REMARK    4  A    between atoms: C_6  and  C_7
REMARK    5  A    between atoms: C_7  and  O_8
REMARK                            x       y       z     vdW  Elec       q    Type
REMARK                         _______ _______ _______ _____ _____    ______ ____
ROOT
ATOM      1  C   UNL     1      35.716 -23.974 -12.201  0.00  0.00    +0.225 C 
ENDROOT
BRANCH   1   4
ATOM      2  O   UNL     1      37.383 -22.705 -11.127  0.00  0.00    -0.243 OA
ATOM      3  O   UNL     1      36.176 -24.191  -9.881  0.00  0.00    -0.243 OA
ATOM      4  C   UNL     1      36.498 -23.589 -10.944  0.00  0.00    +0.392 C 
ENDBRANCH   1   4
BRANCH   1   5
ATOM      5  O   UNL     1      34.764 -24.980 -11.865  0.00  0.00    -0.374 OA
ATOM      6  H   UNL     1      35.228 -25.798 -11.626  0.00  0.00    +0.211 HD
ENDBRANCH   1   5
BRANCH   1   7
ATOM      7  C   UNL     1      36.691 -24.546 -13.190  0.00  0.00    +0.150 C 
BRANCH   7   9
ATOM      8  O   UNL     1      38.775 -25.562 -13.000  0.00  0.00    -0.250 OA
ATOM      9  C   UNL     1      37.512 -25.606 -13.002  0.00  0.00    +0.317 C 
BRANCH   9  10
ATOM     10  O   UNL     1      36.817 -26.810 -12.795  0.00  0.00    -0.480 OA
ATOM     11  H   UNL     1      35.903 -26.862 -12.988  0.00  0.00    +0.295 HD
ENDBRANCH   9  10
ENDBRANCH   7   9
ENDBRANCH   1   7
TORSDOF 5
ENDMDL
MODEL 9
REMARK VINA RESULT:      -5.1      2.112      3.474
REMARK  Name = 5289457
REMARK  5 active torsions:
REMARK  status: ('A' for Active; 'I' for Inactive)
REMARK    1  A    between atoms: C_1  and  C_4
REMARK    2  A    between atoms: C_1  and  C_6
REMARK    3  A    between atoms: C_1  and  O_10
REMARK    4  A    between atoms: C_6  and  C_7
REMARK    5  A    between atoms: C_7  and  O_8
REMARK                            x       y       z     vdW  Elec       q    Type
REMARK                         _______ _______ _______ _____ _____    ______ ____
ROOT
ATOM      1  C   UNL     1      37.787 -26.022 -14.440  0.00  0.00    +0.225 C 
ENDROOT
BRANCH   1   4
ATOM      2  O   UNL     1      35.673 -25.509 -15.342  0.00  0.00    -0.243 OA
ATOM      3  O   UNL     1      36.768 -27.358 -16.119  0.00  0.00    -0.243 OA
ATOM      4  C   UNL     1      36.634 -26.330 -15.396  0.00  0.00    +0.392 C 
ENDBRANCH   1   4
BRANCH   1   5
ATOM      5  O   UNL     1      38.870 -26.905 -14.719  0.00  0.00    -0.374 OA
ATOM      6  H   UNL     1      38.819 -27.675 -14.131  0.00  0.00    +0.211 HD
ENDBRANCH   1   5
BRANCH   1   7
ATOM      7  C   UNL     1      37.304 -26.280 -13.041  0.00  0.00    +0.150 C 
BRANCH   7   9
ATOM      8  O   UNL     1      37.567 -24.726 -11.330  0.00  0.00    -0.250 OA
ATOM      9  C   UNL     1      36.852 -25.362 -12.155  0.00  0.00    +0.317 C 
BRANCH   9  10
ATOM     10  O   UNL     1      35.463 -25.160 -12.234  0.00  0.00    -0.480 OA
ATOM     11  H   UNL     1      34.904 -25.854 -12.520  0.00  0.00    +0.295 HD
ENDBRANCH   9  10
ENDBRANCH   7   9
ENDBRANCH   1   7
TORSDOF 5
ENDMDL
