MODEL 1
REMARK VINA RESULT:     -10.5      0.000      0.000
REMARK  Name = 24316
REMARK  3 active torsions:
REMARK  status: ('A' for Active; 'I' for Inactive)
REMARK    1  A    between atoms: N_2  and  C_23
REMARK    2  A    between atoms: P_15  and  O_27
REMARK    3  A    between atoms: C_22  and  O_25
REMARK                            x       y       z     vdW  Elec       q    Type
REMARK                         _______ _______ _______ _____ _____    ______ ____
ROOT
ATOM      1  O   UNL     1      32.649 -23.114 -18.325  0.00  0.00    -0.208 OA
ATOM      2  N   UNL     1      34.423 -19.775 -20.800  0.00  0.00    -0.207 NA
ATOM      3  N   UNL     1      35.922 -20.897 -19.249  0.00  0.00    -0.279 N 
ATOM      4  N   UNL     1      32.576 -20.962 -20.339  0.00  0.00    -0.241 NA
ATOM      5  N   UNL     1      34.894 -22.656 -17.977  0.00  0.00    -0.301 NA
ATOM      6  N   UNL     1      37.168 -22.096 -17.715  0.00  0.00    -0.320 N 
ATOM      7  C   UNL     1      34.750 -20.682 -19.851  0.00  0.00    +0.191 C 
ATOM      8  C   UNL     1      33.089 -19.983 -21.065  0.00  0.00    +0.205 C 
ATOM      9  C   UNL     1      33.622 -21.399 -19.576  0.00  0.00    +0.183 C 
ATOM     10  C   UNL     1      33.649 -22.458 -18.587  0.00  0.00    +0.224 C 
ATOM     11  C   UNL     1      35.940 -21.918 -18.299  0.00  0.00    +0.245 C 
ATOM     12  H   UNL     1      36.724 -20.368 -19.462  0.00  0.00    +0.152 HD
ATOM     13  H   UNL     1      37.926 -21.527 -17.979  0.00  0.00    +0.146 HD
ATOM     14  H   UNL     1      37.291 -22.793 -17.029  0.00  0.00    +0.146 HD
ENDROOT
BRANCH   2  23
ATOM     15  P   UNL     1      33.715 -14.472 -23.014  0.00  0.00    +0.476 P 
ATOM     16  O   UNL     1      35.394 -17.613 -20.564  0.00  0.00    -0.336 OA
ATOM     17  O   UNL     1      34.118 -15.981 -23.474  0.00  0.00    -0.271 OA
ATOM     18  O   UNL     1      34.547 -14.190 -21.648  0.00  0.00    -0.271 OA
ATOM     19  O   UNL     1      33.915 -13.432 -24.079  0.00  0.00    -0.227 OA
ATOM     20  C   UNL     1      34.207 -16.933 -22.439  0.00  0.00    +0.186 C 
ATOM     21  C   UNL     1      35.203 -16.470 -21.396  0.00  0.00    +0.177 C 
ATOM     22  C   UNL     1      34.771 -18.289 -22.797  0.00  0.00    +0.184 C 
ATOM     23  C   UNL     1      35.287 -18.775 -21.430  0.00  0.00    +0.209 C 
ATOM     24  C   UNL     1      34.688 -15.235 -20.685  0.00  0.00    +0.186 C 
BRANCH  22  25
ATOM     25  O   UNL     1      35.869 -18.142 -23.693  0.00  0.00    -0.378 OA
ATOM     26  H   UNL     1      36.205 -19.019 -23.937  0.00  0.00    +0.211 HD
ENDBRANCH  22  25
BRANCH  15  27
ATOM     27  O   UNL     1      32.179 -14.601 -22.517  0.00  0.00    -0.302 OA
ATOM     28  H   UNL     1      31.731 -15.291 -23.029  0.00  0.00    +0.222 HD
ENDBRANCH  15  27
ENDBRANCH   2  23
TORSDOF 3
ENDMDL
MODEL 2
REMARK VINA RESULT:     -10.4      8.115      9.625
REMARK  Name = 24316
REMARK  3 active torsions:
REMARK  status: ('A' for Active; 'I' for Inactive)
REMARK    1  A    between atoms: N_2  and  C_23
REMARK    2  A    between atoms: P_15  and  O_27
REMARK    3  A    between atoms: C_22  and  O_25
REMARK                            x       y       z     vdW  Elec       q    Type
REMARK                         _______ _______ _______ _____ _____    ______ ____
ROOT
ATOM      1  O   UNL     1      38.303 -23.475 -15.332  0.00  0.00    -0.208 OA
ATOM      2  N   UNL     1      33.943 -24.207 -14.396  0.00  0.00    -0.207 NA
ATOM      3  N   UNL     1      35.390 -23.686 -12.512  0.00  0.00    -0.279 N 
ATOM      4  N   UNL     1      35.503 -24.106 -16.005  0.00  0.00    -0.241 NA
ATOM      5  N   UNL     1      37.687 -23.313 -13.103  0.00  0.00    -0.301 NA
ATOM      6  N   UNL     1      36.937 -23.175 -10.873  0.00  0.00    -0.320 N 
ATOM      7  C   UNL     1      35.119 -23.901 -13.802  0.00  0.00    +0.191 C 
ATOM      8  C   UNL     1      34.226 -24.322 -15.738  0.00  0.00    +0.205 C 
ATOM      9  C   UNL     1      36.062 -23.843 -14.786  0.00  0.00    +0.183 C 
ATOM     10  C   UNL     1      37.441 -23.533 -14.464  0.00  0.00    +0.224 C 
ATOM     11  C   UNL     1      36.718 -23.388 -12.210  0.00  0.00    +0.245 C 
ATOM     12  H   UNL     1      34.694 -23.733 -11.817  0.00  0.00    +0.152 HD
ATOM     13  H   UNL     1      36.191 -23.241 -10.235  0.00  0.00    +0.146 HD
ATOM     14  H   UNL     1      37.843 -22.958 -10.551  0.00  0.00    +0.146 HD
ENDROOT
BRANCH   2  23
ATOM     15  P   UNL     1      28.466 -22.941 -15.783  0.00  0.00    +0.476 P 
ATOM     16  O   UNL     1      31.847 -25.330 -14.539  0.00  0.00    -0.336 OA
ATOM     17  O   UNL     1      29.605 -22.554 -14.687  0.00  0.00    -0.271 OA
ATOM     18  O   UNL     1      28.511 -24.560 -15.914  0.00  0.00    -0.271 OA
ATOM     19  O   UNL     1      27.103 -22.390 -15.475  0.00  0.00    -0.227 OA
ATOM     20  C   UNL     1      30.817 -23.265 -14.785  0.00  0.00    +0.186 C 
ATOM     21  C   UNL     1      30.552 -24.753 -14.691  0.00  0.00    +0.177 C 
ATOM     22  C   UNL     1      31.818 -23.077 -13.669  0.00  0.00    +0.184 C 
ATOM     23  C   UNL     1      32.632 -24.381 -13.768  0.00  0.00    +0.209 C 
ATOM     24  C   UNL     1      29.773 -25.228 -15.901  0.00  0.00    +0.186 C 
BRANCH  22  25
ATOM     25  O   UNL     1      31.149 -23.031 -12.412  0.00  0.00    -0.378 OA
ATOM     26  H   UNL     1      31.720 -23.413 -11.728  0.00  0.00    +0.211 HD
ENDBRANCH  22  25
BRANCH  15  27
ATOM     27  O   UNL     1      29.070 -22.419 -17.192  0.00  0.00    -0.302 OA
ATOM     28  H   UNL     1      29.743 -21.742 -17.023  0.00  0.00    +0.222 HD
ENDBRANCH  15  27
ENDBRANCH   2  23
TORSDOF 3
ENDMDL
MODEL 3
REMARK VINA RESULT:     -10.1      6.831      9.311
REMARK  Name = 24316
REMARK  3 active torsions:
REMARK  status: ('A' for Active; 'I' for Inactive)
REMARK    1  A    between atoms: N_2  and  C_23
REMARK    2  A    between atoms: P_15  and  O_27
REMARK    3  A    between atoms: C_22  and  O_25
REMARK                            x       y       z     vdW  Elec       q    Type
REMARK                         _______ _______ _______ _____ _____    ______ ____
ROOT
ATOM      1  O   UNL     1      37.247 -22.573 -16.463  0.00  0.00    -0.208 OA
ATOM      2  N   UNL     1      33.601 -24.032 -14.227  0.00  0.00    -0.207 NA
ATOM      3  N   UNL     1      33.263 -23.352 -16.537  0.00  0.00    -0.279 N 
ATOM      4  N   UNL     1      35.803 -23.624 -14.117  0.00  0.00    -0.241 NA
ATOM      5  N   UNL     1      35.254 -22.592 -17.645  0.00  0.00    -0.301 NA
ATOM      6  N   UNL     1      33.168 -22.659 -18.740  0.00  0.00    -0.320 N 
ATOM      7  C   UNL     1      33.987 -23.563 -15.436  0.00  0.00    +0.191 C 
ATOM      8  C   UNL     1      34.740 -24.051 -13.457  0.00  0.00    +0.205 C 
ATOM      9  C   UNL     1      35.327 -23.317 -15.360  0.00  0.00    +0.183 C 
ATOM     10  C   UNL     1      36.044 -22.800 -16.509  0.00  0.00    +0.224 C 
ATOM     11  C   UNL     1      33.960 -22.855 -17.638  0.00  0.00    +0.245 C 
ATOM     12  H   UNL     1      32.297 -23.536 -16.571  0.00  0.00    +0.152 HD
ATOM     13  H   UNL     1      32.207 -22.865 -18.699  0.00  0.00    +0.146 HD
ATOM     14  H   UNL     1      33.561 -22.310 -19.573  0.00  0.00    +0.146 HD
ENDROOT
BRANCH   2  23
ATOM     15  P   UNL     1      28.178 -22.858 -15.884  0.00  0.00    +0.476 P 
ATOM     16  O   UNL     1      31.641 -25.233 -14.852  0.00  0.00    -0.336 OA
ATOM     17  O   UNL     1      29.171 -22.663 -14.609  0.00  0.00    -0.271 OA
ATOM     18  O   UNL     1      28.386 -24.393 -16.374  0.00  0.00    -0.271 OA
ATOM     19  O   UNL     1      26.747 -22.492 -15.610  0.00  0.00    -0.227 OA
ATOM     20  C   UNL     1      30.449 -23.244 -14.733  0.00  0.00    +0.186 C 
ATOM     21  C   UNL     1      30.316 -24.727 -15.011  0.00  0.00    +0.177 C 
ATOM     22  C   UNL     1      31.322 -23.257 -13.500  0.00  0.00    +0.184 C 
ATOM     23  C   UNL     1      32.260 -24.441 -13.804  0.00  0.00    +0.209 C 
ATOM     24  C   UNL     1      29.698 -24.956 -16.375  0.00  0.00    +0.186 C 
BRANCH  22  25
ATOM     25  O   UNL     1      30.540 -23.556 -12.348  0.00  0.00    -0.378 OA
ATOM     26  H   UNL     1      30.607 -24.503 -12.149  0.00  0.00    +0.211 HD
ENDBRANCH  22  25
BRANCH  15  27
ATOM     27  O   UNL     1      28.856 -21.977 -17.060  0.00  0.00    -0.302 OA
ATOM     28  H   UNL     1      29.810 -22.148 -17.084  0.00  0.00    +0.222 HD
ENDBRANCH  15  27
ENDBRANCH   2  23
TORSDOF 3
ENDMDL
MODEL 4
REMARK VINA RESULT:      -9.9      6.989      9.211
REMARK  Name = 24316
REMARK  3 active torsions:
REMARK  status: ('A' for Active; 'I' for Inactive)
REMARK    1  A    between atoms: N_2  and  C_23
REMARK    2  A    between atoms: P_15  and  O_27
REMARK    3  A    between atoms: C_22  and  O_25
REMARK                            x       y       z     vdW  Elec       q    Type
REMARK                         _______ _______ _______ _____ _____    ______ ____
ROOT
ATOM      1  O   UNL     1      29.610 -22.438 -16.973  0.00  0.00    -0.208 OA
ATOM      2  N   UNL     1      34.045 -23.306 -16.997  0.00  0.00    -0.207 NA
ATOM      3  N   UNL     1      32.795 -24.068 -15.055  0.00  0.00    -0.279 N 
ATOM      4  N   UNL     1      32.329 -22.386 -18.112  0.00  0.00    -0.241 NA
ATOM      5  N   UNL     1      30.449 -23.564 -15.129  0.00  0.00    -0.301 NA
ATOM      6  N   UNL     1      31.421 -24.704 -13.309  0.00  0.00    -0.320 N 
ATOM      7  C   UNL     1      32.934 -23.477 -16.245  0.00  0.00    +0.191 C 
ATOM      8  C   UNL     1      33.627 -22.636 -18.125  0.00  0.00    +0.205 C 
ATOM      9  C   UNL     1      31.895 -22.915 -16.928  0.00  0.00    +0.183 C 
ATOM     10  C   UNL     1      30.556 -22.937 -16.376  0.00  0.00    +0.224 C 
ATOM     11  C   UNL     1      31.504 -24.085 -14.530  0.00  0.00    +0.245 C 
ATOM     12  H   UNL     1      33.559 -24.467 -14.578  0.00  0.00    +0.152 HD
ATOM     13  H   UNL     1      32.228 -25.080 -12.892  0.00  0.00    +0.146 HD
ATOM     14  H   UNL     1      30.552 -24.771 -12.850  0.00  0.00    +0.146 HD
ENDROOT
BRANCH   2  23
ATOM     15  P   UNL     1      37.451 -23.381 -12.316  0.00  0.00    +0.476 P 
ATOM     16  O   UNL     1      35.379 -24.877 -15.803  0.00  0.00    -0.336 OA
ATOM     17  O   UNL     1      37.351 -22.686 -13.785  0.00  0.00    -0.271 OA
ATOM     18  O   UNL     1      37.113 -24.953 -12.547  0.00  0.00    -0.271 OA
ATOM     19  O   UNL     1      38.752 -23.132 -11.606  0.00  0.00    -0.227 OA
ATOM     20  C   UNL     1      36.277 -23.112 -14.592  0.00  0.00    +0.186 C 
ATOM     21  C   UNL     1      36.336 -24.614 -14.778  0.00  0.00    +0.177 C 
ATOM     22  C   UNL     1      36.267 -22.641 -16.028  0.00  0.00    +0.184 C 
ATOM     23  C   UNL     1      35.412 -23.733 -16.699  0.00  0.00    +0.209 C 
ATOM     24  C   UNL     1      36.080 -25.320 -13.462  0.00  0.00    +0.186 C 
BRANCH  22  25
ATOM     25  O   UNL     1      37.586 -22.675 -16.565  0.00  0.00    -0.378 OA
ATOM     26  H   UNL     1      38.230 -22.684 -15.840  0.00  0.00    +0.211 HD
ENDBRANCH  22  25
BRANCH  15  27
ATOM     27  O   UNL     1      36.161 -22.817 -11.516  0.00  0.00    -0.302 OA
ATOM     28  H   UNL     1      35.619 -22.281 -12.115  0.00  0.00    +0.222 HD
ENDBRANCH  15  27
ENDBRANCH   2  23
TORSDOF 3
ENDMDL
MODEL 5
REMARK VINA RESULT:      -9.6      7.771     10.706
REMARK  Name = 24316
REMARK  3 active torsions:
REMARK  status: ('A' for Active; 'I' for Inactive)
REMARK    1  A    between atoms: N_2  and  C_23
REMARK    2  A    between atoms: P_15  and  O_27
REMARK    3  A    between atoms: C_22  and  O_25
REMARK                            x       y       z     vdW  Elec       q    Type
REMARK                         _______ _______ _______ _____ _____    ______ ____
ROOT
ATOM      1  O   UNL     1      31.614 -22.798 -17.224  0.00  0.00    -0.208 OA
ATOM      2  N   UNL     1      35.082 -24.226 -14.703  0.00  0.00    -0.207 NA
ATOM      3  N   UNL     1      32.852 -24.747 -13.885  0.00  0.00    -0.279 N 
ATOM      4  N   UNL     1      34.468 -23.138 -16.566  0.00  0.00    -0.241 NA
ATOM      5  N   UNL     1      31.073 -23.950 -15.287  0.00  0.00    -0.301 NA
ATOM      6  N   UNL     1      30.652 -25.134 -13.293  0.00  0.00    -0.320 N 
ATOM      7  C   UNL     1      33.730 -24.225 -14.745  0.00  0.00    +0.191 C 
ATOM      8  C   UNL     1      35.487 -23.552 -15.833  0.00  0.00    +0.205 C 
ATOM      9  C   UNL     1      33.365 -23.561 -15.879  0.00  0.00    +0.183 C 
ATOM     10  C   UNL     1      31.964 -23.390 -16.210  0.00  0.00    +0.224 C 
ATOM     11  C   UNL     1      31.507 -24.578 -14.210  0.00  0.00    +0.245 C 
ATOM     12  H   UNL     1      33.138 -25.222 -13.071  0.00  0.00    +0.152 HD
ATOM     13  H   UNL     1      31.011 -25.595 -12.501  0.00  0.00    +0.146 HD
ATOM     14  H   UNL     1      29.678 -25.072 -13.428  0.00  0.00    +0.146 HD
ENDROOT
BRANCH   2  23
ATOM     15  P   UNL     1      40.503 -26.252 -14.536  0.00  0.00    +0.476 P 
ATOM     16  O   UNL     1      37.054 -23.905 -13.404  0.00  0.00    -0.336 OA
ATOM     17  O   UNL     1      38.967 -26.763 -14.371  0.00  0.00    -0.271 OA
ATOM     18  O   UNL     1      40.603 -24.871 -13.686  0.00  0.00    -0.271 OA
ATOM     19  O   UNL     1      41.535 -27.278 -14.161  0.00  0.00    -0.227 OA
ATOM     20  C   UNL     1      37.977 -25.762 -14.447  0.00  0.00    +0.186 C 
ATOM     21  C   UNL     1      38.240 -24.697 -13.403  0.00  0.00    +0.177 C 
ATOM     22  C   UNL     1      36.563 -26.166 -14.100  0.00  0.00    +0.184 C 
ATOM     23  C   UNL     1      35.954 -24.813 -13.684  0.00  0.00    +0.209 C 
ATOM     24  C   UNL     1      39.516 -23.946 -13.724  0.00  0.00    +0.186 C 
BRANCH  22  25
ATOM     25  O   UNL     1      36.564 -27.048 -12.981  0.00  0.00    -0.378 OA
ATOM     26  H   UNL     1      36.850 -26.567 -12.190  0.00  0.00    +0.211 HD
ENDBRANCH  22  25
BRANCH  15  27
ATOM     27  O   UNL     1      40.603 -25.771 -16.079  0.00  0.00    -0.302 OA
ATOM     28  H   UNL     1      39.838 -26.104 -16.571  0.00  0.00    +0.222 HD
ENDBRANCH  15  27
ENDBRANCH   2  23
TORSDOF 3
ENDMDL
MODEL 6
REMARK VINA RESULT:      -9.3      7.503      9.978
REMARK  Name = 24316
REMARK  3 active torsions:
REMARK  status: ('A' for Active; 'I' for Inactive)
REMARK    1  A    between atoms: N_2  and  C_23
REMARK    2  A    between atoms: P_15  and  O_27
REMARK    3  A    between atoms: C_22  and  O_25
REMARK                            x       y       z     vdW  Elec       q    Type
REMARK                         _______ _______ _______ _____ _____    ______ ____
ROOT
ATOM      1  O   UNL     1      30.047 -22.082 -16.855  0.00  0.00    -0.208 OA
ATOM      2  N   UNL     1      33.921 -24.153 -15.796  0.00  0.00    -0.207 NA
ATOM      3  N   UNL     1      32.023 -24.578 -14.336  0.00  0.00    -0.279 N 
ATOM      4  N   UNL     1      32.891 -22.767 -17.226  0.00  0.00    -0.241 NA
ATOM      5  N   UNL     1      30.009 -23.437 -14.975  0.00  0.00    -0.301 NA
ATOM      6  N   UNL     1      30.097 -24.843 -13.086  0.00  0.00    -0.320 N 
ATOM      7  C   UNL     1      32.640 -24.024 -15.383  0.00  0.00    +0.191 C 
ATOM      8  C   UNL     1      34.028 -23.369 -16.921  0.00  0.00    +0.205 C 
ATOM      9  C   UNL     1      32.020 -23.179 -16.257  0.00  0.00    +0.183 C 
ATOM     10  C   UNL     1      30.623 -22.838 -16.082  0.00  0.00    +0.224 C 
ATOM     11  C   UNL     1      30.679 -24.245 -14.174  0.00  0.00    +0.245 C 
ATOM     12  H   UNL     1      32.489 -25.185 -13.717  0.00  0.00    +0.152 HD
ATOM     13  H   UNL     1      30.627 -25.439 -12.510  0.00  0.00    +0.146 HD
ATOM     14  H   UNL     1      29.149 -24.674 -12.880  0.00  0.00    +0.146 HD
ENDROOT
BRANCH   2  23
ATOM     15  P   UNL     1      38.178 -23.207 -11.986  0.00  0.00    +0.476 P 
ATOM     16  O   UNL     1      34.731 -25.112 -13.770  0.00  0.00    -0.336 OA
ATOM     17  O   UNL     1      37.958 -23.594 -13.552  0.00  0.00    -0.271 OA
ATOM     18  O   UNL     1      37.140 -24.138 -11.151  0.00  0.00    -0.271 OA
ATOM     19  O   UNL     1      39.603 -23.311 -11.523  0.00  0.00    -0.227 OA
ATOM     20  C   UNL     1      36.619 -23.775 -13.956  0.00  0.00    +0.186 C 
ATOM     21  C   UNL     1      35.963 -24.842 -13.104  0.00  0.00    +0.177 C 
ATOM     22  C   UNL     1      36.388 -24.327 -15.343  0.00  0.00    +0.184 C 
ATOM     23  C   UNL     1      34.988 -24.953 -15.192  0.00  0.00    +0.209 C 
ATOM     24  C   UNL     1      35.830 -24.367 -11.672  0.00  0.00    +0.186 C 
BRANCH  22  25
ATOM     25  O   UNL     1      37.336 -25.352 -15.628  0.00  0.00    -0.378 OA
ATOM     26  H   UNL     1      36.880 -26.204 -15.695  0.00  0.00    +0.211 HD
ENDBRANCH  22  25
BRANCH  15  27
ATOM     27  O   UNL     1      37.562 -21.716 -11.850  0.00  0.00    -0.302 OA
ATOM     28  H   UNL     1      38.243 -21.064 -12.072  0.00  0.00    +0.222 HD
ENDBRANCH  15  27
ENDBRANCH   2  23
TORSDOF 3
ENDMDL
MODEL 7
REMARK VINA RESULT:      -9.1      5.106      8.951
REMARK  Name = 24316
REMARK  3 active torsions:
REMARK  status: ('A' for Active; 'I' for Inactive)
REMARK    1  A    between atoms: N_2  and  C_23
REMARK    2  A    between atoms: P_15  and  O_27
REMARK    3  A    between atoms: C_22  and  O_25
REMARK                            x       y       z     vdW  Elec       q    Type
REMARK                         _______ _______ _______ _____ _____    ______ ____
ROOT
ATOM      1  O   UNL     1      32.367 -20.824 -20.461  0.00  0.00    -0.208 OA
ATOM      2  N   UNL     1      35.105 -22.814 -17.466  0.00  0.00    -0.207 NA
ATOM      3  N   UNL     1      36.126 -21.202 -18.974  0.00  0.00    -0.279 N 
ATOM      4  N   UNL     1      33.005 -22.654 -18.239  0.00  0.00    -0.241 NA
ATOM      5  N   UNL     1      34.597 -20.197 -20.529  0.00  0.00    -0.301 NA
ATOM      6  N   UNL     1      36.888 -19.641 -20.499  0.00  0.00    -0.320 N 
ATOM      7  C   UNL     1      35.111 -21.909 -18.472  0.00  0.00    +0.191 C 
ATOM      8  C   UNL     1      33.801 -23.240 -17.360  0.00  0.00    +0.205 C 
ATOM      9  C   UNL     1      33.831 -21.818 -18.937  0.00  0.00    +0.183 C 
ATOM     10  C   UNL     1      33.509 -20.922 -20.029  0.00  0.00    +0.224 C 
ATOM     11  C   UNL     1      35.808 -20.342 -20.024  0.00  0.00    +0.245 C 
ATOM     12  H   UNL     1      37.043 -21.283 -18.624  0.00  0.00    +0.152 HD
ATOM     13  H   UNL     1      37.776 -19.775 -20.099  0.00  0.00    +0.146 HD
ATOM     14  H   UNL     1      36.773 -19.004 -21.242  0.00  0.00    +0.146 HD
ENDROOT
BRANCH   2  23
ATOM     15  P   UNL     1      35.999 -23.862 -11.842  0.00  0.00    +0.476 P 
ATOM     16  O   UNL     1      35.947 -24.578 -16.106  0.00  0.00    -0.336 OA
ATOM     17  O   UNL     1      36.485 -22.853 -13.024  0.00  0.00    -0.271 OA
ATOM     18  O   UNL     1      36.012 -25.349 -12.498  0.00  0.00    -0.271 OA
ATOM     19  O   UNL     1      36.792 -23.746 -10.572  0.00  0.00    -0.227 OA
ATOM     20  C   UNL     1      35.959 -23.113 -14.306  0.00  0.00    +0.186 C 
ATOM     21  C   UNL     1      36.292 -24.530 -14.722  0.00  0.00    +0.177 C 
ATOM     22  C   UNL     1      36.539 -22.327 -15.459  0.00  0.00    +0.184 C 
ATOM     23  C   UNL     1      36.232 -23.260 -16.646  0.00  0.00    +0.209 C 
ATOM     24  C   UNL     1      35.563 -25.525 -13.842  0.00  0.00    +0.186 C 
BRANCH  22  25
ATOM     25  O   UNL     1      37.949 -22.201 -15.308  0.00  0.00    -0.378 OA
ATOM     26  H   UNL     1      38.351 -23.083 -15.279  0.00  0.00    +0.211 HD
ENDBRANCH  22  25
BRANCH  15  27
ATOM     27  O   UNL     1      34.425 -23.532 -11.654  0.00  0.00    -0.302 OA
ATOM     28  H   UNL     1      34.039 -23.300 -12.512  0.00  0.00    +0.222 HD
ENDBRANCH  15  27
ENDBRANCH   2  23
TORSDOF 3
ENDMDL
MODEL 8
REMARK VINA RESULT:      -9.0      6.796      9.587
REMARK  Name = 24316
REMARK  3 active torsions:
REMARK  status: ('A' for Active; 'I' for Inactive)
REMARK    1  A    between atoms: N_2  and  C_23
REMARK    2  A    between atoms: P_15  and  O_27
REMARK    3  A    between atoms: C_22  and  O_25
REMARK                            x       y       z     vdW  Elec       q    Type
REMARK                         _______ _______ _______ _____ _____    ______ ____
ROOT
ATOM      1  O   UNL     1      35.033  -7.253 -23.668  0.00  0.00    -0.208 OA
ATOM      2  N   UNL     1      33.696 -11.499 -24.446  0.00  0.00    -0.207 NA
ATOM      3  N   UNL     1      32.574 -10.316 -22.642  0.00  0.00    -0.279 N 
ATOM      4  N   UNL     1      35.083  -9.848 -25.066  0.00  0.00    -0.241 NA
ATOM      5  N   UNL     1      33.348  -8.068 -22.301  0.00  0.00    -0.301 NA
ATOM      6  N   UNL     1      31.642  -9.012 -20.977  0.00  0.00    -0.320 N 
ATOM      7  C   UNL     1      33.452 -10.440 -23.640  0.00  0.00    +0.191 C 
ATOM      8  C   UNL     1      34.697 -11.091 -25.298  0.00  0.00    +0.205 C 
ATOM      9  C   UNL     1      34.299  -9.442 -24.023  0.00  0.00    +0.183 C 
ATOM     10  C   UNL     1      34.281  -8.163 -23.341  0.00  0.00    +0.224 C 
ATOM     11  C   UNL     1      32.562  -9.083 -21.991  0.00  0.00    +0.245 C 
ATOM     12  H   UNL     1      31.972 -11.050 -22.382  0.00  0.00    +0.152 HD
ATOM     13  H   UNL     1      31.073  -9.788 -20.773  0.00  0.00    +0.146 HD
ATOM     14  H   UNL     1      31.551  -8.183 -20.452  0.00  0.00    +0.146 HD
ENDROOT
BRANCH   2  23
ATOM     15  P   UNL     1      34.059 -16.296 -21.224  0.00  0.00    +0.476 P 
ATOM     16  O   UNL     1      32.229 -12.938 -23.241  0.00  0.00    -0.336 OA
ATOM     17  O   UNL     1      34.336 -15.780 -22.743  0.00  0.00    -0.271 OA
ATOM     18  O   UNL     1      32.613 -15.683 -20.806  0.00  0.00    -0.271 OA
ATOM     19  O   UNL     1      34.167 -17.784 -21.052  0.00  0.00    -0.227 OA
ATOM     20  C   UNL     1      33.982 -14.442 -23.009  0.00  0.00    +0.186 C 
ATOM     21  C   UNL     1      32.518 -14.222 -22.691  0.00  0.00    +0.177 C 
ATOM     22  C   UNL     1      34.037 -13.990 -24.450  0.00  0.00    +0.184 C 
ATOM     23  C   UNL     1      33.046 -12.810 -24.436  0.00  0.00    +0.209 C 
ATOM     24  C   UNL     1      32.276 -14.353 -21.201  0.00  0.00    +0.186 C 
BRANCH  22  25
ATOM     25  O   UNL     1      33.542 -15.015 -25.306  0.00  0.00    -0.378 OA
ATOM     26  H   UNL     1      32.944 -14.626 -25.963  0.00  0.00    +0.211 HD
ENDBRANCH  22  25
BRANCH  15  27
ATOM     27  O   UNL     1      35.113 -15.463 -20.319  0.00  0.00    -0.302 OA
ATOM     28  H   UNL     1      34.647 -14.754 -19.850  0.00  0.00    +0.222 HD
ENDBRANCH  15  27
ENDBRANCH   2  23
TORSDOF 3
ENDMDL
MODEL 9
REMARK VINA RESULT:      -8.9      7.409      9.853
REMARK  Name = 24316
REMARK  3 active torsions:
REMARK  status: ('A' for Active; 'I' for Inactive)
REMARK    1  A    between atoms: N_2  and  C_23
REMARK    2  A    between atoms: P_15  and  O_27
REMARK    3  A    between atoms: C_22  and  O_25
REMARK                            x       y       z     vdW  Elec       q    Type
REMARK                         _______ _______ _______ _____ _____    ______ ____
ROOT
ATOM      1  O   UNL     1      29.474 -22.712 -16.020  0.00  0.00    -0.208 OA
ATOM      2  N   UNL     1      33.632 -24.270 -15.181  0.00  0.00    -0.207 NA
ATOM      3  N   UNL     1      33.334 -23.015 -17.242  0.00  0.00    -0.279 N 
ATOM      4  N   UNL     1      31.517 -24.141 -14.446  0.00  0.00    -0.241 NA
ATOM      5  N   UNL     1      31.094 -22.226 -17.604  0.00  0.00    -0.301 NA
ATOM      6  N   UNL     1      32.829 -21.797 -19.141  0.00  0.00    -0.320 N 
ATOM      7  C   UNL     1      32.928 -23.564 -16.095  0.00  0.00    +0.191 C 
ATOM      8  C   UNL     1      32.731 -24.601 -14.195  0.00  0.00    +0.205 C 
ATOM      9  C   UNL     1      31.643 -23.491 -15.641  0.00  0.00    +0.183 C 
ATOM     10  C   UNL     1      30.633 -22.790 -16.409  0.00  0.00    +0.224 C 
ATOM     11  C   UNL     1      32.356 -22.342 -17.974  0.00  0.00    +0.245 C 
ATOM     12  H   UNL     1      34.266 -23.080 -17.551  0.00  0.00    +0.152 HD
ATOM     13  H   UNL     1      33.776 -21.903 -19.385  0.00  0.00    +0.146 HD
ATOM     14  H   UNL     1      32.220 -21.300 -19.734  0.00  0.00    +0.146 HD
ENDROOT
BRANCH   2  23
ATOM     15  P   UNL     1      38.226 -23.291 -11.796  0.00  0.00    +0.476 P 
ATOM     16  O   UNL     1      35.350 -25.533 -14.119  0.00  0.00    -0.336 OA
ATOM     17  O   UNL     1      37.668 -22.945 -13.285  0.00  0.00    -0.271 OA
ATOM     18  O   UNL     1      37.939 -24.875 -11.574  0.00  0.00    -0.271 OA
ATOM     19  O   UNL     1      39.655 -22.889 -11.567  0.00  0.00    -0.227 OA
ATOM     20  C   UNL     1      36.438 -23.541 -13.632  0.00  0.00    +0.186 C 
ATOM     21  C   UNL     1      36.539 -25.046 -13.499  0.00  0.00    +0.177 C 
ATOM     22  C   UNL     1      35.990 -23.406 -15.069  0.00  0.00    +0.184 C 
ATOM     23  C   UNL     1      35.053 -24.621 -15.210  0.00  0.00    +0.209 C 
ATOM     24  C   UNL     1      36.715 -25.437 -12.046  0.00  0.00    +0.186 C 
BRANCH  22  25
ATOM     25  O   UNL     1      37.101 -23.561 -15.947  0.00  0.00    -0.378 OA
ATOM     26  H   UNL     1      36.885 -24.215 -16.629  0.00  0.00    +0.211 HD
ENDBRANCH  22  25
BRANCH  15  27
ATOM     27  O   UNL     1      37.182 -22.561 -10.796  0.00  0.00    -0.302 OA
ATOM     28  H   UNL     1      37.543 -21.704 -10.522  0.00  0.00    +0.222 HD
ENDBRANCH  15  27
ENDBRANCH   2  23
TORSDOF 3
ENDMDL
