MODEL 1
REMARK VINA RESULT:     -12.1      0.000      0.000
REMARK  Name = 656913
REMARK  7 active torsions:
REMARK  status: ('A' for Active; 'I' for Inactive)
REMARK    1  A    between atoms: N_3  and  C_22
REMARK    2  A    between atoms: N_4  and  C_11
REMARK    3  A    between atoms: C_11  and  C_14
REMARK    4  A    between atoms: C_14  and  C_17
REMARK    5  A    between atoms: C_22  and  C_25
REMARK    6  A    between atoms: N_24  and  C_27
REMARK    7  A    between atoms: C_27  and  C_29
REMARK                            x       y       z     vdW  Elec       q    Type
REMARK                         _______ _______ _______ _____ _____    ______ ____
ROOT
ATOM      1 CL   UNL     1      34.138 -16.028 -25.283  0.00  0.00    -0.064 Cl
ATOM      2  O   UNL     1      35.166 -16.593 -20.396  0.00  0.00    -0.266 OA
ATOM      3  N   UNL     1      34.682 -16.292 -22.671  0.00  0.00    -0.233 N 
ATOM      4  N   UNL     1      35.352 -19.273 -20.590  0.00  0.00    -0.310 N 
ATOM      5  N   UNL     1      34.876 -19.092 -22.878  0.00  0.00    -0.223 NA
ATOM      6  C   UNL     1      35.064 -18.539 -21.713  0.00  0.00    +0.183 C 
ATOM      7  C   UNL     1      34.975 -17.031 -21.525  0.00  0.00    +0.285 C 
ATOM      8  C   UNL     1      34.497 -16.948 -23.872  0.00  0.00    +0.133 C 
ATOM      9  C   UNL     1      34.596 -18.279 -23.938  0.00  0.00    +0.127 C 
ATOM     10  H   UNL     1      35.484 -18.802 -19.735  0.00  0.00    +0.149 HD
ENDROOT
BRANCH   4  11
ATOM     11  C   UNL     1      35.465 -20.697 -20.618  0.00  0.00    +0.162 C 
BRANCH  11  14
ATOM     12  F   UNL     1      36.966 -20.089 -18.917  0.00  0.00    -0.196 F 
ATOM     13  F   UNL     1      37.352 -21.940 -19.981  0.00  0.00    -0.196 F 
ATOM     14  C   UNL     1      36.345 -21.177 -19.464  0.00  0.00    +0.317 C 
BRANCH  14  17
ATOM     15  O   UNL     1      37.295 -21.800 -16.954  0.00  0.00    -0.163 OA
ATOM     16  N   UNL     1      36.111 -22.185 -17.227  0.00  0.00    -0.128 N 
ATOM     17  C   UNL     1      35.529 -21.934 -18.444  0.00  0.00    +0.142 C 
ATOM     18  C   UNL     1      34.246 -22.344 -18.753  0.00  0.00    +0.022 C 
ATOM     19  C   UNL     1      35.378 -22.877 -16.282  0.00  0.00    +0.121 C 
ATOM     20  C   UNL     1      33.517 -23.040 -17.793  0.00  0.00    +0.003 C 
ATOM     21  C   UNL     1      34.084 -23.309 -16.552  0.00  0.00    +0.022 C 
ENDBRANCH  14  17
ENDBRANCH  11  14
ENDBRANCH   4  11
BRANCH   3  22
ATOM     22  C   UNL     1      34.579 -14.840 -22.570  0.00  0.00    +0.184 C 
BRANCH  22  25
ATOM     23  O   UNL     1      32.329 -15.262 -21.794  0.00  0.00    -0.273 OA
ATOM     24  N   UNL     1      32.912 -13.116 -22.469  0.00  0.00    -0.299 N 
ATOM     25  C   UNL     1      33.158 -14.457 -22.213  0.00  0.00    +0.243 C 
ATOM     26  H   UNL     1      33.654 -12.561 -22.805  0.00  0.00    +0.150 HD
BRANCH  24  27
ATOM     27  C   UNL     1      31.624 -12.493 -22.267  0.00  0.00    +0.119 C 
BRANCH  27  29
ATOM     28  F   UNL     1      32.092  -9.845 -23.140  0.00  0.00    -0.204 F 
ATOM     29  C   UNL     1      31.706 -11.327 -21.325  0.00  0.00    +0.025 C 
ATOM     30  C   UNL     1      31.938 -10.050 -21.824  0.00  0.00    +0.138 C 
ATOM     31  C   UNL     1      31.547 -11.537 -19.960  0.00  0.00    -0.000 C 
ATOM     32  C   UNL     1      32.014  -8.970 -20.946  0.00  0.00    +0.029 C 
ATOM     33  C   UNL     1      31.622 -10.456 -19.082  0.00  0.00    -0.000 C 
ATOM     34  C   UNL     1      31.855  -9.173 -19.575  0.00  0.00    +0.002 C 
ENDBRANCH  27  29
ENDBRANCH  24  27
ENDBRANCH  22  25
ENDBRANCH   3  22
TORSDOF 7
ENDMDL
MODEL 2
REMARK VINA RESULT:     -12.0      2.437      3.295
REMARK  Name = 656913
REMARK  7 active torsions:
REMARK  status: ('A' for Active; 'I' for Inactive)
REMARK    1  A    between atoms: N_3  and  C_22
REMARK    2  A    between atoms: N_4  and  C_11
REMARK    3  A    between atoms: C_11  and  C_14
REMARK    4  A    between atoms: C_14  and  C_17
REMARK    5  A    between atoms: C_22  and  C_25
REMARK    6  A    between atoms: N_24  and  C_27
REMARK    7  A    between atoms: C_27  and  C_29
REMARK                            x       y       z     vdW  Elec       q    Type
REMARK                         _______ _______ _______ _____ _____    ______ ____
ROOT
ATOM      1 CL   UNL     1      32.903 -14.102 -26.607  0.00  0.00    -0.064 Cl
ATOM      2  O   UNL     1      34.961 -14.310 -22.027  0.00  0.00    -0.266 OA
ATOM      3  N   UNL     1      33.995 -14.176 -24.160  0.00  0.00    -0.233 N 
ATOM      4  N   UNL     1      35.358 -16.970 -22.161  0.00  0.00    -0.310 N 
ATOM      5  N   UNL     1      34.408 -16.956 -24.304  0.00  0.00    -0.223 NA
ATOM      6  C   UNL     1      34.778 -16.326 -23.224  0.00  0.00    +0.183 C 
ATOM      7  C   UNL     1      34.586 -14.823 -23.075  0.00  0.00    +0.285 C 
ATOM      8  C   UNL     1      33.630 -14.910 -25.271  0.00  0.00    +0.133 C 
ATOM      9  C   UNL     1      33.840 -16.229 -25.309  0.00  0.00    +0.127 C 
ATOM     10  H   UNL     1      35.618 -16.444 -21.370  0.00  0.00    +0.149 HD
ENDROOT
BRANCH   4  11
ATOM     11  C   UNL     1      35.599 -18.379 -22.162  0.00  0.00    +0.162 C 
BRANCH  11  14
ATOM     12  F   UNL     1      33.697 -19.676 -22.622  0.00  0.00    -0.196 F 
ATOM     13  F   UNL     1      33.544 -18.198 -21.041  0.00  0.00    -0.196 F 
ATOM     14  C   UNL     1      34.392 -19.119 -21.586  0.00  0.00    +0.317 C 
BRANCH  14  17
ATOM     15  O   UNL     1      32.620 -20.795 -20.305  0.00  0.00    -0.163 OA
ATOM     16  N   UNL     1      33.852 -20.930 -20.004  0.00  0.00    -0.128 N 
ATOM     17  C   UNL     1      34.828 -20.153 -20.577  0.00  0.00    +0.142 C 
ATOM     18  C   UNL     1      36.166 -20.292 -20.261  0.00  0.00    +0.022 C 
ATOM     19  C   UNL     1      34.232 -21.882 -19.078  0.00  0.00    +0.121 C 
ATOM     20  C   UNL     1      36.538 -21.253 -19.327  0.00  0.00    +0.003 C 
ATOM     21  C   UNL     1      35.568 -22.054 -18.732  0.00  0.00    +0.022 C 
ENDBRANCH  14  17
ENDBRANCH  11  14
ENDBRANCH   4  11
BRANCH   3  22
ATOM     22  C   UNL     1      33.777 -12.735 -24.090  0.00  0.00    +0.184 C 
BRANCH  22  25
ATOM     23  O   UNL     1      31.911 -13.305 -22.664  0.00  0.00    -0.273 OA
ATOM     24  N   UNL     1      32.559 -11.081 -22.849  0.00  0.00    -0.299 N 
ATOM     25  C   UNL     1      32.657 -12.439 -23.115  0.00  0.00    +0.243 C 
ATOM     26  H   UNL     1      33.214 -10.474 -23.266  0.00  0.00    +0.150 HD
BRANCH  24  27
ATOM     27  C   UNL     1      31.546 -10.511 -21.989  0.00  0.00    +0.119 C 
BRANCH  27  29
ATOM     28  F   UNL     1      32.490  -9.506 -19.522  0.00  0.00    -0.204 F 
ATOM     29  C   UNL     1      31.778  -9.048 -21.740  0.00  0.00    +0.025 C 
ATOM     30  C   UNL     1      32.244  -8.624 -20.501  0.00  0.00    +0.138 C 
ATOM     31  C   UNL     1      31.522  -8.133 -22.754  0.00  0.00    -0.000 C 
ATOM     32  C   UNL     1      32.458  -7.266 -20.274  0.00  0.00    +0.029 C 
ATOM     33  C   UNL     1      31.736  -6.774 -22.526  0.00  0.00    -0.000 C 
ATOM     34  C   UNL     1      32.204  -6.340 -21.286  0.00  0.00    +0.002 C 
ENDBRANCH  27  29
ENDBRANCH  24  27
ENDBRANCH  22  25
ENDBRANCH   3  22
TORSDOF 7
ENDMDL
MODEL 3
REMARK VINA RESULT:     -11.7      2.594     10.145
REMARK  Name = 656913
REMARK  7 active torsions:
REMARK  status: ('A' for Active; 'I' for Inactive)
REMARK    1  A    between atoms: N_3  and  C_22
REMARK    2  A    between atoms: N_4  and  C_11
REMARK    3  A    between atoms: C_11  and  C_14
REMARK    4  A    between atoms: C_14  and  C_17
REMARK    5  A    between atoms: C_22  and  C_25
REMARK    6  A    between atoms: N_24  and  C_27
REMARK    7  A    between atoms: C_27  and  C_29
REMARK                            x       y       z     vdW  Elec       q    Type
REMARK                         _______ _______ _______ _____ _____    ______ ____
ROOT
ATOM      1 CL   UNL     1      34.503 -16.143 -25.666  0.00  0.00    -0.064 Cl
ATOM      2  O   UNL     1      34.084 -14.914 -20.811  0.00  0.00    -0.266 OA
ATOM      3  N   UNL     1      34.307 -15.512 -23.068  0.00  0.00    -0.233 N 
ATOM      4  N   UNL     1      32.221 -13.030 -21.293  0.00  0.00    -0.310 N 
ATOM      5  N   UNL     1      32.360 -13.545 -23.576  0.00  0.00    -0.223 NA
ATOM      6  C   UNL     1      32.737 -13.744 -22.345  0.00  0.00    +0.183 C 
ATOM      7  C   UNL     1      33.786 -14.791 -21.994  0.00  0.00    +0.285 C 
ATOM      8  C   UNL     1      33.856 -15.246 -24.346  0.00  0.00    +0.133 C 
ATOM      9  C   UNL     1      32.930 -14.305 -24.555  0.00  0.00    +0.127 C 
ATOM     10  H   UNL     1      32.543 -13.223 -20.382  0.00  0.00    +0.149 HD
ENDROOT
BRANCH   4  11
ATOM     11  C   UNL     1      31.230 -12.016 -21.473  0.00  0.00    +0.162 C 
BRANCH  11  14
ATOM     12  F   UNL     1      32.251 -11.354 -19.465  0.00  0.00    -0.196 F 
ATOM     13  F   UNL     1      30.245 -10.626 -19.858  0.00  0.00    -0.196 F 
ATOM     14  C   UNL     1      31.441 -10.889 -20.463  0.00  0.00    +0.317 C 
BRANCH  14  17
ATOM     15  O   UNL     1      31.998  -8.560 -19.099  0.00  0.00    -0.163 OA
ATOM     16  N   UNL     1      32.251  -8.564 -20.349  0.00  0.00    -0.128 N 
ATOM     17  C   UNL     1      32.016  -9.665 -21.134  0.00  0.00    +0.142 C 
ATOM     18  C   UNL     1      32.287  -9.683 -22.489  0.00  0.00    +0.022 C 
ATOM     19  C   UNL     1      32.777  -7.435 -20.947  0.00  0.00    +0.121 C 
ATOM     20  C   UNL     1      32.817  -8.541 -23.080  0.00  0.00    +0.003 C 
ATOM     21  C   UNL     1      33.064  -7.410 -22.308  0.00  0.00    +0.022 C 
ENDBRANCH  14  17
ENDBRANCH  11  14
ENDBRANCH   4  11
BRANCH   3  22
ATOM     22  C   UNL     1      35.318 -16.533 -22.811  0.00  0.00    +0.184 C 
BRANCH  22  25
ATOM     23  O   UNL     1      34.514 -18.647 -23.663  0.00  0.00    -0.273 OA
ATOM     24  N   UNL     1      34.186 -18.129 -21.422  0.00  0.00    -0.299 N 
ATOM     25  C   UNL     1      34.653 -17.889 -22.706  0.00  0.00    +0.243 C 
ATOM     26  H   UNL     1      34.354 -17.449 -20.729  0.00  0.00    +0.150 HD
BRANCH  24  27
ATOM     27  C   UNL     1      33.467 -19.326 -21.049  0.00  0.00    +0.119 C 
BRANCH  27  29
ATOM     28  F   UNL     1      32.412 -21.261 -19.280  0.00  0.00    -0.204 F 
ATOM     29  C   UNL     1      34.330 -20.284 -20.280  0.00  0.00    +0.025 C 
ATOM     30  C   UNL     1      33.743 -21.211 -19.427  0.00  0.00    +0.138 C 
ATOM     31  C   UNL     1      35.711 -20.233 -20.431  0.00  0.00    -0.000 C 
ATOM     32  C   UNL     1      34.548 -22.099 -18.715  0.00  0.00    +0.029 C 
ATOM     33  C   UNL     1      36.516 -21.121 -19.718  0.00  0.00    -0.000 C 
ATOM     34  C   UNL     1      35.935 -22.054 -18.860  0.00  0.00    +0.002 C 
ENDBRANCH  27  29
ENDBRANCH  24  27
ENDBRANCH  22  25
ENDBRANCH   3  22
TORSDOF 7
ENDMDL
MODEL 4
REMARK VINA RESULT:     -11.4      2.724      3.917
REMARK  Name = 656913
REMARK  7 active torsions:
REMARK  status: ('A' for Active; 'I' for Inactive)
REMARK    1  A    between atoms: N_3  and  C_22
REMARK    2  A    between atoms: N_4  and  C_11
REMARK    3  A    between atoms: C_11  and  C_14
REMARK    4  A    between atoms: C_14  and  C_17
REMARK    5  A    between atoms: C_22  and  C_25
REMARK    6  A    between atoms: N_24  and  C_27
REMARK    7  A    between atoms: C_27  and  C_29
REMARK                            x       y       z     vdW  Elec       q    Type
REMARK                         _______ _______ _______ _____ _____    ______ ____
ROOT
ATOM      1 CL   UNL     1      31.322 -12.026 -21.273  0.00  0.00    -0.064 Cl
ATOM      2  O   UNL     1      34.136 -15.047 -24.138  0.00  0.00    -0.266 OA
ATOM      3  N   UNL     1      32.815 -13.616 -22.832  0.00  0.00    -0.233 N 
ATOM      4  N   UNL     1      34.855 -16.600 -22.059  0.00  0.00    -0.310 N 
ATOM      5  N   UNL     1      33.564 -15.237 -20.656  0.00  0.00    -0.223 NA
ATOM      6  C   UNL     1      34.023 -15.532 -21.840  0.00  0.00    +0.183 C 
ATOM      7  C   UNL     1      33.661 -14.701 -23.063  0.00  0.00    +0.285 C 
ATOM      8  C   UNL     1      32.368 -13.366 -21.549  0.00  0.00    +0.133 C 
ATOM      9  C   UNL     1      32.741 -14.155 -20.537  0.00  0.00    +0.127 C 
ATOM     10  H   UNL     1      35.172 -16.776 -22.975  0.00  0.00    +0.149 HD
ENDROOT
BRANCH   4  11
ATOM     11  C   UNL     1      35.278 -17.467 -21.005  0.00  0.00    +0.162 C 
BRANCH  11  14
ATOM     12  F   UNL     1      37.105 -18.717 -21.787  0.00  0.00    -0.196 F 
ATOM     13  F   UNL     1      35.213 -18.950 -22.822  0.00  0.00    -0.196 F 
ATOM     14  C   UNL     1      35.757 -18.800 -21.579  0.00  0.00    +0.317 C 
BRANCH  14  17
ATOM     15  O   UNL     1      33.157 -19.604 -21.150  0.00  0.00    -0.163 OA
ATOM     16  N   UNL     1      34.064 -20.250 -20.528  0.00  0.00    -0.128 N 
ATOM     17  C   UNL     1      35.395 -19.942 -20.661  0.00  0.00    +0.142 C 
ATOM     18  C   UNL     1      36.387 -20.634 -19.994  0.00  0.00    +0.022 C 
ATOM     19  C   UNL     1      33.714 -21.292 -19.692  0.00  0.00    +0.121 C 
ATOM     20  C   UNL     1      36.024 -21.682 -19.155  0.00  0.00    +0.003 C 
ATOM     21  C   UNL     1      34.682 -22.015 -19.001  0.00  0.00    +0.022 C 
ENDBRANCH  14  17
ENDBRANCH  11  14
ENDBRANCH   4  11
BRANCH   3  22
ATOM     22  C   UNL     1      32.424 -12.771 -23.955  0.00  0.00    +0.184 C 
BRANCH  22  25
ATOM     23  O   UNL     1      34.511 -11.764 -24.643  0.00  0.00    -0.273 OA
ATOM     24  N   UNL     1      32.946 -10.471 -23.511  0.00  0.00    -0.299 N 
ATOM     25  C   UNL     1      33.415 -11.635 -24.103  0.00  0.00    +0.243 C 
ATOM     26  H   UNL     1      32.048 -10.482 -23.105  0.00  0.00    +0.150 HD
BRANCH  24  27
ATOM     27  C   UNL     1      33.709  -9.244 -23.460  0.00  0.00    +0.119 C 
BRANCH  27  29
ATOM     28  F   UNL     1      33.213  -6.594 -24.308  0.00  0.00    -0.204 F 
ATOM     29  C   UNL     1      33.059  -8.215 -22.580  0.00  0.00    +0.025 C 
ATOM     30  C   UNL     1      32.845  -6.929 -23.063  0.00  0.00    +0.138 C 
ATOM     31  C   UNL     1      32.678  -8.561 -21.289  0.00  0.00    -0.000 C 
ATOM     32  C   UNL     1      32.242  -5.976 -22.244  0.00  0.00    +0.029 C 
ATOM     33  C   UNL     1      32.073  -7.607 -20.470  0.00  0.00    -0.000 C 
ATOM     34  C   UNL     1      31.855  -6.315 -20.947  0.00  0.00    +0.002 C 
ENDBRANCH  27  29
ENDBRANCH  24  27
ENDBRANCH  22  25
ENDBRANCH   3  22
TORSDOF 7
ENDMDL
MODEL 5
REMARK VINA RESULT:     -11.4      2.810      4.248
REMARK  Name = 656913
REMARK  7 active torsions:
REMARK  status: ('A' for Active; 'I' for Inactive)
REMARK    1  A    between atoms: N_3  and  C_22
REMARK    2  A    between atoms: N_4  and  C_11
REMARK    3  A    between atoms: C_11  and  C_14
REMARK    4  A    between atoms: C_14  and  C_17
REMARK    5  A    between atoms: C_22  and  C_25
REMARK    6  A    between atoms: N_24  and  C_27
REMARK    7  A    between atoms: C_27  and  C_29
REMARK                            x       y       z     vdW  Elec       q    Type
REMARK                         _______ _______ _______ _____ _____    ______ ____
ROOT
ATOM      1 CL   UNL     1      31.324 -11.823 -21.119  0.00  0.00    -0.064 Cl
ATOM      2  O   UNL     1      34.042 -14.817 -24.103  0.00  0.00    -0.266 OA
ATOM      3  N   UNL     1      32.767 -13.397 -22.740  0.00  0.00    -0.233 N 
ATOM      4  N   UNL     1      34.726 -16.461 -22.083  0.00  0.00    -0.310 N 
ATOM      5  N   UNL     1      33.479 -15.113 -20.627  0.00  0.00    -0.223 NA
ATOM      6  C   UNL     1      33.925 -15.379 -21.822  0.00  0.00    +0.183 C 
ATOM      7  C   UNL     1      33.581 -14.496 -23.014  0.00  0.00    +0.285 C 
ATOM      8  C   UNL     1      32.331 -13.181 -21.447  0.00  0.00    +0.133 C 
ATOM      9  C   UNL     1      32.687 -14.014 -20.465  0.00  0.00    +0.127 C 
ATOM     10  H   UNL     1      35.035 -16.614 -23.006  0.00  0.00    +0.149 HD
ENDROOT
BRANCH   4  11
ATOM     11  C   UNL     1      35.129 -17.376 -21.061  0.00  0.00    +0.162 C 
BRANCH  11  14
ATOM     12  F   UNL     1      36.933 -18.555 -21.994  0.00  0.00    -0.196 F 
ATOM     13  F   UNL     1      34.978 -18.843 -22.888  0.00  0.00    -0.196 F 
ATOM     14  C   UNL     1      35.608 -18.686 -21.687  0.00  0.00    +0.317 C 
BRANCH  14  17
ATOM     15  O   UNL     1      33.080 -19.628 -21.128  0.00  0.00    -0.163 OA
ATOM     16  N   UNL     1      34.051 -20.227 -20.558  0.00  0.00    -0.128 N 
ATOM     17  C   UNL     1      35.355 -19.849 -20.759  0.00  0.00    +0.142 C 
ATOM     18  C   UNL     1      36.416 -20.491 -20.149  0.00  0.00    +0.022 C 
ATOM     19  C   UNL     1      33.801 -21.290 -19.711  0.00  0.00    +0.121 C 
ATOM     20  C   UNL     1      36.153 -21.560 -19.299  0.00  0.00    +0.003 C 
ATOM     21  C   UNL     1      34.840 -21.963 -19.078  0.00  0.00    +0.022 C 
ENDBRANCH  14  17
ENDBRANCH  11  14
ENDBRANCH   4  11
BRANCH   3  22
ATOM     22  C   UNL     1      32.395 -12.503 -23.832  0.00  0.00    +0.184 C 
BRANCH  22  25
ATOM     23  O   UNL     1      34.556 -11.594 -24.420  0.00  0.00    -0.273 OA
ATOM     24  N   UNL     1      32.964 -10.202 -23.456  0.00  0.00    -0.299 N 
ATOM     25  C   UNL     1      33.431 -11.406 -23.962  0.00  0.00    +0.243 C 
ATOM     26  H   UNL     1      32.042 -10.166 -23.113  0.00  0.00    +0.150 HD
BRANCH  24  27
ATOM     27  C   UNL     1      33.763  -8.997 -23.408  0.00  0.00    +0.119 C 
BRANCH  27  29
ATOM     28  F   UNL     1      32.996  -8.504 -20.733  0.00  0.00    -0.204 F 
ATOM     29  C   UNL     1      32.952  -7.801 -23.001  0.00  0.00    +0.025 C 
ATOM     30  C   UNL     1      32.611  -7.621 -21.665  0.00  0.00    +0.138 C 
ATOM     31  C   UNL     1      32.550  -6.886 -23.966  0.00  0.00    -0.000 C 
ATOM     32  C   UNL     1      31.858  -6.509 -21.291  0.00  0.00    +0.029 C 
ATOM     33  C   UNL     1      31.798  -5.773 -23.591  0.00  0.00    -0.000 C 
ATOM     34  C   UNL     1      31.451  -5.585 -22.253  0.00  0.00    +0.002 C 
ENDBRANCH  27  29
ENDBRANCH  24  27
ENDBRANCH  22  25
ENDBRANCH   3  22
TORSDOF 7
ENDMDL
MODEL 6
REMARK VINA RESULT:     -11.3      3.263     11.605
REMARK  Name = 656913
REMARK  7 active torsions:
REMARK  status: ('A' for Active; 'I' for Inactive)
REMARK    1  A    between atoms: N_3  and  C_22
REMARK    2  A    between atoms: N_4  and  C_11
REMARK    3  A    between atoms: C_11  and  C_14
REMARK    4  A    between atoms: C_14  and  C_17
REMARK    5  A    between atoms: C_22  and  C_25
REMARK    6  A    between atoms: N_24  and  C_27
REMARK    7  A    between atoms: C_27  and  C_29
REMARK                            x       y       z     vdW  Elec       q    Type
REMARK                         _______ _______ _______ _____ _____    ______ ____
ROOT
ATOM      1 CL   UNL     1      33.998 -15.634 -24.415  0.00  0.00    -0.064 Cl
ATOM      2  O   UNL     1      31.917 -12.615 -20.978  0.00  0.00    -0.266 OA
ATOM      3  N   UNL     1      32.882 -14.053 -22.559  0.00  0.00    -0.233 N 
ATOM      4  N   UNL     1      32.363 -10.396 -22.436  0.00  0.00    -0.310 N 
ATOM      5  N   UNL     1      33.350 -11.737 -24.086  0.00  0.00    -0.223 NA
ATOM      6  C   UNL     1      32.761 -11.612 -22.931  0.00  0.00    +0.183 C 
ATOM      7  C   UNL     1      32.475 -12.820 -22.050  0.00  0.00    +0.285 C 
ATOM      8  C   UNL     1      33.500 -14.107 -23.793  0.00  0.00    +0.133 C 
ATOM      9  C   UNL     1      33.708 -12.989 -24.495  0.00  0.00    +0.127 C 
ATOM     10  H   UNL     1      31.922 -10.360 -21.556  0.00  0.00    +0.149 HD
ENDROOT
BRANCH   4  11
ATOM     11  C   UNL     1      32.567  -9.177 -23.155  0.00  0.00    +0.162 C 
BRANCH  11  14
ATOM     12  F   UNL     1      33.628  -7.871 -21.517  0.00  0.00    -0.196 F 
ATOM     13  F   UNL     1      31.512  -8.273 -21.263  0.00  0.00    -0.196 F 
ATOM     14  C   UNL     1      32.454  -7.983 -22.208  0.00  0.00    +0.317 C 
BRANCH  14  17
ATOM     15  O   UNL     1      31.258  -5.798 -21.031  0.00  0.00    -0.163 OA
ATOM     16  N   UNL     1      31.527  -5.700 -22.274  0.00  0.00    -0.128 N 
ATOM     17  C   UNL     1      32.123  -6.722 -22.969  0.00  0.00    +0.142 C 
ATOM     18  C   UNL     1      32.421  -6.629 -24.315  0.00  0.00    +0.022 C 
ATOM     19  C   UNL     1      31.216  -4.539 -22.955  0.00  0.00    +0.121 C 
ATOM     20  C   UNL     1      32.105  -5.455 -24.991  0.00  0.00    +0.003 C 
ATOM     21  C   UNL     1      31.500  -4.404 -24.310  0.00  0.00    +0.022 C 
ENDBRANCH  14  17
ENDBRANCH  11  14
ENDBRANCH   4  11
BRANCH   3  22
ATOM     22  C   UNL     1      32.644 -15.258 -21.770  0.00  0.00    +0.184 C 
BRANCH  22  25
ATOM     23  O   UNL     1      34.808 -15.162 -20.699  0.00  0.00    -0.273 OA
ATOM     24  N   UNL     1      34.115 -17.151 -21.680  0.00  0.00    -0.299 N 
ATOM     25  C   UNL     1      33.967 -15.825 -21.301  0.00  0.00    +0.243 C 
ATOM     26  H   UNL     1      33.373 -17.586 -22.160  0.00  0.00    +0.150 HD
BRANCH  24  27
ATOM     27  C   UNL     1      35.304 -17.927 -21.405  0.00  0.00    +0.119 C 
BRANCH  27  29
ATOM     28  F   UNL     1      37.287 -19.718 -20.483  0.00  0.00    -0.204 F 
ATOM     29  C   UNL     1      34.977 -19.254 -20.782  0.00  0.00    +0.025 C 
ATOM     30  C   UNL     1      36.004 -20.085 -20.350  0.00  0.00    +0.138 C 
ATOM     31  C   UNL     1      33.648 -19.637 -20.645  0.00  0.00    -0.000 C 
ATOM     32  C   UNL     1      35.697 -21.316 -19.772  0.00  0.00    +0.029 C 
ATOM     33  C   UNL     1      33.342 -20.868 -20.066  0.00  0.00    -0.000 C 
ATOM     34  C   UNL     1      34.366 -21.708 -19.630  0.00  0.00    +0.002 C 
ENDBRANCH  27  29
ENDBRANCH  24  27
ENDBRANCH  22  25
ENDBRANCH   3  22
TORSDOF 7
ENDMDL
MODEL 7
REMARK VINA RESULT:     -11.2      3.431     11.594
REMARK  Name = 656913
REMARK  7 active torsions:
REMARK  status: ('A' for Active; 'I' for Inactive)
REMARK    1  A    between atoms: N_3  and  C_22
REMARK    2  A    between atoms: N_4  and  C_11
REMARK    3  A    between atoms: C_11  and  C_14
REMARK    4  A    between atoms: C_14  and  C_17
REMARK    5  A    between atoms: C_22  and  C_25
REMARK    6  A    between atoms: N_24  and  C_27
REMARK    7  A    between atoms: C_27  and  C_29
REMARK                            x       y       z     vdW  Elec       q    Type
REMARK                         _______ _______ _______ _____ _____    ______ ____
ROOT
ATOM      1 CL   UNL     1      32.122 -15.544 -20.910  0.00  0.00    -0.064 Cl
ATOM      2  O   UNL     1      33.746 -12.566 -24.618  0.00  0.00    -0.266 OA
ATOM      3  N   UNL     1      33.002 -13.985 -22.906  0.00  0.00    -0.233 N 
ATOM      4  N   UNL     1      32.774 -10.338 -23.459  0.00  0.00    -0.310 N 
ATOM      5  N   UNL     1      31.985 -11.660 -21.692  0.00  0.00    -0.223 NA
ATOM      6  C   UNL     1      32.604 -11.546 -22.833  0.00  0.00    +0.183 C 
ATOM      7  C   UNL     1      33.180 -12.760 -23.549  0.00  0.00    +0.285 C 
ATOM      8  C   UNL     1      32.336 -14.027 -21.697  0.00  0.00    +0.133 C 
ATOM      9  C   UNL     1      31.865 -12.904 -21.145  0.00  0.00    +0.127 C 
ATOM     10  H   UNL     1      33.250 -10.311 -24.321  0.00  0.00    +0.149 HD
ENDROOT
BRANCH   4  11
ATOM     11  C   UNL     1      32.285  -9.115 -22.903  0.00  0.00    +0.162 C 
BRANCH  11  14
ATOM     12  F   UNL     1      34.493  -8.593 -23.509  0.00  0.00    -0.196 F 
ATOM     13  F   UNL     1      33.762  -7.819 -21.618  0.00  0.00    -0.196 F 
ATOM     14  C   UNL     1      33.388  -8.057 -22.910  0.00  0.00    +0.317 C 
BRANCH  14  17
ATOM     15  O   UNL     1      31.597  -6.298 -21.772  0.00  0.00    -0.163 OA
ATOM     16  N   UNL     1      32.027  -6.002 -22.936  0.00  0.00    -0.128 N 
ATOM     17  C   UNL     1      32.922  -6.800 -23.604  0.00  0.00    +0.142 C 
ATOM     18  C   UNL     1      33.397  -6.489 -24.864  0.00  0.00    +0.022 C 
ATOM     19  C   UNL     1      31.590  -4.848 -23.557  0.00  0.00    +0.121 C 
ATOM     20  C   UNL     1      32.950  -5.324 -25.479  0.00  0.00    +0.003 C 
ATOM     21  C   UNL     1      32.043  -4.498 -24.824  0.00  0.00    +0.022 C 
ENDBRANCH  14  17
ENDBRANCH  11  14
ENDBRANCH   4  11
BRANCH   3  22
ATOM     22  C   UNL     1      33.525 -15.195 -23.532  0.00  0.00    +0.184 C 
BRANCH  22  25
ATOM     23  O   UNL     1      35.328 -15.125 -21.924  0.00  0.00    -0.273 OA
ATOM     24  N   UNL     1      34.679 -17.172 -22.813  0.00  0.00    -0.299 N 
ATOM     25  C   UNL     1      34.599 -15.797 -22.650  0.00  0.00    +0.243 C 
ATOM     26  H   UNL     1      34.042 -17.609 -23.423  0.00  0.00    +0.150 HD
BRANCH  24  27
ATOM     27  C   UNL     1      35.651 -17.997 -22.129  0.00  0.00    +0.119 C 
BRANCH  27  29
ATOM     28  F   UNL     1      37.121 -19.906 -20.653  0.00  0.00    -0.204 F 
ATOM     29  C   UNL     1      34.997 -19.073 -21.311  0.00  0.00    +0.025 C 
ATOM     30  C   UNL     1      35.783 -19.980 -20.609  0.00  0.00    +0.138 C 
ATOM     31  C   UNL     1      33.611 -19.151 -21.265  0.00  0.00    -0.000 C 
ATOM     32  C   UNL     1      35.174 -20.978 -19.850  0.00  0.00    +0.029 C 
ATOM     33  C   UNL     1      33.001 -20.149 -20.505  0.00  0.00    -0.000 C 
ATOM     34  C   UNL     1      33.782 -21.063 -19.798  0.00  0.00    +0.002 C 
ENDBRANCH  27  29
ENDBRANCH  24  27
ENDBRANCH  22  25
ENDBRANCH   3  22
TORSDOF 7
ENDMDL
MODEL 8
REMARK VINA RESULT:     -11.1      3.599      5.503
REMARK  Name = 656913
REMARK  7 active torsions:
REMARK  status: ('A' for Active; 'I' for Inactive)
REMARK    1  A    between atoms: N_3  and  C_22
REMARK    2  A    between atoms: N_4  and  C_11
REMARK    3  A    between atoms: C_11  and  C_14
REMARK    4  A    between atoms: C_14  and  C_17
REMARK    5  A    between atoms: C_22  and  C_25
REMARK    6  A    between atoms: N_24  and  C_27
REMARK    7  A    between atoms: C_27  and  C_29
REMARK                            x       y       z     vdW  Elec       q    Type
REMARK                         _______ _______ _______ _____ _____    ______ ____
ROOT
ATOM      1 CL   UNL     1      37.320 -19.768 -20.566  0.00  0.00    -0.064 Cl
ATOM      2  O   UNL     1      32.569 -21.370 -20.230  0.00  0.00    -0.266 OA
ATOM      3  N   UNL     1      34.776 -20.600 -20.416  0.00  0.00    -0.233 N 
ATOM      4  N   UNL     1      33.117 -23.040 -18.189  0.00  0.00    -0.310 N 
ATOM      5  N   UNL     1      35.353 -22.344 -18.284  0.00  0.00    -0.223 NA
ATOM      6  C   UNL     1      34.129 -22.284 -18.726  0.00  0.00    +0.183 C 
ATOM      7  C   UNL     1      33.742 -21.365 -19.876  0.00  0.00    +0.285 C 
ATOM      8  C   UNL     1      36.049 -20.717 -19.894  0.00  0.00    +0.133 C 
ATOM      9  C   UNL     1      36.292 -21.554 -18.881  0.00  0.00    +0.127 C 
ATOM     10  H   UNL     1      32.209 -22.954 -18.563  0.00  0.00    +0.149 HD
ENDROOT
BRANCH   4  11
ATOM     11  C   UNL     1      33.334 -23.946 -17.106  0.00  0.00    +0.162 C 
BRANCH  11  14
ATOM     12  F   UNL     1      32.816 -22.030 -15.853  0.00  0.00    -0.196 F 
ATOM     13  F   UNL     1      33.486 -23.786 -14.770  0.00  0.00    -0.196 F 
ATOM     14  C   UNL     1      32.714 -23.392 -15.824  0.00  0.00    +0.317 C 
BRANCH  14  17
ATOM     15  O   UNL     1      30.627 -22.228 -17.196  0.00  0.00    -0.163 OA
ATOM     16  N   UNL     1      30.329 -23.191 -16.414  0.00  0.00    -0.128 N 
ATOM     17  C   UNL     1      31.283 -23.849 -15.678  0.00  0.00    +0.142 C 
ATOM     18  C   UNL     1      30.973 -24.895 -14.829  0.00  0.00    +0.022 C 
ATOM     19  C   UNL     1      29.014 -23.595 -16.292  0.00  0.00    +0.121 C 
ATOM     20  C   UNL     1      29.646 -25.294 -14.714  0.00  0.00    +0.003 C 
ATOM     21  C   UNL     1      28.660 -24.643 -15.448  0.00  0.00    +0.022 C 
ENDBRANCH  14  17
ENDBRANCH  11  14
ENDBRANCH   4  11
BRANCH   3  22
ATOM     22  C   UNL     1      34.483 -19.696 -21.523  0.00  0.00    +0.184 C 
BRANCH  22  25
ATOM     23  O   UNL     1      32.817 -18.166 -20.672  0.00  0.00    -0.273 OA
ATOM     24  N   UNL     1      35.007 -17.432 -20.923  0.00  0.00    -0.299 N 
ATOM     25  C   UNL     1      33.989 -18.372 -20.978  0.00  0.00    +0.243 C 
ATOM     26  H   UNL     1      35.913 -17.708 -21.193  0.00  0.00    +0.150 HD
BRANCH  24  27
ATOM     27  C   UNL     1      34.806 -16.068 -20.488  0.00  0.00    +0.119 C 
BRANCH  27  29
ATOM     28  F   UNL     1      32.482 -14.562 -19.922  0.00  0.00    -0.204 F 
ATOM     29  C   UNL     1      34.095 -15.247 -21.524  0.00  0.00    +0.025 C 
ATOM     30  C   UNL     1      32.956 -14.529 -21.176  0.00  0.00    +0.138 C 
ATOM     31  C   UNL     1      34.585 -15.213 -22.825  0.00  0.00    -0.000 C 
ATOM     32  C   UNL     1      32.299 -13.768 -22.141  0.00  0.00    +0.029 C 
ATOM     33  C   UNL     1      33.927 -14.451 -23.789  0.00  0.00    -0.000 C 
ATOM     34  C   UNL     1      32.784 -13.729 -23.448  0.00  0.00    +0.002 C 
ENDBRANCH  27  29
ENDBRANCH  24  27
ENDBRANCH  22  25
ENDBRANCH   3  22
TORSDOF 7
ENDMDL
MODEL 9
REMARK VINA RESULT:     -11.1      4.929      7.774
REMARK  Name = 656913
REMARK  7 active torsions:
REMARK  status: ('A' for Active; 'I' for Inactive)
REMARK    1  A    between atoms: N_3  and  C_22
REMARK    2  A    between atoms: N_4  and  C_11
REMARK    3  A    between atoms: C_11  and  C_14
REMARK    4  A    between atoms: C_14  and  C_17
REMARK    5  A    between atoms: C_22  and  C_25
REMARK    6  A    between atoms: N_24  and  C_27
REMARK    7  A    between atoms: C_27  and  C_29
REMARK                            x       y       z     vdW  Elec       q    Type
REMARK                         _______ _______ _______ _____ _____    ______ ____
ROOT
ATOM      1 CL   UNL     1      36.993 -21.529 -18.707  0.00  0.00    -0.064 Cl
ATOM      2  O   UNL     1      32.244 -23.116 -18.279  0.00  0.00    -0.266 OA
ATOM      3  N   UNL     1      34.454 -22.369 -18.515  0.00  0.00    -0.233 N 
ATOM      4  N   UNL     1      32.516 -23.702 -15.664  0.00  0.00    -0.310 N 
ATOM      5  N   UNL     1      34.743 -22.980 -15.784  0.00  0.00    -0.223 NA
ATOM      6  C   UNL     1      33.589 -23.192 -16.351  0.00  0.00    +0.183 C 
ATOM      7  C   UNL     1      33.359 -22.886 -17.824  0.00  0.00    +0.285 C 
ATOM      8  C   UNL     1      35.646 -22.170 -17.846  0.00  0.00    +0.133 C 
ATOM      9  C   UNL     1      35.751 -22.470 -16.548  0.00  0.00    +0.127 C 
ATOM     10  H   UNL     1      31.667 -23.842 -16.144  0.00  0.00    +0.149 HD
ENDROOT
BRANCH   4  11
ATOM     11  C   UNL     1      32.587 -24.036 -14.277  0.00  0.00    +0.162 C 
BRANCH  11  14
ATOM     12  F   UNL     1      31.235 -22.874 -12.748  0.00  0.00    -0.196 F 
ATOM     13  F   UNL     1      30.987 -25.026 -12.873  0.00  0.00    -0.196 F 
ATOM     14  C   UNL     1      31.205 -23.914 -13.635  0.00  0.00    +0.317 C 
BRANCH  14  17
ATOM     15  O   UNL     1      30.208 -26.002 -15.131  0.00  0.00    -0.163 OA
ATOM     16  N   UNL     1      29.722 -24.847 -15.367  0.00  0.00    -0.128 N 
ATOM     17  C   UNL     1      30.138 -23.731 -14.686  0.00  0.00    +0.142 C 
ATOM     18  C   UNL     1      29.617 -22.474 -14.931  0.00  0.00    +0.022 C 
ATOM     19  C   UNL     1      28.745 -24.698 -16.334  0.00  0.00    +0.121 C 
ATOM     20  C   UNL     1      28.635 -22.335 -15.906  0.00  0.00    +0.003 C 
ATOM     21  C   UNL     1      28.195 -23.451 -16.612  0.00  0.00    +0.022 C 
ENDBRANCH  14  17
ENDBRANCH  11  14
ENDBRANCH   4  11
BRANCH   3  22
ATOM     22  C   UNL     1      34.311 -22.052 -19.932  0.00  0.00    +0.184 C 
BRANCH  22  25
ATOM     23  O   UNL     1      32.704 -20.250 -19.827  0.00  0.00    -0.273 OA
ATOM     24  N   UNL     1      34.853 -19.810 -20.597  0.00  0.00    -0.299 N 
ATOM     25  C   UNL     1      33.848 -20.618 -20.086  0.00  0.00    +0.243 C 
ATOM     26  H   UNL     1      35.735 -20.213 -20.768  0.00  0.00    +0.150 HD
BRANCH  24  27
ATOM     27  C   UNL     1      34.670 -18.406 -20.891  0.00  0.00    +0.119 C 
BRANCH  27  29
ATOM     28  F   UNL     1      34.867 -15.802 -21.972  0.00  0.00    -0.204 F 
ATOM     29  C   UNL     1      34.676 -18.136 -22.368  0.00  0.00    +0.025 C 
ATOM     30  C   UNL     1      34.777 -16.828 -22.830  0.00  0.00    +0.138 C 
ATOM     31  C   UNL     1      34.582 -19.198 -23.259  0.00  0.00    -0.000 C 
ATOM     32  C   UNL     1      34.783 -16.581 -24.202  0.00  0.00    +0.029 C 
ATOM     33  C   UNL     1      34.588 -18.950 -24.631  0.00  0.00    -0.000 C 
ATOM     34  C   UNL     1      34.688 -17.642 -25.103  0.00  0.00    +0.002 C 
ENDBRANCH  27  29
ENDBRANCH  24  27
ENDBRANCH  22  25
ENDBRANCH   3  22
TORSDOF 7
ENDMDL
