MODEL 1
REMARK VINA RESULT:      -9.3      0.000      0.000
REMARK  Name = 1289593
REMARK  3 active torsions:
REMARK  status: ('A' for Active; 'I' for Inactive)
REMARK    1  A    between atoms: N_3  and  C_12
REMARK    2  A    between atoms: C_12  and  C_13
REMARK    3  A    between atoms: C_13  and  C_18
REMARK                            x       y       z     vdW  Elec       q    Type
REMARK                         _______ _______ _______ _____ _____    ______ ____
ROOT
ATOM      1  O   UNL     1      35.192 -23.183 -16.923  0.00  0.00    -0.269 OA
ATOM      2  O   UNL     1      34.436 -24.350 -12.503  0.00  0.00    -0.269 OA
ATOM      3  N   UNL     1      35.236 -23.823 -14.656  0.00  0.00    -0.222 N 
ATOM      4  C   UNL     1      33.227 -23.417 -15.620  0.00  0.00    +0.058 C 
ATOM      5  C   UNL     1      33.001 -23.768 -14.297  0.00  0.00    +0.058 C 
ATOM      6  C   UNL     1      34.670 -23.449 -15.856  0.00  0.00    +0.255 C 
ATOM      7  C   UNL     1      34.296 -24.026 -13.669  0.00  0.00    +0.255 C 
ATOM      8  C   UNL     1      32.194 -23.110 -16.480  0.00  0.00    +0.005 C 
ATOM      9  C   UNL     1      31.730 -23.826 -13.764  0.00  0.00    +0.005 C 
ATOM     10  C   UNL     1      30.896 -23.165 -15.963  0.00  0.00    +0.000 C 
ATOM     11  C   UNL     1      30.666 -23.519 -14.618  0.00  0.00    +0.000 C 
ENDROOT
BRANCH   3  12
ATOM     12  C   UNL     1      36.662 -23.984 -14.455  0.00  0.00    +0.117 C 
BRANCH  12  13
ATOM     13  C   UNL     1      37.184 -25.317 -14.989  0.00  0.00    +0.124 C 
BRANCH  13  18
ATOM     14  N   UNL     1      39.147 -26.681 -14.405  0.00  0.00    -0.114 NA
ATOM     15  N   UNL     1      39.534 -24.509 -14.913  0.00  0.00    -0.091 NA
ATOM     16  N   UNL     1      40.437 -26.327 -14.342  0.00  0.00    -0.140 N 
ATOM     17  N   UNL     1      40.714 -25.048 -14.635  0.00  0.00    -0.022 NA
ATOM     18  C   UNL     1      38.655 -25.514 -14.762  0.00  0.00    +0.052 C 
ATOM     19  H   UNL     1      41.142 -26.968 -14.093  0.00  0.00    +0.197 HD
ENDBRANCH  13  18
ENDBRANCH  12  13
ENDBRANCH   3  12
TORSDOF 3
ENDMDL
MODEL 2
REMARK VINA RESULT:      -9.2      0.122      2.077
REMARK  Name = 1289593
REMARK  3 active torsions:
REMARK  status: ('A' for Active; 'I' for Inactive)
REMARK    1  A    between atoms: N_3  and  C_12
REMARK    2  A    between atoms: C_12  and  C_13
REMARK    3  A    between atoms: C_13  and  C_18
REMARK                            x       y       z     vdW  Elec       q    Type
REMARK                         _______ _______ _______ _____ _____    ______ ____
ROOT
ATOM      1  O   UNL     1      34.270 -24.334 -12.511  0.00  0.00    -0.269 OA
ATOM      2  O   UNL     1      35.162 -23.310 -16.940  0.00  0.00    -0.269 OA
ATOM      3  N   UNL     1      35.137 -23.867 -14.652  0.00  0.00    -0.222 N 
ATOM      4  C   UNL     1      32.895 -23.742 -14.348  0.00  0.00    +0.058 C 
ATOM      5  C   UNL     1      33.163 -23.434 -15.674  0.00  0.00    +0.058 C 
ATOM      6  C   UNL     1      34.168 -24.025 -13.684  0.00  0.00    +0.255 C 
ATOM      7  C   UNL     1      34.609 -23.518 -15.876  0.00  0.00    +0.255 C 
ATOM      8  C   UNL     1      31.611 -23.750 -13.846  0.00  0.00    +0.005 C 
ATOM      9  C   UNL     1      32.160 -23.122 -16.568  0.00  0.00    +0.005 C 
ATOM     10  C   UNL     1      30.578 -23.435 -14.733  0.00  0.00    +0.000 C 
ATOM     11  C   UNL     1      30.849 -23.124 -16.081  0.00  0.00    +0.000 C 
ENDROOT
BRANCH   3  12
ATOM     12  C   UNL     1      36.554 -24.048 -14.407  0.00  0.00    +0.117 C 
BRANCH  12  13
ATOM     13  C   UNL     1      37.087 -25.357 -14.988  0.00  0.00    +0.124 C 
BRANCH  13  18
ATOM     14  N   UNL     1      39.073 -26.718 -14.480  0.00  0.00    -0.114 NA
ATOM     15  N   UNL     1      39.426 -24.519 -14.887  0.00  0.00    -0.091 NA
ATOM     16  N   UNL     1      40.359 -26.349 -14.406  0.00  0.00    -0.140 N 
ATOM     17  N   UNL     1      40.615 -25.054 -14.640  0.00  0.00    -0.022 NA
ATOM     18  C   UNL     1      38.563 -25.543 -14.778  0.00  0.00    +0.052 C 
ATOM     19  H   UNL     1      41.074 -26.991 -14.192  0.00  0.00    +0.197 HD
ENDBRANCH  13  18
ENDBRANCH  12  13
ENDBRANCH   3  12
TORSDOF 3
ENDMDL
MODEL 3
REMARK VINA RESULT:      -9.2      3.627      5.015
REMARK  Name = 1289593
REMARK  3 active torsions:
REMARK  status: ('A' for Active; 'I' for Inactive)
REMARK    1  A    between atoms: N_3  and  C_12
REMARK    2  A    between atoms: C_12  and  C_13
REMARK    3  A    between atoms: C_13  and  C_18
REMARK                            x       y       z     vdW  Elec       q    Type
REMARK                         _______ _______ _______ _____ _____    ______ ____
ROOT
ATOM      1  O   UNL     1      32.186 -22.376 -18.211  0.00  0.00    -0.269 OA
ATOM      2  O   UNL     1      36.810 -22.111 -18.326  0.00  0.00    -0.269 OA
ATOM      3  N   UNL     1      34.522 -22.509 -17.932  0.00  0.00    -0.222 N 
ATOM      4  C   UNL     1      33.710 -21.171 -19.569  0.00  0.00    +0.058 C 
ATOM      5  C   UNL     1      35.094 -21.091 -19.602  0.00  0.00    +0.058 C 
ATOM      6  C   UNL     1      33.335 -22.089 -18.493  0.00  0.00    +0.255 C 
ATOM      7  C   UNL     1      35.624 -21.957 -18.550  0.00  0.00    +0.255 C 
ATOM      8  C   UNL     1      32.916 -20.463 -20.447  0.00  0.00    +0.005 C 
ATOM      9  C   UNL     1      35.758 -20.301 -20.518  0.00  0.00    +0.005 C 
ATOM     10  C   UNL     1      33.567 -19.654 -21.383  0.00  0.00    +0.000 C 
ATOM     11  C   UNL     1      34.973 -19.574 -21.419  0.00  0.00    +0.000 C 
ENDROOT
BRANCH   3  12
ATOM     12  C   UNL     1      34.602 -23.431 -16.816  0.00  0.00    +0.117 C 
BRANCH  12  13
ATOM     13  C   UNL     1      35.421 -22.875 -15.653  0.00  0.00    +0.124 C 
BRANCH  13  18
ATOM     14  N   UNL     1      36.607 -25.021 -15.447  0.00  0.00    -0.114 NA
ATOM     15  N   UNL     1      37.764 -23.162 -14.871  0.00  0.00    -0.091 NA
ATOM     16  N   UNL     1      37.860 -25.263 -15.038  0.00  0.00    -0.140 N 
ATOM     17  N   UNL     1      38.583 -24.191 -14.686  0.00  0.00    -0.022 NA
ATOM     18  C   UNL     1      36.622 -23.712 -15.317  0.00  0.00    +0.052 C 
ATOM     19  H   UNL     1      38.228 -26.175 -14.998  0.00  0.00    +0.197 HD
ENDBRANCH  13  18
ENDBRANCH  12  13
ENDBRANCH   3  12
TORSDOF 3
ENDMDL
MODEL 4
REMARK VINA RESULT:      -9.1      2.096      3.174
REMARK  Name = 1289593
REMARK  3 active torsions:
REMARK  status: ('A' for Active; 'I' for Inactive)
REMARK    1  A    between atoms: N_3  and  C_12
REMARK    2  A    between atoms: C_12  and  C_13
REMARK    3  A    between atoms: C_13  and  C_18
REMARK                            x       y       z     vdW  Elec       q    Type
REMARK                         _______ _______ _______ _____ _____    ______ ____
ROOT
ATOM      1  O   UNL     1      37.945 -22.262 -16.012  0.00  0.00    -0.269 OA
ATOM      2  O   UNL     1      33.726 -24.022 -15.257  0.00  0.00    -0.269 OA
ATOM      3  N   UNL     1      35.965 -23.291 -15.253  0.00  0.00    -0.222 N 
ATOM      4  C   UNL     1      35.959 -22.328 -17.303  0.00  0.00    +0.058 C 
ATOM      5  C   UNL     1      34.696 -22.856 -17.077  0.00  0.00    +0.058 C 
ATOM      6  C   UNL     1      36.782 -22.604 -16.125  0.00  0.00    +0.255 C 
ATOM      7  C   UNL     1      34.694 -23.475 -15.752  0.00  0.00    +0.255 C 
ATOM      8  C   UNL     1      36.277 -21.674 -18.474  0.00  0.00    +0.005 C 
ATOM      9  C   UNL     1      33.685 -22.754 -18.009  0.00  0.00    +0.005 C 
ATOM     10  C   UNL     1      35.269 -21.560 -19.435  0.00  0.00    +0.000 C 
ATOM     11  C   UNL     1      33.985 -22.094 -19.205  0.00  0.00    +0.000 C 
ENDROOT
BRANCH   3  12
ATOM     12  C   UNL     1      36.396 -23.766 -13.953  0.00  0.00    +0.117 C 
BRANCH  12  13
ATOM     13  C   UNL     1      36.730 -25.256 -13.954  0.00  0.00    +0.124 C 
BRANCH  13  18
ATOM     14  N   UNL     1      39.115 -24.671 -13.789  0.00  0.00    -0.114 NA
ATOM     15  N   UNL     1      38.623 -26.686 -14.698  0.00  0.00    -0.091 NA
ATOM     16  N   UNL     1      40.190 -25.378 -14.163  0.00  0.00    -0.140 N 
ATOM     17  N   UNL     1      39.947 -26.579 -14.706  0.00  0.00    -0.022 NA
ATOM     18  C   UNL     1      38.193 -25.538 -14.149  0.00  0.00    +0.052 C 
ATOM     19  H   UNL     1      41.105 -25.036 -14.045  0.00  0.00    +0.197 HD
ENDBRANCH  13  18
ENDBRANCH  12  13
ENDBRANCH   3  12
TORSDOF 3
ENDMDL
MODEL 5
REMARK VINA RESULT:      -9.1      1.952      3.088
REMARK  Name = 1289593
REMARK  3 active torsions:
REMARK  status: ('A' for Active; 'I' for Inactive)
REMARK    1  A    between atoms: N_3  and  C_12
REMARK    2  A    between atoms: C_12  and  C_13
REMARK    3  A    between atoms: C_13  and  C_18
REMARK                            x       y       z     vdW  Elec       q    Type
REMARK                         _______ _______ _______ _____ _____    ______ ____
ROOT
ATOM      1  O   UNL     1      33.832 -24.316 -14.627  0.00  0.00    -0.269 OA
ATOM      2  O   UNL     1      37.904 -22.413 -15.750  0.00  0.00    -0.269 OA
ATOM      3  N   UNL     1      36.027 -23.477 -14.806  0.00  0.00    -0.222 N 
ATOM      4  C   UNL     1      34.606 -23.150 -16.539  0.00  0.00    +0.058 C 
ATOM      5  C   UNL     1      35.826 -22.579 -16.875  0.00  0.00    +0.058 C 
ATOM      6  C   UNL     1      34.732 -23.734 -15.204  0.00  0.00    +0.255 C 
ATOM      7  C   UNL     1      36.748 -22.791 -15.760  0.00  0.00    +0.255 C 
ATOM      8  C   UNL     1      33.525 -23.116 -17.394  0.00  0.00    +0.005 C 
ATOM      9  C   UNL     1      36.027 -21.947 -18.084  0.00  0.00    +0.005 C 
ATOM     10  C   UNL     1      33.705 -22.479 -18.625  0.00  0.00    +0.000 C 
ATOM     11  C   UNL     1      34.944 -21.900 -18.967  0.00  0.00    +0.000 C 
ENDROOT
BRANCH   3  12
ATOM     12  C   UNL     1      36.570 -23.883 -13.524  0.00  0.00    +0.117 C 
BRANCH  12  13
ATOM     13  C   UNL     1      37.022 -25.342 -13.515  0.00  0.00    +0.124 C 
BRANCH  13  18
ATOM     14  N   UNL     1      38.897 -26.590 -14.506  0.00  0.00    -0.114 NA
ATOM     15  N   UNL     1      39.391 -24.588 -13.570  0.00  0.00    -0.091 NA
ATOM     16  N   UNL     1      40.193 -26.259 -14.579  0.00  0.00    -0.140 N 
ATOM     17  N   UNL     1      40.532 -25.080 -14.037  0.00  0.00    -0.022 NA
ATOM     18  C   UNL     1      38.470 -25.518 -13.875  0.00  0.00    +0.052 C 
ATOM     19  H   UNL     1      40.859 -26.846 -15.004  0.00  0.00    +0.197 HD
ENDBRANCH  13  18
ENDBRANCH  12  13
ENDBRANCH   3  12
TORSDOF 3
ENDMDL
MODEL 6
REMARK VINA RESULT:      -9.0      8.778     10.271
REMARK  Name = 1289593
REMARK  3 active torsions:
REMARK  status: ('A' for Active; 'I' for Inactive)
REMARK    1  A    between atoms: N_3  and  C_12
REMARK    2  A    between atoms: C_12  and  C_13
REMARK    3  A    between atoms: C_13  and  C_18
REMARK                            x       y       z     vdW  Elec       q    Type
REMARK                         _______ _______ _______ _____ _____    ______ ____
ROOT
ATOM      1  O   UNL     1      35.009 -18.322 -24.326  0.00  0.00    -0.269 OA
ATOM      2  O   UNL     1      34.983 -15.909 -20.370  0.00  0.00    -0.269 OA
ATOM      3  N   UNL     1      35.164 -17.452 -22.141  0.00  0.00    -0.222 N 
ATOM      4  C   UNL     1      34.273 -16.142 -23.759  0.00  0.00    +0.058 C 
ATOM      5  C   UNL     1      34.264 -15.420 -22.574  0.00  0.00    +0.058 C 
ATOM      6  C   UNL     1      34.856 -17.455 -23.485  0.00  0.00    +0.255 C 
ATOM      7  C   UNL     1      34.843 -16.261 -21.527  0.00  0.00    +0.255 C 
ATOM      8  C   UNL     1      33.789 -15.615 -24.938  0.00  0.00    +0.005 C 
ATOM      9  C   UNL     1      33.774 -14.133 -22.507  0.00  0.00    +0.005 C 
ATOM     10  C   UNL     1      33.285 -14.312 -24.894  0.00  0.00    +0.000 C 
ATOM     11  C   UNL     1      33.278 -13.577 -23.691  0.00  0.00    +0.000 C 
ENDROOT
BRANCH   3  12
ATOM     12  C   UNL     1      35.761 -18.579 -21.451  0.00  0.00    +0.117 C 
BRANCH  12  13
ATOM     13  C   UNL     1      34.733 -19.640 -21.062  0.00  0.00    +0.124 C 
BRANCH  13  18
ATOM     14  N   UNL     1      36.470 -20.541 -19.570  0.00  0.00    -0.114 NA
ATOM     15  N   UNL     1      34.488 -21.636 -19.599  0.00  0.00    -0.091 NA
ATOM     16  N   UNL     1      36.420 -21.603 -18.754  0.00  0.00    -0.140 N 
ATOM     17  N   UNL     1      35.265 -22.282 -18.739  0.00  0.00    -0.022 NA
ATOM     18  C   UNL     1      35.249 -20.626 -20.053  0.00  0.00    +0.052 C 
ATOM     19  H   UNL     1      37.188 -21.870 -18.199  0.00  0.00    +0.197 HD
ENDBRANCH  13  18
ENDBRANCH  12  13
ENDBRANCH   3  12
TORSDOF 3
ENDMDL
MODEL 7
REMARK VINA RESULT:      -8.9      8.669     10.311
REMARK  Name = 1289593
REMARK  3 active torsions:
REMARK  status: ('A' for Active; 'I' for Inactive)
REMARK    1  A    between atoms: N_3  and  C_12
REMARK    2  A    between atoms: C_12  and  C_13
REMARK    3  A    between atoms: C_13  and  C_18
REMARK                            x       y       z     vdW  Elec       q    Type
REMARK                         _______ _______ _______ _____ _____    ______ ____
ROOT
ATOM      1  O   UNL     1      34.953 -16.038 -20.518  0.00  0.00    -0.269 OA
ATOM      2  O   UNL     1      35.096 -18.717 -24.296  0.00  0.00    -0.269 OA
ATOM      3  N   UNL     1      35.204 -17.693 -22.177  0.00  0.00    -0.222 N 
ATOM      4  C   UNL     1      34.332 -15.691 -22.779  0.00  0.00    +0.058 C 
ATOM      5  C   UNL     1      34.376 -16.493 -23.910  0.00  0.00    +0.058 C 
ATOM      6  C   UNL     1      34.864 -16.463 -21.656  0.00  0.00    +0.255 C 
ATOM      7  C   UNL     1      34.935 -17.789 -23.525  0.00  0.00    +0.255 C 
ATOM      8  C   UNL     1      33.850 -14.399 -22.818  0.00  0.00    +0.005 C 
ATOM      9  C   UNL     1      33.938 -16.046 -25.139  0.00  0.00    +0.005 C 
ATOM     10  C   UNL     1      33.401 -13.924 -24.053  0.00  0.00    +0.000 C 
ATOM     11  C   UNL     1      33.444 -14.739 -25.202  0.00  0.00    +0.000 C 
ENDROOT
BRANCH   3  12
ATOM     12  C   UNL     1      35.781 -18.767 -21.393  0.00  0.00    +0.117 C 
BRANCH  12  13
ATOM     13  C   UNL     1      34.738 -19.783 -20.932  0.00  0.00    +0.124 C 
BRANCH  13  18
ATOM     14  N   UNL     1      36.444 -20.588 -19.351  0.00  0.00    -0.114 NA
ATOM     15  N   UNL     1      34.541 -21.805 -19.499  0.00  0.00    -0.091 NA
ATOM     16  N   UNL     1      36.418 -21.659 -18.547  0.00  0.00    -0.140 N 
ATOM     17  N   UNL     1      35.309 -22.411 -18.601  0.00  0.00    -0.022 NA
ATOM     18  C   UNL     1      35.260 -20.745 -19.902  0.00  0.00    +0.052 C 
ATOM     19  H   UNL     1      37.169 -21.882 -17.952  0.00  0.00    +0.197 HD
ENDBRANCH  13  18
ENDBRANCH  12  13
ENDBRANCH   3  12
TORSDOF 3
ENDMDL
MODEL 8
REMARK VINA RESULT:      -8.8      9.131     10.703
REMARK  Name = 1289593
REMARK  3 active torsions:
REMARK  status: ('A' for Active; 'I' for Inactive)
REMARK    1  A    between atoms: N_3  and  C_12
REMARK    2  A    between atoms: C_12  and  C_13
REMARK    3  A    between atoms: C_13  and  C_18
REMARK                            x       y       z     vdW  Elec       q    Type
REMARK                         _______ _______ _______ _____ _____    ______ ____
ROOT
ATOM      1  O   UNL     1      35.036 -16.379 -20.148  0.00  0.00    -0.269 OA
ATOM      2  O   UNL     1      34.377 -16.401 -24.734  0.00  0.00    -0.269 OA
ATOM      3  N   UNL     1      34.971 -16.727 -22.478  0.00  0.00    -0.222 N 
ATOM      4  C   UNL     1      33.785 -15.000 -21.615  0.00  0.00    +0.058 C 
ATOM      5  C   UNL     1      33.589 -15.006 -22.988  0.00  0.00    +0.058 C 
ATOM      6  C   UNL     1      34.676 -16.112 -21.279  0.00  0.00    +0.255 C 
ATOM      7  C   UNL     1      34.350 -16.123 -23.549  0.00  0.00    +0.255 C 
ATOM      8  C   UNL     1      33.194 -14.060 -20.797  0.00  0.00    +0.005 C 
ATOM      9  C   UNL     1      32.789 -14.075 -23.615  0.00  0.00    +0.005 C 
ATOM     10  C   UNL     1      32.379 -13.104 -21.411  0.00  0.00    +0.000 C 
ATOM     11  C   UNL     1      32.178 -13.111 -22.806  0.00  0.00    +0.000 C 
ENDROOT
BRANCH   3  12
ATOM     12  C   UNL     1      35.839 -17.881 -22.596  0.00  0.00    +0.117 C 
BRANCH  12  13
ATOM     13  C   UNL     1      35.114 -19.193 -22.300  0.00  0.00    +0.124 C 
BRANCH  13  18
ATOM     14  N   UNL     1      34.801 -20.744 -20.415  0.00  0.00    -0.114 NA
ATOM     15  N   UNL     1      36.685 -19.489 -20.396  0.00  0.00    -0.091 NA
ATOM     16  N   UNL     1      35.592 -20.964 -19.357  0.00  0.00    -0.140 N 
ATOM     17  N   UNL     1      36.721 -20.242 -19.304  0.00  0.00    -0.022 NA
ATOM     18  C   UNL     1      35.537 -19.828 -21.006  0.00  0.00    +0.052 C 
ATOM     19  H   UNL     1      35.359 -21.617 -18.659  0.00  0.00    +0.197 HD
ENDBRANCH  13  18
ENDBRANCH  12  13
ENDBRANCH   3  12
TORSDOF 3
ENDMDL
MODEL 9
REMARK VINA RESULT:      -8.7      4.504      7.705
REMARK  Name = 1289593
REMARK  3 active torsions:
REMARK  status: ('A' for Active; 'I' for Inactive)
REMARK    1  A    between atoms: N_3  and  C_12
REMARK    2  A    between atoms: C_12  and  C_13
REMARK    3  A    between atoms: C_13  and  C_18
REMARK                            x       y       z     vdW  Elec       q    Type
REMARK                         _______ _______ _______ _____ _____    ______ ____
ROOT
ATOM      1  O   UNL     1      32.022 -22.912 -17.320  0.00  0.00    -0.269 OA
ATOM      2  O   UNL     1      31.707 -25.047 -13.220  0.00  0.00    -0.269 OA
ATOM      3  N   UNL     1      31.442 -24.032 -15.330  0.00  0.00    -0.222 N 
ATOM      4  C   UNL     1      33.599 -23.403 -15.621  0.00  0.00    +0.058 C 
ATOM      5  C   UNL     1      33.504 -24.041 -14.392  0.00  0.00    +0.058 C 
ATOM      6  C   UNL     1      32.270 -23.396 -16.231  0.00  0.00    +0.255 C 
ATOM      7  C   UNL     1      32.113 -24.453 -14.202  0.00  0.00    +0.255 C 
ATOM      8  C   UNL     1      34.793 -22.897 -16.089  0.00  0.00    +0.005 C 
ATOM      9  C   UNL     1      34.599 -24.209 -13.571  0.00  0.00    +0.005 C 
ATOM     10  C   UNL     1      35.916 -23.054 -15.273  0.00  0.00    +0.000 C 
ATOM     11  C   UNL     1      35.821 -23.705 -14.026  0.00  0.00    +0.000 C 
ENDROOT
BRANCH   3  12
ATOM     12  C   UNL     1      30.023 -24.234 -15.545  0.00  0.00    +0.117 C 
BRANCH  12  13
ATOM     13  C   UNL     1      29.211 -22.956 -15.340  0.00  0.00    +0.124 C 
BRANCH  13  18
ATOM     14  N   UNL     1      27.367 -21.701 -16.379  0.00  0.00    -0.114 NA
ATOM     15  N   UNL     1      28.189 -23.455 -17.551  0.00  0.00    -0.091 NA
ATOM     16  N   UNL     1      26.763 -21.901 -17.558  0.00  0.00    -0.140 N 
ATOM     17  N   UNL     1      27.217 -22.930 -18.287  0.00  0.00    -0.022 NA
ATOM     18  C   UNL     1      28.229 -22.692 -16.446  0.00  0.00    +0.052 C 
ATOM     19  H   UNL     1      26.027 -21.327 -17.871  0.00  0.00    +0.197 HD
ENDBRANCH  13  18
ENDBRANCH  12  13
ENDBRANCH   3  12
TORSDOF 3
ENDMDL
