MODEL 1
REMARK VINA RESULT:     -10.9      0.000      0.000
REMARK  Name = 447958
REMARK  3 active torsions:
REMARK  status: ('A' for Active; 'I' for Inactive)
REMARK    1  A    between atoms: N_1  and  C_16
REMARK    2  A    between atoms: C_4  and  C_11
REMARK    3  A    between atoms: C_17  and  C_25
REMARK                            x       y       z     vdW  Elec       q    Type
REMARK                         _______ _______ _______ _____ _____    ______ ____
ROOT
ATOM      1  N   UNL     1      32.663 -21.940 -18.616  0.00  0.00    -0.247 N 
ATOM      2  N   UNL     1      34.266 -22.838 -17.156  0.00  0.00    -0.341 NA
ATOM      3  N   UNL     1      31.929 -23.367 -16.905  0.00  0.00    -0.170 NA
ATOM      4  C   UNL     1      34.521 -23.625 -16.091  0.00  0.00    +0.140 C 
ATOM      5  C   UNL     1      32.967 -22.753 -17.507  0.00  0.00    +0.148 C 
ATOM      6  C   UNL     1      33.546 -24.305 -15.390  0.00  0.00    +0.051 C 
ATOM      7  C   UNL     1      32.255 -24.137 -15.847  0.00  0.00    +0.114 C 
ATOM      8  H   UNL     1      31.704 -21.908 -18.832  0.00  0.00    +0.165 HD
ENDROOT
BRANCH   4  11
ATOM      9  S   UNL     1      36.473 -25.067 -14.835  0.00  0.00    -0.074 S 
ATOM     10  N   UNL     1      38.190 -23.241 -15.465  0.00  0.00    -0.407 NA
ATOM     11  C   UNL     1      35.909 -23.712 -15.724  0.00  0.00    +0.155 C 
ATOM     12  C   UNL     1      36.963 -22.850 -15.964  0.00  0.00    +0.104 C 
ATOM     13  C   UNL     1      38.052 -24.394 -14.851  0.00  0.00    +0.135 C 
ATOM     14  C   UNL     1      36.892 -21.571 -16.700  0.00  0.00    +0.063 C 
ATOM     15  C   UNL     1      39.153 -25.130 -14.193  0.00  0.00    +0.074 C 
ENDBRANCH   4  11
BRANCH   1  16
ATOM     16  C   UNL     1      33.464 -21.161 -19.477  0.00  0.00    +0.058 C 
ATOM     17  C   UNL     1      35.045 -19.618 -21.181  0.00  0.00    +0.072 C 
ATOM     18  C   UNL     1      32.882 -20.152 -20.247  0.00  0.00    +0.015 C 
ATOM     19  C   UNL     1      34.836 -21.397 -19.559  0.00  0.00    +0.015 C 
ATOM     20  C   UNL     1      33.673 -19.381 -21.099  0.00  0.00    +0.005 C 
ATOM     21  C   UNL     1      35.627 -20.626 -20.411  0.00  0.00    +0.005 C 
BRANCH  17  25
ATOM     22  F   UNL     1      37.228 -18.878 -21.823  0.00  0.00    -0.166 F 
ATOM     23  F   UNL     1      35.771 -19.138 -23.410  0.00  0.00    -0.166 F 
ATOM     24  F   UNL     1      35.588 -17.465 -22.032  0.00  0.00    -0.166 F 
ATOM     25  C   UNL     1      35.890 -18.795 -22.092  0.00  0.00    +0.419 C 
ENDBRANCH  17  25
ENDBRANCH   1  16
TORSDOF 3
ENDMDL
MODEL 2
REMARK VINA RESULT:     -10.8      6.328      9.800
REMARK  Name = 447958
REMARK  3 active torsions:
REMARK  status: ('A' for Active; 'I' for Inactive)
REMARK    1  A    between atoms: N_1  and  C_16
REMARK    2  A    between atoms: C_4  and  C_11
REMARK    3  A    between atoms: C_17  and  C_25
REMARK                            x       y       z     vdW  Elec       q    Type
REMARK                         _______ _______ _______ _____ _____    ______ ____
ROOT
ATOM      1  N   UNL     1      34.850 -17.627 -24.455  0.00  0.00    -0.247 N 
ATOM      2  N   UNL     1      33.801 -15.748 -23.520  0.00  0.00    -0.341 NA
ATOM      3  N   UNL     1      34.022 -15.982 -25.908  0.00  0.00    -0.170 NA
ATOM      4  C   UNL     1      33.175 -14.571 -23.730  0.00  0.00    +0.140 C 
ATOM      5  C   UNL     1      34.193 -16.394 -24.636  0.00  0.00    +0.148 C 
ATOM      6  C   UNL     1      32.941 -14.041 -24.982  0.00  0.00    +0.051 C 
ATOM      7  C   UNL     1      33.390 -14.798 -26.045  0.00  0.00    +0.114 C 
ATOM      8  H   UNL     1      35.118 -18.060 -25.298  0.00  0.00    +0.165 HD
ENDROOT
BRANCH   4  11
ATOM      9  S   UNL     1      32.138 -12.292 -22.637  0.00  0.00    -0.074 S 
ATOM     10  N   UNL     1      32.283 -13.380 -20.297  0.00  0.00    -0.407 NA
ATOM     11  C   UNL     1      32.759 -13.889 -22.534  0.00  0.00    +0.155 C 
ATOM     12  C   UNL     1      32.760 -14.297 -21.214  0.00  0.00    +0.104 C 
ATOM     13  C   UNL     1      31.928 -12.287 -20.934  0.00  0.00    +0.135 C 
ATOM     14  C   UNL     1      33.216 -15.608 -20.707  0.00  0.00    +0.063 C 
ATOM     15  C   UNL     1      31.365 -11.084 -20.282  0.00  0.00    +0.074 C 
ENDBRANCH   4  11
BRANCH   1  16
ATOM     16  C   UNL     1      35.201 -18.363 -23.305  0.00  0.00    +0.058 C 
ATOM     17  C   UNL     1      35.895 -19.819 -21.028  0.00  0.00    +0.072 C 
ATOM     18  C   UNL     1      36.450 -18.176 -22.710  0.00  0.00    +0.015 C 
ATOM     19  C   UNL     1      34.299 -19.277 -22.759  0.00  0.00    +0.015 C 
ATOM     20  C   UNL     1      36.796 -18.904 -21.572  0.00  0.00    +0.005 C 
ATOM     21  C   UNL     1      34.646 -20.005 -21.621  0.00  0.00    +0.005 C 
BRANCH  17  25
ATOM     22  F   UNL     1      37.009 -21.712 -20.081  0.00  0.00    -0.166 F 
ATOM     23  F   UNL     1      37.007 -19.886 -18.911  0.00  0.00    -0.166 F 
ATOM     24  F   UNL     1      35.176 -21.043 -19.120  0.00  0.00    -0.166 F 
ATOM     25  C   UNL     1      36.266 -20.597 -19.812  0.00  0.00    +0.419 C 
ENDBRANCH  17  25
ENDBRANCH   1  16
TORSDOF 3
ENDMDL
MODEL 3
REMARK VINA RESULT:     -10.3      7.105      9.930
REMARK  Name = 447958
REMARK  3 active torsions:
REMARK  status: ('A' for Active; 'I' for Inactive)
REMARK    1  A    between atoms: N_1  and  C_16
REMARK    2  A    between atoms: C_4  and  C_11
REMARK    3  A    between atoms: C_17  and  C_25
REMARK                            x       y       z     vdW  Elec       q    Type
REMARK                         _______ _______ _______ _____ _____    ______ ____
ROOT
ATOM      1  N   UNL     1      32.551 -13.203 -24.055  0.00  0.00    -0.247 N 
ATOM      2  N   UNL     1      33.629 -15.169 -23.364  0.00  0.00    -0.341 NA
ATOM      3  N   UNL     1      33.286 -14.702 -25.703  0.00  0.00    -0.170 NA
ATOM      4  C   UNL     1      34.231 -16.322 -23.720  0.00  0.00    +0.140 C 
ATOM      5  C   UNL     1      33.185 -14.415 -24.389  0.00  0.00    +0.148 C 
ATOM      6  C   UNL     1      34.395 -16.729 -25.028  0.00  0.00    +0.051 C 
ATOM      7  C   UNL     1      33.899 -15.870 -25.988  0.00  0.00    +0.114 C 
ATOM      8  H   UNL     1      32.244 -12.688 -24.836  0.00  0.00    +0.165 HD
ENDROOT
BRANCH   4  11
ATOM      9  S   UNL     1      35.078 -18.776 -22.868  0.00  0.00    -0.074 S 
ATOM     10  N   UNL     1      35.391 -17.813 -20.490  0.00  0.00    -0.407 NA
ATOM     11  C   UNL     1      34.702 -17.120 -22.620  0.00  0.00    +0.155 C 
ATOM     12  C   UNL     1      34.929 -16.791 -21.297  0.00  0.00    +0.104 C 
ATOM     13  C   UNL     1      35.506 -18.906 -21.211  0.00  0.00    +0.135 C 
ATOM     14  C   UNL     1      34.729 -15.463 -20.682  0.00  0.00    +0.063 C 
ATOM     15  C   UNL     1      35.979 -20.207 -20.690  0.00  0.00    +0.074 C 
ENDBRANCH   4  11
BRANCH   1  16
ATOM     16  C   UNL     1      32.268 -12.580 -22.822  0.00  0.00    +0.058 C 
ATOM     17  C   UNL     1      31.710 -11.351 -20.380  0.00  0.00    +0.072 C 
ATOM     18  C   UNL     1      32.173 -13.347 -21.659  0.00  0.00    +0.015 C 
ATOM     19  C   UNL     1      32.085 -11.199 -22.762  0.00  0.00    +0.015 C 
ATOM     20  C   UNL     1      31.893 -12.732 -20.439  0.00  0.00    +0.005 C 
ATOM     21  C   UNL     1      31.806 -10.584 -21.542  0.00  0.00    +0.005 C 
BRANCH  17  25
ATOM     22  F   UNL     1      31.484 -11.541 -18.006  0.00  0.00    -0.166 F 
ATOM     23  F   UNL     1      32.258  -9.665 -18.774  0.00  0.00    -0.166 F 
ATOM     24  F   UNL     1      30.155 -10.159 -19.033  0.00  0.00    -0.166 F 
ATOM     25  C   UNL     1      31.410 -10.694 -19.076  0.00  0.00    +0.419 C 
ENDBRANCH  17  25
ENDBRANCH   1  16
TORSDOF 3
ENDMDL
MODEL 4
REMARK VINA RESULT:     -10.0      2.169      4.682
REMARK  Name = 447958
REMARK  3 active torsions:
REMARK  status: ('A' for Active; 'I' for Inactive)
REMARK    1  A    between atoms: N_1  and  C_16
REMARK    2  A    between atoms: C_4  and  C_11
REMARK    3  A    between atoms: C_17  and  C_25
REMARK                            x       y       z     vdW  Elec       q    Type
REMARK                         _______ _______ _______ _____ _____    ______ ____
ROOT
ATOM      1  N   UNL     1      36.152 -22.519 -17.380  0.00  0.00    -0.247 N 
ATOM      2  N   UNL     1      34.109 -23.109 -16.389  0.00  0.00    -0.341 NA
ATOM      3  N   UNL     1      36.201 -23.835 -15.440  0.00  0.00    -0.170 NA
ATOM      4  C   UNL     1      33.473 -23.758 -15.392  0.00  0.00    +0.140 C 
ATOM      5  C   UNL     1      35.454 -23.185 -16.355  0.00  0.00    +0.148 C 
ATOM      6  C   UNL     1      34.123 -24.459 -14.398  0.00  0.00    +0.051 C 
ATOM      7  C   UNL     1      35.501 -24.463 -14.472  0.00  0.00    +0.114 C 
ATOM      8  H   UNL     1      37.131 -22.604 -17.314  0.00  0.00    +0.165 HD
ENDROOT
BRANCH   4  11
ATOM      9  S   UNL     1      31.277 -22.776 -16.688  0.00  0.00    -0.074 S 
ATOM     10  N   UNL     1      29.763 -23.924 -14.935  0.00  0.00    -0.407 NA
ATOM     11  C   UNL     1      32.038 -23.670 -15.436  0.00  0.00    +0.155 C 
ATOM     12  C   UNL     1      31.074 -24.205 -14.603  0.00  0.00    +0.104 C 
ATOM     13  C   UNL     1      29.749 -23.178 -16.017  0.00  0.00    +0.135 C 
ATOM     14  C   UNL     1      31.320 -25.041 -13.409  0.00  0.00    +0.063 C 
ATOM     15  C   UNL     1      28.522 -22.682 -16.675  0.00  0.00    +0.074 C 
ENDBRANCH   4  11
BRANCH   1  16
ATOM     16  C   UNL     1      35.726 -21.753 -18.485  0.00  0.00    +0.058 C 
ATOM     17  C   UNL     1      34.883 -20.237 -20.671  0.00  0.00    +0.072 C 
ATOM     18  C   UNL     1      36.645 -20.978 -19.194  0.00  0.00    +0.015 C 
ATOM     19  C   UNL     1      34.385 -21.770 -18.871  0.00  0.00    +0.015 C 
ATOM     20  C   UNL     1      36.223 -20.221 -20.287  0.00  0.00    +0.005 C 
ATOM     21  C   UNL     1      33.963 -21.012 -19.963  0.00  0.00    +0.005 C 
BRANCH  17  25
ATOM     22  F   UNL     1      34.745 -18.101 -21.738  0.00  0.00    -0.166 F 
ATOM     23  F   UNL     1      34.972 -19.831 -23.027  0.00  0.00    -0.166 F 
ATOM     24  F   UNL     1      33.079 -19.471 -22.017  0.00  0.00    -0.166 F 
ATOM     25  C   UNL     1      34.432 -19.427 -21.838  0.00  0.00    +0.419 C 
ENDBRANCH  17  25
ENDBRANCH   1  16
TORSDOF 3
ENDMDL
MODEL 5
REMARK VINA RESULT:      -9.8      7.012     10.847
REMARK  Name = 447958
REMARK  3 active torsions:
REMARK  status: ('A' for Active; 'I' for Inactive)
REMARK    1  A    between atoms: N_1  and  C_16
REMARK    2  A    between atoms: C_4  and  C_11
REMARK    3  A    between atoms: C_17  and  C_25
REMARK                            x       y       z     vdW  Elec       q    Type
REMARK                         _______ _______ _______ _____ _____    ______ ____
ROOT
ATOM      1  N   UNL     1      34.397 -16.640 -25.497  0.00  0.00    -0.247 N 
ATOM      2  N   UNL     1      33.606 -14.643 -24.553  0.00  0.00    -0.341 NA
ATOM      3  N   UNL     1      33.750 -14.910 -26.943  0.00  0.00    -0.170 NA
ATOM      4  C   UNL     1      33.127 -13.398 -24.757  0.00  0.00    +0.140 C 
ATOM      5  C   UNL     1      33.894 -15.336 -25.672  0.00  0.00    +0.148 C 
ATOM      6  C   UNL     1      32.936 -12.847 -26.007  0.00  0.00    +0.051 C 
ATOM      7  C   UNL     1      33.267 -13.657 -27.074  0.00  0.00    +0.114 C 
ATOM      8  H   UNL     1      34.593 -17.105 -26.342  0.00  0.00    +0.165 HD
ENDROOT
BRANCH   4  11
ATOM      9  S   UNL     1      32.216 -13.497 -22.183  0.00  0.00    -0.074 S 
ATOM     10  N   UNL     1      32.545 -10.940 -21.997  0.00  0.00    -0.407 NA
ATOM     11  C   UNL     1      32.822 -12.666 -23.557  0.00  0.00    +0.155 C 
ATOM     12  C   UNL     1      32.928 -11.319 -23.269  0.00  0.00    +0.104 C 
ATOM     13  C   UNL     1      32.151 -12.005 -21.336  0.00  0.00    +0.135 C 
ATOM     14  C   UNL     1      33.411 -10.266 -24.187  0.00  0.00    +0.063 C 
ATOM     15  C   UNL     1      31.672 -11.993 -19.937  0.00  0.00    +0.074 C 
ENDBRANCH   4  11
BRANCH   1  16
ATOM     16  C   UNL     1      34.676 -17.410 -24.349  0.00  0.00    +0.058 C 
ATOM     17  C   UNL     1      35.227 -18.936 -22.080  0.00  0.00    +0.072 C 
ATOM     18  C   UNL     1      34.537 -18.798 -24.391  0.00  0.00    +0.015 C 
ATOM     19  C   UNL     1      35.091 -16.786 -23.173  0.00  0.00    +0.015 C 
ATOM     20  C   UNL     1      34.813 -19.561 -23.256  0.00  0.00    +0.005 C 
ATOM     21  C   UNL     1      35.366 -17.548 -22.038  0.00  0.00    +0.005 C 
BRANCH  17  25
ATOM     22  F   UNL     1      35.825 -21.055 -21.142  0.00  0.00    -0.166 F 
ATOM     23  F   UNL     1      36.580 -19.287 -20.138  0.00  0.00    -0.166 F 
ATOM     24  F   UNL     1      34.470 -19.797 -19.996  0.00  0.00    -0.166 F 
ATOM     25  C   UNL     1      35.521 -19.751 -20.866  0.00  0.00    +0.419 C 
ENDBRANCH  17  25
ENDBRANCH   1  16
TORSDOF 3
ENDMDL
MODEL 6
REMARK VINA RESULT:      -9.6     11.361     14.186
REMARK  Name = 447958
REMARK  3 active torsions:
REMARK  status: ('A' for Active; 'I' for Inactive)
REMARK    1  A    between atoms: N_1  and  C_16
REMARK    2  A    between atoms: C_4  and  C_11
REMARK    3  A    between atoms: C_17  and  C_25
REMARK                            x       y       z     vdW  Elec       q    Type
REMARK                         _______ _______ _______ _____ _____    ______ ____
ROOT
ATOM      1  N   UNL     1      31.913  -8.086 -21.739  0.00  0.00    -0.247 N 
ATOM      2  N   UNL     1      32.379 -10.296 -22.376  0.00  0.00    -0.341 NA
ATOM      3  N   UNL     1      31.387  -9.808 -20.236  0.00  0.00    -0.170 NA
ATOM      4  C   UNL     1      32.344 -11.605 -22.054  0.00  0.00    +0.140 C 
ATOM      5  C   UNL     1      31.892  -9.462 -21.436  0.00  0.00    +0.148 C 
ATOM      6  C   UNL     1      31.854 -12.086 -20.857  0.00  0.00    +0.051 C 
ATOM      7  C   UNL     1      31.382 -11.133 -19.978  0.00  0.00    +0.114 C 
ATOM      8  H   UNL     1      31.548  -7.518 -21.022  0.00  0.00    +0.165 HD
ENDROOT
BRANCH   4  11
ATOM      9  S   UNL     1      32.660 -14.184 -22.899  0.00  0.00    -0.074 S 
ATOM     10  N   UNL     1      33.913 -13.319 -24.987  0.00  0.00    -0.407 NA
ATOM     11  C   UNL     1      32.865 -12.488 -23.063  0.00  0.00    +0.155 C 
ATOM     12  C   UNL     1      33.553 -12.220 -24.231  0.00  0.00    +0.104 C 
ATOM     13  C   UNL     1      33.495 -14.408 -24.381  0.00  0.00    +0.135 C 
ATOM     14  C   UNL     1      33.927 -10.882 -24.735  0.00  0.00    +0.063 C 
ATOM     15  C   UNL     1      33.693 -15.780 -24.896  0.00  0.00    +0.074 C 
ENDBRANCH   4  11
BRANCH   1  16
ATOM     16  C   UNL     1      32.353  -7.363 -22.866  0.00  0.00    +0.058 C 
ATOM     17  C   UNL     1      33.223  -5.930 -25.097  0.00  0.00    +0.072 C 
ATOM     18  C   UNL     1      31.456  -6.564 -23.577  0.00  0.00    +0.015 C 
ATOM     19  C   UNL     1      33.686  -7.443 -23.270  0.00  0.00    +0.015 C 
ATOM     20  C   UNL     1      31.891  -5.849 -24.692  0.00  0.00    +0.005 C 
ATOM     21  C   UNL     1      34.121  -6.727 -24.386  0.00  0.00    +0.005 C 
BRANCH  17  25
ATOM     22  F   UNL     1      33.004  -5.465 -27.433  0.00  0.00    -0.166 F 
ATOM     23  F   UNL     1      33.571  -3.810 -26.150  0.00  0.00    -0.166 F 
ATOM     24  F   UNL     1      35.003  -5.392 -26.579  0.00  0.00    -0.166 F 
ATOM     25  C   UNL     1      33.688  -5.165 -26.289  0.00  0.00    +0.419 C 
ENDBRANCH  17  25
ENDBRANCH   1  16
TORSDOF 3
ENDMDL
MODEL 7
REMARK VINA RESULT:      -9.6      4.503      7.287
REMARK  Name = 447958
REMARK  3 active torsions:
REMARK  status: ('A' for Active; 'I' for Inactive)
REMARK    1  A    between atoms: N_1  and  C_16
REMARK    2  A    between atoms: C_4  and  C_11
REMARK    3  A    between atoms: C_17  and  C_25
REMARK                            x       y       z     vdW  Elec       q    Type
REMARK                         _______ _______ _______ _____ _____    ______ ____
ROOT
ATOM      1  N   UNL     1      34.649 -24.932 -14.711  0.00  0.00    -0.247 N 
ATOM      2  N   UNL     1      34.504 -23.460 -16.532  0.00  0.00    -0.341 NA
ATOM      3  N   UNL     1      32.522 -24.216 -15.390  0.00  0.00    -0.170 NA
ATOM      4  C   UNL     1      33.712 -22.738 -17.352  0.00  0.00    +0.140 C 
ATOM      5  C   UNL     1      33.855 -24.166 -15.586  0.00  0.00    +0.148 C 
ATOM      6  C   UNL     1      32.337 -22.706 -17.256  0.00  0.00    +0.051 C 
ATOM      7  C   UNL     1      31.790 -23.472 -16.246  0.00  0.00    +0.114 C 
ATOM      8  H   UNL     1      34.131 -25.431 -14.039  0.00  0.00    +0.165 HD
ENDROOT
BRANCH   4  11
ATOM      9  S   UNL     1      33.552 -21.341 -19.695  0.00  0.00    -0.074 S 
ATOM     10  N   UNL     1      36.097 -20.907 -19.579  0.00  0.00    -0.407 NA
ATOM     11  C   UNL     1      34.414 -21.986 -18.358  0.00  0.00    +0.155 C 
ATOM     12  C   UNL     1      35.750 -21.653 -18.470  0.00  0.00    +0.104 C 
ATOM     13  C   UNL     1      35.019 -20.684 -20.296  0.00  0.00    +0.135 C 
ATOM     14  C   UNL     1      36.822 -22.018 -17.520  0.00  0.00    +0.063 C 
ATOM     15  C   UNL     1      34.997 -19.912 -21.557  0.00  0.00    +0.074 C 
ENDBRANCH   4  11
BRANCH   1  16
ATOM     16  C   UNL     1      36.043 -25.126 -14.608  0.00  0.00    +0.058 C 
ATOM     17  C   UNL     1      38.799 -25.507 -14.403  0.00  0.00    +0.072 C 
ATOM     18  C   UNL     1      36.853 -24.109 -14.100  0.00  0.00    +0.015 C 
ATOM     19  C   UNL     1      36.612 -26.333 -15.012  0.00  0.00    +0.015 C 
ATOM     20  C   UNL     1      38.230 -24.300 -13.998  0.00  0.00    +0.005 C 
ATOM     21  C   UNL     1      37.990 -26.524 -14.910  0.00  0.00    +0.005 C 
BRANCH  17  25
ATOM     22  F   UNL     1      40.625 -26.691 -13.411  0.00  0.00    -0.166 F 
ATOM     23  F   UNL     1      40.864 -26.066 -15.474  0.00  0.00    -0.166 F 
ATOM     24  F   UNL     1      40.929 -24.589 -13.878  0.00  0.00    -0.166 F 
ATOM     25  C   UNL     1      40.272 -25.711 -14.295  0.00  0.00    +0.419 C 
ENDBRANCH  17  25
ENDBRANCH   1  16
TORSDOF 3
ENDMDL
MODEL 8
REMARK VINA RESULT:      -9.5      8.294     11.896
REMARK  Name = 447958
REMARK  3 active torsions:
REMARK  status: ('A' for Active; 'I' for Inactive)
REMARK    1  A    between atoms: N_1  and  C_16
REMARK    2  A    between atoms: C_4  and  C_11
REMARK    3  A    between atoms: C_17  and  C_25
REMARK                            x       y       z     vdW  Elec       q    Type
REMARK                         _______ _______ _______ _____ _____    ______ ____
ROOT
ATOM      1  N   UNL     1      32.105 -13.976 -21.373  0.00  0.00    -0.247 N 
ATOM      2  N   UNL     1      32.921 -12.216 -22.692  0.00  0.00    -0.341 NA
ATOM      3  N   UNL     1      31.087 -11.874 -21.168  0.00  0.00    -0.170 NA
ATOM      4  C   UNL     1      32.825 -10.917 -23.042  0.00  0.00    +0.140 C 
ATOM      5  C   UNL     1      32.035 -12.625 -21.763  0.00  0.00    +0.148 C 
ATOM      6  C   UNL     1      31.898 -10.046 -22.508  0.00  0.00    +0.051 C 
ATOM      7  C   UNL     1      31.046 -10.585 -21.565  0.00  0.00    +0.114 C 
ATOM      8  H   UNL     1      31.438 -14.228 -20.694  0.00  0.00    +0.165 HD
ENDROOT
BRANCH   4  11
ATOM      9  S   UNL     1      34.182 -11.535 -25.332  0.00  0.00    -0.074 S 
ATOM     10  N   UNL     1      35.327  -9.219 -25.247  0.00  0.00    -0.407 NA
ATOM     11  C   UNL     1      33.776 -10.489 -24.033  0.00  0.00    +0.155 C 
ATOM     12  C   UNL     1      34.483  -9.308 -24.157  0.00  0.00    +0.104 C 
ATOM     13  C   UNL     1      35.251 -10.335 -25.936  0.00  0.00    +0.135 C 
ATOM     14  C   UNL     1      34.412  -8.150 -23.242  0.00  0.00    +0.063 C 
ATOM     15  C   UNL     1      36.010 -10.607 -27.176  0.00  0.00    +0.074 C 
ENDBRANCH   4  11
BRANCH   1  16
ATOM     16  C   UNL     1      32.944 -15.041 -21.763  0.00  0.00    +0.058 C 
ATOM     17  C   UNL     1      34.602 -17.148 -22.534  0.00  0.00    +0.072 C 
ATOM     18  C   UNL     1      33.306 -16.020 -20.836  0.00  0.00    +0.015 C 
ATOM     19  C   UNL     1      33.410 -15.118 -23.076  0.00  0.00    +0.015 C 
ATOM     20  C   UNL     1      34.136 -17.073 -21.222  0.00  0.00    +0.005 C 
ATOM     21  C   UNL     1      34.239 -16.171 -23.461  0.00  0.00    +0.005 C 
BRANCH  17  25
ATOM     22  F   UNL     1      36.751 -18.194 -22.429  0.00  0.00    -0.166 F 
ATOM     23  F   UNL     1      35.027 -19.503 -22.567  0.00  0.00    -0.166 F 
ATOM     24  F   UNL     1      35.652 -18.345 -24.300  0.00  0.00    -0.166 F 
ATOM     25  C   UNL     1      35.489 -18.274 -22.946  0.00  0.00    +0.419 C 
ENDBRANCH  17  25
ENDBRANCH   1  16
TORSDOF 3
ENDMDL
MODEL 9
REMARK VINA RESULT:      -9.3      4.721      7.354
REMARK  Name = 447958
REMARK  3 active torsions:
REMARK  status: ('A' for Active; 'I' for Inactive)
REMARK    1  A    between atoms: N_1  and  C_16
REMARK    2  A    between atoms: C_4  and  C_11
REMARK    3  A    between atoms: C_17  and  C_25
REMARK                            x       y       z     vdW  Elec       q    Type
REMARK                         _______ _______ _______ _____ _____    ______ ____
ROOT
ATOM      1  N   UNL     1      34.437 -24.030 -14.401  0.00  0.00    -0.247 N 
ATOM      2  N   UNL     1      35.183 -22.893 -16.313  0.00  0.00    -0.341 NA
ATOM      3  N   UNL     1      36.730 -23.576 -14.598  0.00  0.00    -0.170 NA
ATOM      4  C   UNL     1      36.224 -22.370 -16.993  0.00  0.00    +0.140 C 
ATOM      5  C   UNL     1      35.500 -23.473 -15.139  0.00  0.00    +0.148 C 
ATOM      6  C   UNL     1      37.528 -22.410 -16.546  0.00  0.00    +0.051 C 
ATOM      7  C   UNL     1      37.724 -23.032 -15.330  0.00  0.00    +0.114 C 
ATOM      8  H   UNL     1      34.717 -24.440 -13.552  0.00  0.00    +0.165 HD
ENDROOT
BRANCH   4  11
ATOM      9  S   UNL     1      36.917 -20.573 -18.931  0.00  0.00    -0.074 S 
ATOM     10  N   UNL     1      34.760 -21.173 -20.222  0.00  0.00    -0.407 NA
ATOM     11  C   UNL     1      35.877 -21.754 -18.246  0.00  0.00    +0.155 C 
ATOM     12  C   UNL     1      34.786 -21.939 -19.073  0.00  0.00    +0.104 C 
ATOM     13  C   UNL     1      35.833 -20.415 -20.253  0.00  0.00    +0.135 C 
ATOM     14  C   UNL     1      33.664 -22.872 -18.840  0.00  0.00    +0.063 C 
ATOM     15  C   UNL     1      36.155 -19.463 -21.337  0.00  0.00    +0.074 C 
ENDBRANCH   4  11
BRANCH   1  16
ATOM     16  C   UNL     1      33.049 -24.114 -14.640  0.00  0.00    +0.058 C 
ATOM     17  C   UNL     1      30.304 -24.282 -15.110  0.00  0.00    +0.072 C 
ATOM     18  C   UNL     1      32.276 -25.041 -13.939  0.00  0.00    +0.015 C 
ATOM     19  C   UNL     1      32.449 -23.270 -15.574  0.00  0.00    +0.015 C 
ATOM     20  C   UNL     1      30.904 -25.125 -14.174  0.00  0.00    +0.005 C 
ATOM     21  C   UNL     1      31.077 -23.354 -15.810  0.00  0.00    +0.005 C 
BRANCH  17  25
ATOM     22  F   UNL     1      28.175 -23.193 -15.167  0.00  0.00    -0.166 F 
ATOM     23  F   UNL     1      28.523 -24.749 -16.637  0.00  0.00    -0.166 F 
ATOM     24  F   UNL     1      28.219 -25.277 -14.548  0.00  0.00    -0.166 F 
ATOM     25  C   UNL     1      28.838 -24.372 -15.362  0.00  0.00    +0.419 C 
ENDBRANCH  17  25
ENDBRANCH   1  16
TORSDOF 3
ENDMDL
