MODEL 1
REMARK VINA RESULT:      -7.6      0.000      0.000
REMARK  Name = 5284516
REMARK  4 active torsions:
REMARK  status: ('A' for Active; 'I' for Inactive)
REMARK    1  A    between atoms: C_2  and  C_10
REMARK    2  A    between atoms: C_2  and  O_16
REMARK    3  A    between atoms: O_16  and  C_18
REMARK    4  A    between atoms: C_18  and  C_19
REMARK                            x       y       z     vdW  Elec       q    Type
REMARK                         _______ _______ _______ _____ _____    ______ ____
ROOT
ATOM      1  N   UNL     1      31.373  -5.466 -24.048  0.00  0.00    +0.386 N 
ATOM      2  C   UNL     1      31.907  -8.136 -22.869  0.00  0.00    +0.150 C 
ATOM      3  C   UNL     1      32.574  -6.830 -22.331  0.00  0.00    +0.020 C 
ATOM      4  C   UNL     1      30.582  -7.770 -23.578  0.00  0.00    +0.022 C 
ATOM      5  C   UNL     1      32.682  -5.774 -23.456  0.00  0.00    -0.074 C 
ATOM      6  C   UNL     1      30.767  -6.669 -24.632  0.00  0.00    -0.074 C 
ATOM      7  C   UNL     1      31.851  -6.236 -21.111  0.00  0.00    +0.002 C 
ATOM      8  C   UNL     1      31.501  -4.416 -25.058  0.00  0.00    -0.101 C 
ATOM      9  H   UNL     1      30.761  -5.130 -23.305  0.00  0.00    -0.080 HD
ENDROOT
BRANCH   2  10
ATOM     10  C   UNL     1      31.789  -9.225 -21.804  0.00  0.00    +0.013 C 
ATOM     11  C   UNL     1      32.221  -8.975 -20.502  0.00  0.00    -0.001 C 
ATOM     12  C   UNL     1      31.248 -10.467 -22.136  0.00  0.00    -0.001 C 
ATOM     13  C   UNL     1      32.113  -9.969 -19.530  0.00  0.00    -0.000 C 
ATOM     14  C   UNL     1      31.141 -11.461 -21.163  0.00  0.00    -0.000 C 
ATOM     15  C   UNL     1      31.573 -11.212 -19.861  0.00  0.00    -0.000 C 
ENDBRANCH   2  10
BRANCH   2  16
ATOM     16  O   UNL     1      32.740  -8.697 -23.906  0.00  0.00    -0.452 OA
BRANCH  16  18
ATOM     17  O   UNL     1      34.761  -8.195 -22.913  0.00  0.00    -0.250 OA
ATOM     18  C   UNL     1      34.035  -8.946 -23.550  0.00  0.00    +0.317 C 
BRANCH  18  19
ATOM     19  C   UNL     1      34.434 -10.306 -24.074  0.00  0.00    +0.110 C 
ATOM     20  C   UNL     1      35.249 -10.209 -25.351  0.00  0.00    +0.012 C 
ENDBRANCH  18  19
ENDBRANCH  16  18
ENDBRANCH   2  16
TORSDOF 4
ENDMDL
MODEL 2
REMARK VINA RESULT:      -7.6      8.394     10.549
REMARK  Name = 5284516
REMARK  4 active torsions:
REMARK  status: ('A' for Active; 'I' for Inactive)
REMARK    1  A    between atoms: C_2  and  C_10
REMARK    2  A    between atoms: C_2  and  O_16
REMARK    3  A    between atoms: O_16  and  C_18
REMARK    4  A    between atoms: C_18  and  C_19
REMARK                            x       y       z     vdW  Elec       q    Type
REMARK                         _______ _______ _______ _____ _____    ______ ____
ROOT
ATOM      1  N   UNL     1      34.673 -16.699 -24.822  0.00  0.00    +0.386 N 
ATOM      2  C   UNL     1      34.697 -18.190 -22.258  0.00  0.00    +0.150 C 
ATOM      3  C   UNL     1      34.211 -18.828 -23.598  0.00  0.00    +0.020 C 
ATOM      4  C   UNL     1      35.671 -17.031 -22.576  0.00  0.00    +0.022 C 
ATOM      5  C   UNL     1      33.671 -17.739 -24.553  0.00  0.00    -0.074 C 
ATOM      6  C   UNL     1      35.082 -16.031 -23.581  0.00  0.00    -0.074 C 
ATOM      7  C   UNL     1      35.293 -19.664 -24.301  0.00  0.00    +0.002 C 
ATOM      8  C   UNL     1      34.155 -15.724 -25.781  0.00  0.00    -0.101 C 
ATOM      9  H   UNL     1      35.494 -17.148 -25.227  0.00  0.00    -0.080 HD
ENDROOT
BRANCH   2  10
ATOM     10  C   UNL     1      35.226 -19.224 -21.264  0.00  0.00    +0.013 C 
ATOM     11  C   UNL     1      34.354 -20.147 -20.691  0.00  0.00    -0.001 C 
ATOM     12  C   UNL     1      36.581 -19.241 -20.934  0.00  0.00    -0.001 C 
ATOM     13  C   UNL     1      34.837 -21.091 -19.784  0.00  0.00    -0.000 C 
ATOM     14  C   UNL     1      37.063 -20.185 -20.027  0.00  0.00    -0.000 C 
ATOM     15  C   UNL     1      36.191 -21.109 -19.453  0.00  0.00    -0.000 C 
ENDBRANCH   2  10
BRANCH   2  16
ATOM     16  O   UNL     1      33.575 -17.562 -21.602  0.00  0.00    -0.452 OA
BRANCH  16  18
ATOM     17  O   UNL     1      34.942 -16.347 -20.197  0.00  0.00    -0.250 OA
ATOM     18  C   UNL     1      33.882 -16.512 -20.784  0.00  0.00    +0.317 C 
BRANCH  18  19
ATOM     19  C   UNL     1      32.696 -15.579 -20.719  0.00  0.00    +0.110 C 
ATOM     20  C   UNL     1      33.088 -14.137 -20.994  0.00  0.00    +0.012 C 
ENDBRANCH  18  19
ENDBRANCH  16  18
ENDBRANCH   2  16
TORSDOF 4
ENDMDL
MODEL 3
REMARK VINA RESULT:      -7.2     15.798     17.747
REMARK  Name = 5284516
REMARK  4 active torsions:
REMARK  status: ('A' for Active; 'I' for Inactive)
REMARK    1  A    between atoms: C_2  and  C_10
REMARK    2  A    between atoms: C_2  and  O_16
REMARK    3  A    between atoms: O_16  and  C_18
REMARK    4  A    between atoms: C_18  and  C_19
REMARK                            x       y       z     vdW  Elec       q    Type
REMARK                         _______ _______ _______ _____ _____    ______ ____
ROOT
ATOM      1  N   UNL     1      31.365 -23.290 -15.896  0.00  0.00    +0.386 N 
ATOM      2  C   UNL     1      34.137 -23.877 -15.017  0.00  0.00    +0.150 C 
ATOM      3  C   UNL     1      32.946 -23.740 -14.015  0.00  0.00    +0.020 C 
ATOM      4  C   UNL     1      33.583 -24.277 -16.405  0.00  0.00    +0.022 C 
ATOM      5  C   UNL     1      31.852 -22.815 -14.595  0.00  0.00    -0.074 C 
ATOM      6  C   UNL     1      32.456 -23.346 -16.876  0.00  0.00    -0.074 C 
ATOM      7  C   UNL     1      32.339 -25.092 -13.605  0.00  0.00    +0.002 C 
ATOM      8  C   UNL     1      30.284 -22.433 -16.384  0.00  0.00    -0.101 C 
ATOM      9  H   UNL     1      31.000 -24.234 -15.773  0.00  0.00    -0.080 HD
ENDROOT
BRANCH   2  10
ATOM     10  C   UNL     1      35.260 -24.768 -14.489  0.00  0.00    +0.013 C 
ATOM     11  C   UNL     1      35.747 -24.580 -13.197  0.00  0.00    -0.001 C 
ATOM     12  C   UNL     1      35.795 -25.768 -15.301  0.00  0.00    -0.001 C 
ATOM     13  C   UNL     1      36.772 -25.394 -12.715  0.00  0.00    -0.000 C 
ATOM     14  C   UNL     1      36.820 -26.581 -14.819  0.00  0.00    -0.000 C 
ATOM     15  C   UNL     1      37.308 -26.394 -13.526  0.00  0.00    -0.000 C 
ENDBRANCH   2  10
BRANCH   2  16
ATOM     16  O   UNL     1      34.734 -22.578 -15.217  0.00  0.00    -0.452 OA
BRANCH  16  18
ATOM     17  O   UNL     1      35.601 -22.701 -17.351  0.00  0.00    -0.250 OA
ATOM     18  C   UNL     1      35.732 -22.525 -16.147  0.00  0.00    +0.317 C 
BRANCH  18  19
ATOM     19  C   UNL     1      37.036 -22.214 -15.450  0.00  0.00    +0.110 C 
ATOM     20  C   UNL     1      38.151 -23.152 -15.879  0.00  0.00    +0.012 C 
ENDBRANCH  18  19
ENDBRANCH  16  18
ENDBRANCH   2  16
TORSDOF 4
ENDMDL
MODEL 4
REMARK VINA RESULT:      -7.0      1.544      2.295
REMARK  Name = 5284516
REMARK  4 active torsions:
REMARK  status: ('A' for Active; 'I' for Inactive)
REMARK    1  A    between atoms: C_2  and  C_10
REMARK    2  A    between atoms: C_2  and  O_16
REMARK    3  A    between atoms: O_16  and  C_18
REMARK    4  A    between atoms: C_18  and  C_19
REMARK                            x       y       z     vdW  Elec       q    Type
REMARK                         _______ _______ _______ _____ _____    ______ ____
ROOT
ATOM      1  N   UNL     1      30.811  -3.920 -24.356  0.00  0.00    +0.386 N 
ATOM      2  C   UNL     1      31.987  -6.334 -23.094  0.00  0.00    +0.150 C 
ATOM      3  C   UNL     1      31.372  -5.163 -22.262  0.00  0.00    +0.020 C 
ATOM      4  C   UNL     1      31.353  -6.336 -24.505  0.00  0.00    +0.022 C 
ATOM      5  C   UNL     1      31.467  -3.834 -23.044  0.00  0.00    -0.074 C 
ATOM      6  C   UNL     1      31.431  -4.962 -25.184  0.00  0.00    -0.074 C 
ATOM      7  C   UNL     1      29.920  -5.424 -21.828  0.00  0.00    +0.002 C 
ATOM      8  C   UNL     1      30.859  -2.628 -25.040  0.00  0.00    -0.101 C 
ATOM      9  H   UNL     1      29.835  -4.173 -24.206  0.00  0.00    -0.080 HD
ENDROOT
BRANCH   2  10
ATOM     10  C   UNL     1      31.937  -7.674 -22.362  0.00  0.00    +0.013 C 
ATOM     11  C   UNL     1      31.423  -8.799 -23.005  0.00  0.00    -0.001 C 
ATOM     12  C   UNL     1      32.407  -7.770 -21.053  0.00  0.00    -0.001 C 
ATOM     13  C   UNL     1      31.379 -10.023 -22.337  0.00  0.00    -0.000 C 
ATOM     14  C   UNL     1      32.361  -8.994 -20.385  0.00  0.00    -0.000 C 
ATOM     15  C   UNL     1      31.847 -10.120 -21.028  0.00  0.00    -0.000 C 
ENDBRANCH   2  10
BRANCH   2  16
ATOM     16  O   UNL     1      33.388  -6.066 -23.317  0.00  0.00    -0.452 OA
BRANCH  16  18
ATOM     17  O   UNL     1      33.931  -6.773 -25.445  0.00  0.00    -0.250 OA
ATOM     18  C   UNL     1      34.005  -6.876 -24.228  0.00  0.00    +0.317 C 
BRANCH  18  19
ATOM     19  C   UNL     1      34.798  -7.928 -23.490  0.00  0.00    +0.110 C 
ATOM     20  C   UNL     1      34.861  -9.238 -24.256  0.00  0.00    +0.012 C 
ENDBRANCH  18  19
ENDBRANCH  16  18
ENDBRANCH   2  16
TORSDOF 4
ENDMDL
MODEL 5
REMARK VINA RESULT:      -7.0     15.446     18.224
REMARK  Name = 5284516
REMARK  4 active torsions:
REMARK  status: ('A' for Active; 'I' for Inactive)
REMARK    1  A    between atoms: C_2  and  C_10
REMARK    2  A    between atoms: C_2  and  O_16
REMARK    3  A    between atoms: O_16  and  C_18
REMARK    4  A    between atoms: C_18  and  C_19
REMARK                            x       y       z     vdW  Elec       q    Type
REMARK                         _______ _______ _______ _____ _____    ______ ____
ROOT
ATOM      1  N   UNL     1      35.662 -23.614 -12.036  0.00  0.00    +0.386 N 
ATOM      2  C   UNL     1      35.981 -23.471 -14.982  0.00  0.00    +0.150 C 
ATOM      3  C   UNL     1      34.738 -24.127 -14.301  0.00  0.00    +0.020 C 
ATOM      4  C   UNL     1      36.605 -22.443 -14.009  0.00  0.00    +0.022 C 
ATOM      5  C   UNL     1      35.109 -24.666 -12.900  0.00  0.00    -0.074 C 
ATOM      6  C   UNL     1      36.880 -23.041 -12.622  0.00  0.00    -0.074 C 
ATOM      7  C   UNL     1      33.528 -23.183 -14.206  0.00  0.00    +0.002 C 
ATOM      8  C   UNL     1      35.937 -24.139 -10.699  0.00  0.00    -0.101 C 
ATOM      9  H   UNL     1      34.968 -22.871 -11.957  0.00  0.00    -0.080 HD
ENDROOT
BRANCH   2  10
ATOM     10  C   UNL     1      35.680 -22.935 -16.381  0.00  0.00    +0.013 C 
ATOM     11  C   UNL     1      34.439 -23.182 -16.968  0.00  0.00    -0.001 C 
ATOM     12  C   UNL     1      36.645 -22.200 -17.068  0.00  0.00    -0.001 C 
ATOM     13  C   UNL     1      34.164 -22.692 -18.244  0.00  0.00    -0.000 C 
ATOM     14  C   UNL     1      36.369 -21.712 -18.345  0.00  0.00    -0.000 C 
ATOM     15  C   UNL     1      35.129 -21.958 -18.932  0.00  0.00    -0.000 C 
ENDBRANCH   2  10
BRANCH   2  16
ATOM     16  O   UNL     1      37.002 -24.476 -15.164  0.00  0.00    -0.452 OA
BRANCH  16  18
ATOM     17  O   UNL     1      35.635 -26.162 -15.945  0.00  0.00    -0.250 OA
ATOM     18  C   UNL     1      36.553 -25.764 -15.242  0.00  0.00    +0.317 C 
BRANCH  18  19
ATOM     19  C   UNL     1      37.376 -26.626 -14.314  0.00  0.00    +0.110 C 
ATOM     20  C   UNL     1      38.642 -25.924 -13.855  0.00  0.00    +0.012 C 
ENDBRANCH  18  19
ENDBRANCH  16  18
ENDBRANCH   2  16
TORSDOF 4
ENDMDL
MODEL 6
REMARK VINA RESULT:      -6.9     16.756     18.401
REMARK  Name = 5284516
REMARK  4 active torsions:
REMARK  status: ('A' for Active; 'I' for Inactive)
REMARK    1  A    between atoms: C_2  and  C_10
REMARK    2  A    between atoms: C_2  and  O_16
REMARK    3  A    between atoms: O_16  and  C_18
REMARK    4  A    between atoms: C_18  and  C_19
REMARK                            x       y       z     vdW  Elec       q    Type
REMARK                         _______ _______ _______ _____ _____    ______ ____
ROOT
ATOM      1  N   UNL     1      37.452 -24.068 -15.616  0.00  0.00    +0.386 N 
ATOM      2  C   UNL     1      34.849 -23.770 -14.224  0.00  0.00    +0.150 C 
ATOM      3  C   UNL     1      35.306 -22.811 -15.369  0.00  0.00    +0.020 C 
ATOM      4  C   UNL     1      35.579 -25.126 -14.382  0.00  0.00    +0.022 C 
ATOM      5  C   UNL     1      36.849 -22.740 -15.434  0.00  0.00    -0.074 C 
ATOM      6  C   UNL     1      37.100 -24.960 -14.505  0.00  0.00    -0.074 C 
ATOM      7  C   UNL     1      34.732 -23.189 -16.745  0.00  0.00    +0.002 C 
ATOM      8  C   UNL     1      38.905 -23.958 -15.743  0.00  0.00    -0.101 C 
ATOM      9  H   UNL     1      37.080 -24.469 -16.476  0.00  0.00    -0.080 HD
ENDROOT
BRANCH   2  10
ATOM     10  C   UNL     1      33.329 -23.867 -14.100  0.00  0.00    +0.013 C 
ATOM     11  C   UNL     1      32.572 -22.711 -13.910  0.00  0.00    -0.001 C 
ATOM     12  C   UNL     1      32.702 -25.110 -14.177  0.00  0.00    -0.001 C 
ATOM     13  C   UNL     1      31.185 -22.799 -13.798  0.00  0.00    -0.000 C 
ATOM     14  C   UNL     1      31.314 -25.197 -14.063  0.00  0.00    -0.000 C 
ATOM     15  C   UNL     1      30.557 -24.041 -13.874  0.00  0.00    -0.000 C 
ENDBRANCH   2  10
BRANCH   2  16
ATOM     16  O   UNL     1      35.309 -23.246 -12.960  0.00  0.00    -0.452 OA
BRANCH  16  18
ATOM     17  O   UNL     1      34.595 -25.010 -11.656  0.00  0.00    -0.250 OA
ATOM     18  C   UNL     1      35.423 -24.159 -11.951  0.00  0.00    +0.317 C 
BRANCH  18  19
ATOM     19  C   UNL     1      36.745 -23.949 -11.248  0.00  0.00    +0.110 C 
ATOM     20  C   UNL     1      37.490 -22.739 -11.783  0.00  0.00    +0.012 C 
ENDBRANCH  18  19
ENDBRANCH  16  18
ENDBRANCH   2  16
TORSDOF 4
ENDMDL
MODEL 7
REMARK VINA RESULT:      -6.6      1.496      3.953
REMARK  Name = 5284516
REMARK  4 active torsions:
REMARK  status: ('A' for Active; 'I' for Inactive)
REMARK    1  A    between atoms: C_2  and  C_10
REMARK    2  A    between atoms: C_2  and  O_16
REMARK    3  A    between atoms: O_16  and  C_18
REMARK    4  A    between atoms: C_18  and  C_19
REMARK                            x       y       z     vdW  Elec       q    Type
REMARK                         _______ _______ _______ _____ _____    ______ ____
ROOT
ATOM      1  N   UNL     1      31.174  -5.355 -22.126  0.00  0.00    +0.386 N 
ATOM      2  C   UNL     1      32.248  -8.015 -22.881  0.00  0.00    +0.150 C 
ATOM      3  C   UNL     1      31.409  -7.136 -23.863  0.00  0.00    +0.020 C 
ATOM      4  C   UNL     1      32.913  -7.099 -21.827  0.00  0.00    +0.022 C 
ATOM      5  C   UNL     1      30.452  -6.210 -23.079  0.00  0.00    -0.074 C 
ATOM      6  C   UNL     1      31.903  -6.166 -21.143  0.00  0.00    -0.074 C 
ATOM      7  C   UNL     1      32.274  -6.312 -24.831  0.00  0.00    +0.002 C 
ATOM      8  C   UNL     1      30.249  -4.444 -21.451  0.00  0.00    -0.101 C 
ATOM      9  H   UNL     1      31.852  -4.801 -22.648  0.00  0.00    -0.080 HD
ENDROOT
BRANCH   2  10
ATOM     10  C   UNL     1      33.202  -8.967 -23.602  0.00  0.00    +0.013 C 
ATOM     11  C   UNL     1      32.750 -10.216 -24.025  0.00  0.00    -0.001 C 
ATOM     12  C   UNL     1      34.522  -8.584 -23.836  0.00  0.00    -0.001 C 
ATOM     13  C   UNL     1      33.621 -11.084 -24.683  0.00  0.00    -0.000 C 
ATOM     14  C   UNL     1      35.392  -9.453 -24.494  0.00  0.00    -0.000 C 
ATOM     15  C   UNL     1      34.941 -10.703 -24.917  0.00  0.00    -0.000 C 
ENDBRANCH   2  10
BRANCH   2  16
ATOM     16  O   UNL     1      31.354  -8.861 -22.127  0.00  0.00    -0.452 OA
BRANCH  16  18
ATOM     17  O   UNL     1      32.653  -8.962 -20.224  0.00  0.00    -0.250 OA
ATOM     18  C   UNL     1      31.904  -9.480 -21.041  0.00  0.00    +0.317 C 
BRANCH  18  19
ATOM     19  C   UNL     1      31.440 -10.917 -21.009  0.00  0.00    +0.110 C 
ATOM     20  C   UNL     1      31.541 -11.519 -19.618  0.00  0.00    +0.012 C 
ENDBRANCH  18  19
ENDBRANCH  16  18
ENDBRANCH   2  16
TORSDOF 4
ENDMDL
MODEL 8
REMARK VINA RESULT:      -6.5      7.226      8.837
REMARK  Name = 5284516
REMARK  4 active torsions:
REMARK  status: ('A' for Active; 'I' for Inactive)
REMARK    1  A    between atoms: C_2  and  C_10
REMARK    2  A    between atoms: C_2  and  O_16
REMARK    3  A    between atoms: O_16  and  C_18
REMARK    4  A    between atoms: C_18  and  C_19
REMARK                            x       y       z     vdW  Elec       q    Type
REMARK                         _______ _______ _______ _____ _____    ______ ____
ROOT
ATOM      1  N   UNL     1      33.282 -13.698 -22.715  0.00  0.00    +0.386 N 
ATOM      2  C   UNL     1      34.516 -16.370 -22.343  0.00  0.00    +0.150 C 
ATOM      3  C   UNL     1      34.773 -15.180 -21.364  0.00  0.00    +0.020 C 
ATOM      4  C   UNL     1      33.161 -16.153 -23.055  0.00  0.00    +0.022 C 
ATOM      5  C   UNL     1      34.608 -13.830 -22.097  0.00  0.00    -0.074 C 
ATOM      6  C   UNL     1      33.055 -14.763 -23.700  0.00  0.00    -0.074 C 
ATOM      7  C   UNL     1      33.881 -15.220 -20.112  0.00  0.00    +0.002 C 
ATOM      8  C   UNL     1      33.134 -12.384 -23.340  0.00  0.00    -0.101 C 
ATOM      9  H   UNL     1      32.580 -13.790 -21.981  0.00  0.00    -0.080 HD
ENDROOT
BRANCH   2  10
ATOM     10  C   UNL     1      34.683 -17.735 -21.677  0.00  0.00    +0.013 C 
ATOM     11  C   UNL     1      35.957 -18.197 -21.346  0.00  0.00    -0.001 C 
ATOM     12  C   UNL     1      33.562 -18.516 -21.400  0.00  0.00    -0.001 C 
ATOM     13  C   UNL     1      36.108 -19.442 -20.737  0.00  0.00    -0.000 C 
ATOM     14  C   UNL     1      33.715 -19.763 -20.793  0.00  0.00    -0.000 C 
ATOM     15  C   UNL     1      34.988 -20.225 -20.461  0.00  0.00    -0.000 C 
ENDBRANCH   2  10
BRANCH   2  16
ATOM     16  O   UNL     1      35.501 -16.331 -23.398  0.00  0.00    -0.452 OA
BRANCH  16  18
ATOM     17  O   UNL     1      34.808 -16.454 -25.595  0.00  0.00    -0.250 OA
ATOM     18  C   UNL     1      35.158 -16.983 -24.548  0.00  0.00    +0.317 C 
BRANCH  18  19
ATOM     19  C   UNL     1      35.277 -18.472 -24.322  0.00  0.00    +0.110 C 
ATOM     20  C   UNL     1      34.179 -19.247 -25.030  0.00  0.00    +0.012 C 
ENDBRANCH  18  19
ENDBRANCH  16  18
ENDBRANCH   2  16
TORSDOF 4
ENDMDL
MODEL 9
REMARK VINA RESULT:      -6.5     16.918     18.805
REMARK  Name = 5284516
REMARK  4 active torsions:
REMARK  status: ('A' for Active; 'I' for Inactive)
REMARK    1  A    between atoms: C_2  and  C_10
REMARK    2  A    between atoms: C_2  and  O_16
REMARK    3  A    between atoms: O_16  and  C_18
REMARK    4  A    between atoms: C_18  and  C_19
REMARK                            x       y       z     vdW  Elec       q    Type
REMARK                         _______ _______ _______ _____ _____    ______ ____
ROOT
ATOM      1  N   UNL     1      38.044 -24.904 -15.317  0.00  0.00    +0.386 N 
ATOM      2  C   UNL     1      35.241 -24.670 -14.372  0.00  0.00    +0.150 C 
ATOM      3  C   UNL     1      36.153 -23.425 -14.620  0.00  0.00    +0.020 C 
ATOM      4  C   UNL     1      35.751 -25.848 -15.235  0.00  0.00    +0.022 C 
ATOM      5  C   UNL     1      37.642 -23.799 -14.436  0.00  0.00    -0.074 C 
ATOM      6  C   UNL     1      37.252 -26.109 -15.042  0.00  0.00    -0.074 C 
ATOM      7  C   UNL     1      35.933 -22.776 -15.997  0.00  0.00    +0.002 C 
ATOM      8  C   UNL     1      39.471 -25.185 -15.169  0.00  0.00    -0.101 C 
ATOM      9  H   UNL     1      37.867 -24.621 -16.281  0.00  0.00    -0.080 HD
ENDROOT
BRANCH   2  10
ATOM     10  C   UNL     1      33.753 -24.356 -14.523  0.00  0.00    +0.013 C 
ATOM     11  C   UNL     1      32.804 -25.181 -13.919  0.00  0.00    -0.001 C 
ATOM     12  C   UNL     1      33.347 -23.246 -15.262  0.00  0.00    -0.001 C 
ATOM     13  C   UNL     1      31.447 -24.894 -14.056  0.00  0.00    -0.000 C 
ATOM     14  C   UNL     1      31.989 -22.961 -15.400  0.00  0.00    -0.000 C 
ATOM     15  C   UNL     1      31.039 -23.785 -14.796  0.00  0.00    -0.000 C 
ENDBRANCH   2  10
BRANCH   2  16
ATOM     16  O   UNL     1      35.408 -25.109 -13.008  0.00  0.00    -0.452 OA
BRANCH  16  18
ATOM     17  O   UNL     1      34.308 -23.418 -11.890  0.00  0.00    -0.250 OA
ATOM     18  C   UNL     1      35.283 -24.138 -12.056  0.00  0.00    +0.317 C 
BRANCH  18  19
ATOM     19  C   UNL     1      36.550 -24.090 -11.234  0.00  0.00    +0.110 C 
ATOM     20  C   UNL     1      37.226 -22.732 -11.305  0.00  0.00    +0.012 C 
ENDBRANCH  18  19
ENDBRANCH  16  18
ENDBRANCH   2  16
TORSDOF 4
ENDMDL
