MODEL 1
REMARK VINA RESULT:     -10.5      0.000      0.000
REMARK  Name = 122335
REMARK  7 active torsions:
REMARK  status: ('A' for Active; 'I' for Inactive)
REMARK    1  A    between atoms: C_1  and  C_15
REMARK    2  A    between atoms: C_2  and  O_7
REMARK    3  A    between atoms: O_7  and  C_8
REMARK    4  A    between atoms: C_8  and  C_12
REMARK    5  A    between atoms: C_12  and  O_13
REMARK    6  A    between atoms: C_15  and  C_18
REMARK    7  A    between atoms: N_17  and  C_20
REMARK                            x       y       z     vdW  Elec       q    Type
REMARK                         _______ _______ _______ _____ _____    ______ ____
ROOT
ATOM      1  C   UNL     1      35.813 -21.972 -18.535  0.00  0.00    -0.013 C 
ATOM      2  C   UNL     1      35.485 -22.645 -15.855  0.00  0.00    +0.139 C 
ATOM      3  C   UNL     1      36.816 -21.673 -17.614  0.00  0.00    -0.001 C 
ATOM      4  C   UNL     1      34.646 -22.608 -18.114  0.00  0.00    -0.001 C 
ATOM      5  C   UNL     1      36.652 -22.011 -16.271  0.00  0.00    +0.037 C 
ATOM      6  C   UNL     1      34.482 -22.946 -16.771  0.00  0.00    +0.037 C 
ENDROOT
BRANCH   2   7
ATOM      7  O   UNL     1      35.325 -22.975 -14.539  0.00  0.00    -0.472 OA
BRANCH   7   8
ATOM      8  C   UNL     1      36.007 -24.145 -14.086  0.00  0.00    +0.221 C 
ATOM      9  C   UNL     1      37.498 -23.830 -14.029  0.00  0.00    +0.055 C 
ATOM     10  C   UNL     1      35.690 -25.282 -15.054  0.00  0.00    +0.055 C 
BRANCH   8  12
ATOM     11  O   UNL     1      35.876 -25.301 -11.946  0.00  0.00    -0.246 OA
ATOM     12  C   UNL     1      35.451 -24.432 -12.697  0.00  0.00    +0.350 C 
BRANCH  12  13
ATOM     13  O   UNL     1      34.417 -23.622 -12.354  0.00  0.00    -0.478 OA
ATOM     14  H   UNL     1      33.580 -23.990 -12.149  0.00  0.00    +0.295 HD
ENDBRANCH  12  13
ENDBRANCH   8  12
ENDBRANCH   7   8
ENDBRANCH   2   7
BRANCH   1  15
ATOM     15  C   UNL     1      35.989 -21.611 -19.972  0.00  0.00    +0.112 C 
BRANCH  15  18
ATOM     16  O   UNL     1      33.944 -20.346 -20.132  0.00  0.00    -0.274 OA
ATOM     17  N   UNL     1      35.882 -19.529 -21.174  0.00  0.00    -0.284 N 
ATOM     18  C   UNL     1      35.132 -20.431 -20.425  0.00  0.00    +0.231 C 
ATOM     19  H   UNL     1      36.831 -19.759 -21.310  0.00  0.00    +0.155 HD
BRANCH  17  20
ATOM     20  C   UNL     1      35.441 -18.320 -21.763  0.00  0.00    +0.050 C 
ATOM     21  C   UNL     1      34.702 -16.050 -21.529  0.00  0.00    -0.021 C 
ATOM     22  C   UNL     1      34.888 -17.050 -23.720  0.00  0.00    -0.021 C 
ATOM     23  C   UNL     1      35.324 -18.241 -23.140  0.00  0.00    +0.010 C 
ATOM     24  C   UNL     1      35.136 -17.242 -20.949  0.00  0.00    +0.010 C 
ATOM     25  C   UNL     1      34.577 -15.954 -22.914  0.00  0.00    -0.008 C 
ATOM     26  C   UNL     1      34.369 -14.879 -20.667  0.00  0.00    +0.031 C 
ATOM     27  C   UNL     1      34.754 -16.946 -25.202  0.00  0.00    +0.031 C 
ENDBRANCH  17  20
ENDBRANCH  15  18
ENDBRANCH   1  15
TORSDOF 7
ENDMDL
MODEL 2
REMARK VINA RESULT:     -10.5      0.314      1.991
REMARK  Name = 122335
REMARK  7 active torsions:
REMARK  status: ('A' for Active; 'I' for Inactive)
REMARK    1  A    between atoms: C_1  and  C_15
REMARK    2  A    between atoms: C_2  and  O_7
REMARK    3  A    between atoms: O_7  and  C_8
REMARK    4  A    between atoms: C_8  and  C_12
REMARK    5  A    between atoms: C_12  and  O_13
REMARK    6  A    between atoms: C_15  and  C_18
REMARK    7  A    between atoms: N_17  and  C_20
REMARK                            x       y       z     vdW  Elec       q    Type
REMARK                         _______ _______ _______ _____ _____    ______ ____
ROOT
ATOM      1  C   UNL     1      35.802 -22.024 -18.437  0.00  0.00    -0.013 C 
ATOM      2  C   UNL     1      35.479 -22.690 -15.754  0.00  0.00    +0.139 C 
ATOM      3  C   UNL     1      34.631 -22.649 -18.010  0.00  0.00    -0.001 C 
ATOM      4  C   UNL     1      36.811 -21.733 -17.519  0.00  0.00    -0.001 C 
ATOM      5  C   UNL     1      34.469 -22.983 -16.665  0.00  0.00    +0.037 C 
ATOM      6  C   UNL     1      36.649 -22.067 -16.175  0.00  0.00    +0.037 C 
ENDROOT
BRANCH   2   7
ATOM      7  O   UNL     1      35.319 -23.018 -14.437  0.00  0.00    -0.472 OA
BRANCH   7   8
ATOM      8  C   UNL     1      35.927 -24.236 -14.004  0.00  0.00    +0.221 C 
ATOM      9  C   UNL     1      37.385 -23.941 -13.664  0.00  0.00    +0.055 C 
ATOM     10  C   UNL     1      35.789 -25.259 -15.127  0.00  0.00    +0.055 C 
BRANCH   8  12
ATOM     11  O   UNL     1      35.662 -25.031 -11.717  0.00  0.00    -0.246 OA
ATOM     12  C   UNL     1      35.148 -24.665 -12.767  0.00  0.00    +0.350 C 
BRANCH  12  13
ATOM     13  O   UNL     1      33.802 -24.607 -12.933  0.00  0.00    -0.478 OA
ATOM     14  H   UNL     1      33.406 -23.837 -13.292  0.00  0.00    +0.295 HD
ENDBRANCH  12  13
ENDBRANCH   8  12
ENDBRANCH   7   8
ENDBRANCH   2   7
BRANCH   1  15
ATOM     15  C   UNL     1      35.975 -21.666 -19.875  0.00  0.00    +0.112 C 
BRANCH  15  18
ATOM     16  O   UNL     1      33.948 -20.369 -19.992  0.00  0.00    -0.274 OA
ATOM     17  N   UNL     1      35.860 -19.613 -21.125  0.00  0.00    -0.284 N 
ATOM     18  C   UNL     1      35.122 -20.483 -20.326  0.00  0.00    +0.231 C 
ATOM     19  H   UNL     1      36.798 -19.864 -21.290  0.00  0.00    +0.155 HD
BRANCH  17  20
ATOM     20  C   UNL     1      35.418 -18.412 -21.728  0.00  0.00    +0.050 C 
ATOM     21  C   UNL     1      34.829 -17.177 -23.697  0.00  0.00    -0.021 C 
ATOM     22  C   UNL     1      34.717 -16.127 -21.524  0.00  0.00    -0.021 C 
ATOM     23  C   UNL     1      35.150 -17.312 -20.930  0.00  0.00    +0.010 C 
ATOM     24  C   UNL     1      35.264 -18.361 -23.103  0.00  0.00    +0.010 C 
ATOM     25  C   UNL     1      34.556 -16.059 -22.908  0.00  0.00    -0.008 C 
ATOM     26  C   UNL     1      34.657 -17.104 -25.177  0.00  0.00    +0.031 C 
ATOM     27  C   UNL     1      34.425 -14.932 -20.681  0.00  0.00    +0.031 C 
ENDBRANCH  17  20
ENDBRANCH  15  18
ENDBRANCH   1  15
TORSDOF 7
ENDMDL
MODEL 3
REMARK VINA RESULT:     -10.0      5.134      8.920
REMARK  Name = 122335
REMARK  7 active torsions:
REMARK  status: ('A' for Active; 'I' for Inactive)
REMARK    1  A    between atoms: C_1  and  C_15
REMARK    2  A    between atoms: C_2  and  O_7
REMARK    3  A    between atoms: O_7  and  C_8
REMARK    4  A    between atoms: C_8  and  C_12
REMARK    5  A    between atoms: C_12  and  O_13
REMARK    6  A    between atoms: C_15  and  C_18
REMARK    7  A    between atoms: N_17  and  C_20
REMARK                            x       y       z     vdW  Elec       q    Type
REMARK                         _______ _______ _______ _____ _____    ______ ____
ROOT
ATOM      1  C   UNL     1      33.140 -14.701 -22.835  0.00  0.00    -0.013 C 
ATOM      2  C   UNL     1      34.483 -16.771 -21.550  0.00  0.00    +0.139 C 
ATOM      3  C   UNL     1      32.775 -15.071 -21.542  0.00  0.00    -0.001 C 
ATOM      4  C   UNL     1      34.178 -15.367 -23.485  0.00  0.00    -0.001 C 
ATOM      5  C   UNL     1      33.448 -16.109 -20.897  0.00  0.00    +0.037 C 
ATOM      6  C   UNL     1      34.852 -16.405 -22.840  0.00  0.00    +0.037 C 
ENDROOT
BRANCH   2   7
ATOM      7  O   UNL     1      35.142 -17.789 -20.917  0.00  0.00    -0.472 OA
BRANCH   7   8
ATOM      8  C   UNL     1      34.757 -19.117 -21.273  0.00  0.00    +0.221 C 
ATOM      9  C   UNL     1      34.917 -19.268 -22.782  0.00  0.00    +0.055 C 
ATOM     10  C   UNL     1      33.316 -19.328 -20.818  0.00  0.00    +0.055 C 
BRANCH   8  12
ATOM     11  O   UNL     1      35.462 -21.194 -20.214  0.00  0.00    -0.246 OA
ATOM     12  C   UNL     1      35.713 -20.035 -20.522  0.00  0.00    +0.350 C 
BRANCH  12  13
ATOM     13  O   UNL     1      36.897 -19.445 -20.216  0.00  0.00    -0.478 OA
ATOM     14  H   UNL     1      37.698 -19.919 -20.320  0.00  0.00    +0.295 HD
ENDBRANCH  12  13
ENDBRANCH   8  12
ENDBRANCH   7   8
ENDBRANCH   2   7
BRANCH   1  15
ATOM     15  C   UNL     1      32.421 -13.590 -23.524  0.00  0.00    +0.112 C 
BRANCH  15  18
ATOM     16  O   UNL     1      34.293 -12.126 -23.923  0.00  0.00    -0.274 OA
ATOM     17  N   UNL     1      32.366 -11.269 -22.891  0.00  0.00    -0.284 N 
ATOM     18  C   UNL     1      33.156 -12.253 -23.479  0.00  0.00    +0.231 C 
ATOM     19  H   UNL     1      31.471 -11.552 -22.591  0.00  0.00    +0.155 HD
BRANCH  17  20
ATOM     20  C   UNL     1      32.699  -9.911 -22.673  0.00  0.00    +0.050 C 
ATOM     21  C   UNL     1      32.600  -7.949 -21.298  0.00  0.00    -0.021 C 
ATOM     22  C   UNL     1      33.773  -7.897 -23.410  0.00  0.00    -0.021 C 
ATOM     23  C   UNL     1      33.446  -9.236 -23.624  0.00  0.00    +0.010 C 
ATOM     24  C   UNL     1      32.272  -9.287 -21.513  0.00  0.00    +0.010 C 
ATOM     25  C   UNL     1      33.350  -7.253 -22.247  0.00  0.00    -0.008 C 
ATOM     26  C   UNL     1      32.149  -7.260 -20.054  0.00  0.00    +0.031 C 
ATOM     27  C   UNL     1      34.574  -7.153 -24.424  0.00  0.00    +0.031 C 
ENDBRANCH  17  20
ENDBRANCH  15  18
ENDBRANCH   1  15
TORSDOF 7
ENDMDL
MODEL 4
REMARK VINA RESULT:     -10.0      5.135      9.052
REMARK  Name = 122335
REMARK  7 active torsions:
REMARK  status: ('A' for Active; 'I' for Inactive)
REMARK    1  A    between atoms: C_1  and  C_15
REMARK    2  A    between atoms: C_2  and  O_7
REMARK    3  A    between atoms: O_7  and  C_8
REMARK    4  A    between atoms: C_8  and  C_12
REMARK    5  A    between atoms: C_12  and  O_13
REMARK    6  A    between atoms: C_15  and  C_18
REMARK    7  A    between atoms: N_17  and  C_20
REMARK                            x       y       z     vdW  Elec       q    Type
REMARK                         _______ _______ _______ _____ _____    ______ ____
ROOT
ATOM      1  C   UNL     1      33.159 -14.704 -22.864  0.00  0.00    -0.013 C 
ATOM      2  C   UNL     1      34.493 -16.765 -21.555  0.00  0.00    +0.139 C 
ATOM      3  C   UNL     1      32.792 -15.057 -21.566  0.00  0.00    -0.001 C 
ATOM      4  C   UNL     1      34.194 -15.383 -23.506  0.00  0.00    -0.001 C 
ATOM      5  C   UNL     1      33.461 -16.091 -20.910  0.00  0.00    +0.037 C 
ATOM      6  C   UNL     1      34.863 -16.416 -22.850  0.00  0.00    +0.037 C 
ENDROOT
BRANCH   2   7
ATOM      7  O   UNL     1      35.148 -17.778 -20.911  0.00  0.00    -0.472 OA
BRANCH   7   8
ATOM      8  C   UNL     1      34.772 -19.109 -21.267  0.00  0.00    +0.221 C 
ATOM      9  C   UNL     1      34.931 -19.257 -22.776  0.00  0.00    +0.055 C 
ATOM     10  C   UNL     1      33.333 -19.331 -20.810  0.00  0.00    +0.055 C 
BRANCH   8  12
ATOM     11  O   UNL     1      35.495 -21.182 -20.213  0.00  0.00    -0.246 OA
ATOM     12  C   UNL     1      35.736 -20.021 -20.518  0.00  0.00    +0.350 C 
BRANCH  12  13
ATOM     13  O   UNL     1      36.914 -19.420 -20.209  0.00  0.00    -0.478 OA
ATOM     14  H   UNL     1      37.666 -19.940 -20.003  0.00  0.00    +0.295 HD
ENDBRANCH  12  13
ENDBRANCH   8  12
ENDBRANCH   7   8
ENDBRANCH   2   7
BRANCH   1  15
ATOM     15  C   UNL     1      32.444 -13.598 -23.566  0.00  0.00    +0.112 C 
BRANCH  15  18
ATOM     16  O   UNL     1      34.307 -12.122 -23.961  0.00  0.00    -0.274 OA
ATOM     17  N   UNL     1      32.381 -11.282 -22.915  0.00  0.00    -0.284 N 
ATOM     18  C   UNL     1      33.173 -12.258 -23.514  0.00  0.00    +0.231 C 
ATOM     19  H   UNL     1      31.489 -11.571 -22.613  0.00  0.00    +0.155 HD
BRANCH  17  20
ATOM     20  C   UNL     1      32.708  -9.924 -22.688  0.00  0.00    +0.050 C 
ATOM     21  C   UNL     1      33.770  -7.900 -23.413  0.00  0.00    -0.021 C 
ATOM     22  C   UNL     1      32.605  -7.972 -21.299  0.00  0.00    -0.021 C 
ATOM     23  C   UNL     1      32.281  -9.310 -21.523  0.00  0.00    +0.010 C 
ATOM     24  C   UNL     1      33.448  -9.239 -23.636  0.00  0.00    +0.010 C 
ATOM     25  C   UNL     1      33.350  -7.267 -22.244  0.00  0.00    -0.008 C 
ATOM     26  C   UNL     1      34.567  -7.146 -24.424  0.00  0.00    +0.031 C 
ATOM     27  C   UNL     1      32.155  -7.294 -20.049  0.00  0.00    +0.031 C 
ENDBRANCH  17  20
ENDBRANCH  15  18
ENDBRANCH   1  15
TORSDOF 7
ENDMDL
MODEL 5
REMARK VINA RESULT:     -10.0      2.842      9.224
REMARK  Name = 122335
REMARK  7 active torsions:
REMARK  status: ('A' for Active; 'I' for Inactive)
REMARK    1  A    between atoms: C_1  and  C_15
REMARK    2  A    between atoms: C_2  and  O_7
REMARK    3  A    between atoms: O_7  and  C_8
REMARK    4  A    between atoms: C_8  and  C_12
REMARK    5  A    between atoms: C_12  and  O_13
REMARK    6  A    between atoms: C_15  and  C_18
REMARK    7  A    between atoms: N_17  and  C_20
REMARK                            x       y       z     vdW  Elec       q    Type
REMARK                         _______ _______ _______ _____ _____    ______ ____
ROOT
ATOM      1  C   UNL     1      35.654 -20.157 -20.638  0.00  0.00    -0.013 C 
ATOM      2  C   UNL     1      34.514 -17.867 -21.733  0.00  0.00    +0.139 C 
ATOM      3  C   UNL     1      36.470 -19.127 -21.105  0.00  0.00    -0.001 C 
ATOM      4  C   UNL     1      34.267 -20.039 -20.719  0.00  0.00    -0.001 C 
ATOM      5  C   UNL     1      35.899 -17.979 -21.654  0.00  0.00    +0.037 C 
ATOM      6  C   UNL     1      33.696 -18.891 -21.268  0.00  0.00    +0.037 C 
ENDROOT
BRANCH   2   7
ATOM      7  O   UNL     1      33.955 -16.741 -22.271  0.00  0.00    -0.472 OA
BRANCH   7   8
ATOM      8  C   UNL     1      33.614 -15.698 -21.358  0.00  0.00    +0.221 C 
ATOM      9  C   UNL     1      34.731 -15.592 -20.323  0.00  0.00    +0.055 C 
ATOM     10  C   UNL     1      32.269 -16.043 -20.726  0.00  0.00    +0.055 C 
BRANCH   8  12
ATOM     11  O   UNL     1      32.492 -13.788 -22.370  0.00  0.00    -0.246 OA
ATOM     12  C   UNL     1      33.520 -14.431 -22.199  0.00  0.00    +0.350 C 
BRANCH  12  13
ATOM     13  O   UNL     1      34.703 -14.067 -22.757  0.00  0.00    -0.478 OA
ATOM     14  H   UNL     1      34.739 -13.342 -23.349  0.00  0.00    +0.295 HD
ENDBRANCH  12  13
ENDBRANCH   8  12
ENDBRANCH   7   8
ENDBRANCH   2   7
BRANCH   1  15
ATOM     15  C   UNL     1      36.265 -21.384 -20.051  0.00  0.00    +0.112 C 
BRANCH  15  18
ATOM     16  O   UNL     1      36.545 -21.145 -17.669  0.00  0.00    -0.274 OA
ATOM     17  N   UNL     1      34.757 -22.425 -18.491  0.00  0.00    -0.284 N 
ATOM     18  C   UNL     1      35.892 -21.624 -18.590  0.00  0.00    +0.231 C 
ATOM     19  H   UNL     1      34.358 -22.721 -19.341  0.00  0.00    +0.155 HD
BRANCH  17  20
ATOM     20  C   UNL     1      34.110 -22.862 -17.310  0.00  0.00    +0.050 C 
ATOM     21  C   UNL     1      32.089 -23.337 -16.110  0.00  0.00    -0.021 C 
ATOM     22  C   UNL     1      34.237 -23.666 -15.055  0.00  0.00    -0.021 C 
ATOM     23  C   UNL     1      34.874 -23.237 -16.218  0.00  0.00    +0.010 C 
ATOM     24  C   UNL     1      32.727 -22.905 -17.273  0.00  0.00    +0.010 C 
ATOM     25  C   UNL     1      32.843 -23.716 -15.000  0.00  0.00    -0.008 C 
ATOM     26  C   UNL     1      30.599 -23.391 -16.052  0.00  0.00    +0.031 C 
ATOM     27  C   UNL     1      35.043 -24.073 -13.868  0.00  0.00    +0.031 C 
ENDBRANCH  17  20
ENDBRANCH  15  18
ENDBRANCH   1  15
TORSDOF 7
ENDMDL
MODEL 6
REMARK VINA RESULT:      -9.8      1.956      3.203
REMARK  Name = 122335
REMARK  7 active torsions:
REMARK  status: ('A' for Active; 'I' for Inactive)
REMARK    1  A    between atoms: C_1  and  C_15
REMARK    2  A    between atoms: C_2  and  O_7
REMARK    3  A    between atoms: O_7  and  C_8
REMARK    4  A    between atoms: C_8  and  C_12
REMARK    5  A    between atoms: C_12  and  O_13
REMARK    6  A    between atoms: C_15  and  C_18
REMARK    7  A    between atoms: N_17  and  C_20
REMARK                            x       y       z     vdW  Elec       q    Type
REMARK                         _______ _______ _______ _____ _____    ______ ____
ROOT
ATOM      1  C   UNL     1      35.290 -22.111 -18.473  0.00  0.00    -0.013 C 
ATOM      2  C   UNL     1      34.000 -23.500 -16.436  0.00  0.00    +0.139 C 
ATOM      3  C   UNL     1      34.068 -22.735 -18.720  0.00  0.00    -0.001 C 
ATOM      4  C   UNL     1      35.866 -22.183 -17.205  0.00  0.00    -0.001 C 
ATOM      5  C   UNL     1      33.421 -23.431 -17.699  0.00  0.00    +0.037 C 
ATOM      6  C   UNL     1      35.219 -22.879 -16.183  0.00  0.00    +0.037 C 
ENDROOT
BRANCH   2   7
ATOM      7  O   UNL     1      33.366 -24.183 -15.435  0.00  0.00    -0.472 OA
BRANCH   7   8
ATOM      8  C   UNL     1      32.078 -23.702 -15.051  0.00  0.00    +0.221 C 
ATOM      9  C   UNL     1      31.292 -23.388 -16.320  0.00  0.00    +0.055 C 
ATOM     10  C   UNL     1      32.276 -22.471 -14.171  0.00  0.00    +0.055 C 
BRANCH   8  12
ATOM     11  O   UNL     1      30.364 -25.363 -14.563  0.00  0.00    -0.246 OA
ATOM     12  C   UNL     1      31.432 -24.840 -14.270  0.00  0.00    +0.350 C 
BRANCH  12  13
ATOM     13  O   UNL     1      32.160 -25.236 -13.194  0.00  0.00    -0.478 OA
ATOM     14  H   UNL     1      31.727 -25.533 -12.418  0.00  0.00    +0.295 HD
ENDBRANCH  12  13
ENDBRANCH   8  12
ENDBRANCH   7   8
ENDBRANCH   2   7
BRANCH   1  15
ATOM     15  C   UNL     1      35.981 -21.366 -19.565  0.00  0.00    +0.112 C 
BRANCH  15  18
ATOM     16  O   UNL     1      33.877 -20.455 -20.306  0.00  0.00    -0.274 OA
ATOM     17  N   UNL     1      35.865 -19.321 -20.827  0.00  0.00    -0.284 N 
ATOM     18  C   UNL     1      35.097 -20.340 -20.271  0.00  0.00    +0.231 C 
ATOM     19  H   UNL     1      36.839 -19.390 -20.700  0.00  0.00    +0.155 HD
BRANCH  17  20
ATOM     20  C   UNL     1      35.408 -18.196 -21.556  0.00  0.00    +0.050 C 
ATOM     21  C   UNL     1      34.879 -17.162 -23.654  0.00  0.00    -0.021 C 
ATOM     22  C   UNL     1      34.600 -15.938 -21.590  0.00  0.00    -0.021 C 
ATOM     23  C   UNL     1      35.049 -17.047 -20.872  0.00  0.00    +0.010 C 
ATOM     24  C   UNL     1      35.329 -18.270 -22.936  0.00  0.00    +0.010 C 
ATOM     25  C   UNL     1      34.515 -15.996 -22.981  0.00  0.00    -0.008 C 
ATOM     26  C   UNL     1      34.787 -17.224 -25.141  0.00  0.00    +0.031 C 
ATOM     27  C   UNL     1      34.211 -14.691 -20.870  0.00  0.00    +0.031 C 
ENDBRANCH  17  20
ENDBRANCH  15  18
ENDBRANCH   1  15
TORSDOF 7
ENDMDL
MODEL 7
REMARK VINA RESULT:      -9.7      2.678      9.060
REMARK  Name = 122335
REMARK  7 active torsions:
REMARK  status: ('A' for Active; 'I' for Inactive)
REMARK    1  A    between atoms: C_1  and  C_15
REMARK    2  A    between atoms: C_2  and  O_7
REMARK    3  A    between atoms: O_7  and  C_8
REMARK    4  A    between atoms: C_8  and  C_12
REMARK    5  A    between atoms: C_12  and  O_13
REMARK    6  A    between atoms: C_15  and  C_18
REMARK    7  A    between atoms: N_17  and  C_20
REMARK                            x       y       z     vdW  Elec       q    Type
REMARK                         _______ _______ _______ _____ _____    ______ ____
ROOT
ATOM      1  C   UNL     1      35.775 -20.170 -20.613  0.00  0.00    -0.013 C 
ATOM      2  C   UNL     1      34.494 -18.005 -21.803  0.00  0.00    +0.139 C 
ATOM      3  C   UNL     1      34.383 -20.089 -20.597  0.00  0.00    -0.001 C 
ATOM      4  C   UNL     1      36.525 -19.166 -21.225  0.00  0.00    -0.001 C 
ATOM      5  C   UNL     1      33.741 -19.004 -21.194  0.00  0.00    +0.037 C 
ATOM      6  C   UNL     1      35.883 -18.081 -21.822  0.00  0.00    +0.037 C 
ENDROOT
BRANCH   2   7
ATOM      7  O   UNL     1      33.863 -16.942 -22.387  0.00  0.00    -0.472 OA
BRANCH   7   8
ATOM      8  C   UNL     1      33.953 -15.692 -21.703  0.00  0.00    +0.221 C 
ATOM      9  C   UNL     1      34.670 -14.703 -22.617  0.00  0.00    +0.055 C 
ATOM     10  C   UNL     1      34.704 -15.922 -20.394  0.00  0.00    +0.055 C 
BRANCH   8  12
ATOM     11  O   UNL     1      32.005 -14.243 -21.895  0.00  0.00    -0.246 OA
ATOM     12  C   UNL     1      32.515 -15.262 -21.445  0.00  0.00    +0.350 C 
BRANCH  12  13
ATOM     13  O   UNL     1      31.828 -16.126 -20.654  0.00  0.00    -0.478 OA
ATOM     14  H   UNL     1      32.232 -16.922 -20.368  0.00  0.00    +0.295 HD
ENDBRANCH  12  13
ENDBRANCH   8  12
ENDBRANCH   7   8
ENDBRANCH   2   7
BRANCH   1  15
ATOM     15  C   UNL     1      36.462 -21.330 -19.976  0.00  0.00    +0.112 C 
BRANCH  15  18
ATOM     16  O   UNL     1      36.677 -21.089 -17.587  0.00  0.00    -0.274 OA
ATOM     17  N   UNL     1      34.920 -22.381 -18.456  0.00  0.00    -0.284 N 
ATOM     18  C   UNL     1      36.052 -21.573 -18.525  0.00  0.00    +0.231 C 
ATOM     19  H   UNL     1      34.546 -22.681 -19.317  0.00  0.00    +0.155 HD
BRANCH  17  20
ATOM     20  C   UNL     1      34.245 -22.823 -17.293  0.00  0.00    +0.050 C 
ATOM     21  C   UNL     1      34.317 -23.617 -15.031  0.00  0.00    -0.021 C 
ATOM     22  C   UNL     1      32.197 -23.325 -16.151  0.00  0.00    -0.021 C 
ATOM     23  C   UNL     1      32.862 -22.888 -17.296  0.00  0.00    +0.010 C 
ATOM     24  C   UNL     1      34.982 -23.182 -16.177  0.00  0.00    +0.010 C 
ATOM     25  C   UNL     1      32.925 -23.689 -15.018  0.00  0.00    -0.008 C 
ATOM     26  C   UNL     1      35.095 -24.006 -13.819  0.00  0.00    +0.031 C 
ATOM     27  C   UNL     1      30.708 -23.402 -16.136  0.00  0.00    +0.031 C 
ENDBRANCH  17  20
ENDBRANCH  15  18
ENDBRANCH   1  15
TORSDOF 7
ENDMDL
MODEL 8
REMARK VINA RESULT:      -9.4      2.514      9.669
REMARK  Name = 122335
REMARK  7 active torsions:
REMARK  status: ('A' for Active; 'I' for Inactive)
REMARK    1  A    between atoms: C_1  and  C_15
REMARK    2  A    between atoms: C_2  and  O_7
REMARK    3  A    between atoms: O_7  and  C_8
REMARK    4  A    between atoms: C_8  and  C_12
REMARK    5  A    between atoms: C_12  and  O_13
REMARK    6  A    between atoms: C_15  and  C_18
REMARK    7  A    between atoms: N_17  and  C_20
REMARK                            x       y       z     vdW  Elec       q    Type
REMARK                         _______ _______ _______ _____ _____    ______ ____
ROOT
ATOM      1  C   UNL     1      34.260 -21.916 -18.916  0.00  0.00    -0.013 C 
ATOM      2  C   UNL     1      34.368 -20.217 -21.118  0.00  0.00    +0.139 C 
ATOM      3  C   UNL     1      33.110 -21.251 -19.341  0.00  0.00    -0.001 C 
ATOM      4  C   UNL     1      35.464 -21.729 -19.594  0.00  0.00    -0.001 C 
ATOM      5  C   UNL     1      33.164 -20.400 -20.445  0.00  0.00    +0.037 C 
ATOM      6  C   UNL     1      35.518 -20.878 -20.698  0.00  0.00    +0.037 C 
ENDROOT
BRANCH   2   7
ATOM      7  O   UNL     1      34.421 -19.382 -22.199  0.00  0.00    -0.472 OA
BRANCH   7   8
ATOM      8  C   UNL     1      35.203 -18.196 -22.052  0.00  0.00    +0.221 C 
ATOM      9  C   UNL     1      36.601 -18.604 -21.601  0.00  0.00    +0.055 C 
ATOM     10  C   UNL     1      34.506 -17.294 -21.037  0.00  0.00    +0.055 C 
BRANCH   8  12
ATOM     11  O   UNL     1      34.851 -18.098 -24.460  0.00  0.00    -0.246 OA
ATOM     12  C   UNL     1      35.234 -17.552 -23.432  0.00  0.00    +0.350 C 
BRANCH  12  13
ATOM     13  O   UNL     1      35.735 -16.290 -23.426  0.00  0.00    -0.478 OA
ATOM     14  H   UNL     1      35.155 -15.555 -23.465  0.00  0.00    +0.295 HD
ENDBRANCH  12  13
ENDBRANCH   8  12
ENDBRANCH   7   8
ENDBRANCH   2   7
BRANCH   1  15
ATOM     15  C   UNL     1      34.202 -22.827 -17.737  0.00  0.00    +0.112 C 
BRANCH  15  18
ATOM     16  O   UNL     1      36.236 -21.818 -16.929  0.00  0.00    -0.274 OA
ATOM     17  N   UNL     1      35.398 -23.730 -15.854  0.00  0.00    -0.284 N 
ATOM     18  C   UNL     1      35.406 -22.713 -16.805  0.00  0.00    +0.231 C 
ATOM     19  H   UNL     1      34.647 -24.366 -15.903  0.00  0.00    +0.155 HD
BRANCH  17  20
ATOM     20  C   UNL     1      36.343 -23.956 -14.825  0.00  0.00    +0.050 C 
ATOM     21  C   UNL     1      38.405 -24.930 -14.083  0.00  0.00    -0.021 C 
ATOM     22  C   UNL     1      37.047 -23.643 -12.554  0.00  0.00    -0.021 C 
ATOM     23  C   UNL     1      36.117 -23.419 -13.568  0.00  0.00    +0.010 C 
ATOM     24  C   UNL     1      37.473 -24.708 -15.096  0.00  0.00    +0.010 C 
ATOM     25  C   UNL     1      38.191 -24.399 -12.811  0.00  0.00    -0.008 C 
ATOM     26  C   UNL     1      39.628 -25.738 -14.357  0.00  0.00    +0.031 C 
ATOM     27  C   UNL     1      36.820 -23.075 -11.193  0.00  0.00    +0.031 C 
ENDBRANCH  17  20
ENDBRANCH  15  18
ENDBRANCH   1  15
TORSDOF 7
ENDMDL
MODEL 9
REMARK VINA RESULT:      -9.2      3.371      9.326
REMARK  Name = 122335
REMARK  7 active torsions:
REMARK  status: ('A' for Active; 'I' for Inactive)
REMARK    1  A    between atoms: C_1  and  C_15
REMARK    2  A    between atoms: C_2  and  O_7
REMARK    3  A    between atoms: O_7  and  C_8
REMARK    4  A    between atoms: C_8  and  C_12
REMARK    5  A    between atoms: C_12  and  O_13
REMARK    6  A    between atoms: C_15  and  C_18
REMARK    7  A    between atoms: N_17  and  C_20
REMARK                            x       y       z     vdW  Elec       q    Type
REMARK                         _______ _______ _______ _____ _____    ______ ____
ROOT
ATOM      1  C   UNL     1      34.762 -21.113 -19.744  0.00  0.00    -0.013 C 
ATOM      2  C   UNL     1      34.068 -19.037 -21.463  0.00  0.00    +0.139 C 
ATOM      3  C   UNL     1      33.422 -20.768 -19.915  0.00  0.00    -0.001 C 
ATOM      4  C   UNL     1      35.754 -20.417 -20.434  0.00  0.00    -0.001 C 
ATOM      5  C   UNL     1      33.074 -19.728 -20.777  0.00  0.00    +0.037 C 
ATOM      6  C   UNL     1      35.407 -19.377 -21.295  0.00  0.00    +0.037 C 
ENDROOT
BRANCH   2   7
ATOM      7  O   UNL     1      33.727 -18.017 -22.307  0.00  0.00    -0.472 OA
BRANCH   7   8
ATOM      8  C   UNL     1      34.519 -16.831 -22.228  0.00  0.00    +0.221 C 
ATOM      9  C   UNL     1      35.755 -17.030 -23.100  0.00  0.00    +0.055 C 
ATOM     10  C   UNL     1      34.874 -16.596 -20.763  0.00  0.00    +0.055 C 
BRANCH   8  12
ATOM     11  O   UNL     1      33.743 -15.226 -23.888  0.00  0.00    -0.246 OA
ATOM     12  C   UNL     1      33.637 -15.713 -22.769  0.00  0.00    +0.350 C 
BRANCH  12  13
ATOM     13  O   UNL     1      32.699 -15.292 -21.882  0.00  0.00    -0.478 OA
ATOM     14  H   UNL     1      32.637 -15.694 -21.038  0.00  0.00    +0.295 HD
ENDBRANCH  12  13
ENDBRANCH   8  12
ENDBRANCH   7   8
ENDBRANCH   2   7
BRANCH   1  15
ATOM     15  C   UNL     1      35.133 -22.226 -18.823  0.00  0.00    +0.112 C 
BRANCH  15  18
ATOM     16  O   UNL     1      33.620 -24.096 -18.956  0.00  0.00    -0.274 OA
ATOM     17  N   UNL     1      33.349 -22.522 -17.236  0.00  0.00    -0.284 N 
ATOM     18  C   UNL     1      33.948 -23.073 -18.365  0.00  0.00    +0.231 C 
ATOM     19  H   UNL     1      33.749 -21.690 -16.893  0.00  0.00    +0.155 HD
BRANCH  17  20
ATOM     20  C   UNL     1      32.230 -23.017 -16.525  0.00  0.00    +0.050 C 
ATOM     21  C   UNL     1      31.332 -24.292 -14.702  0.00  0.00    -0.021 C 
ATOM     22  C   UNL     1      29.852 -23.194 -16.265  0.00  0.00    -0.021 C 
ATOM     23  C   UNL     1      30.955 -22.705 -16.965  0.00  0.00    +0.010 C 
ATOM     24  C   UNL     1      32.434 -23.804 -15.404  0.00  0.00    +0.010 C 
ATOM     25  C   UNL     1      30.041 -23.988 -15.133  0.00  0.00    -0.008 C 
ATOM     26  C   UNL     1      31.534 -25.140 -13.492  0.00  0.00    +0.031 C 
ATOM     27  C   UNL     1      28.471 -22.869 -16.725  0.00  0.00    +0.031 C 
ENDBRANCH  17  20
ENDBRANCH  15  18
ENDBRANCH   1  15
TORSDOF 7
ENDMDL
