MODEL 1
REMARK VINA RESULT:      -8.8      0.000      0.000
REMARK  Name = 44129612
REMARK  3 active torsions:
REMARK  status: ('A' for Active; 'I' for Inactive)
REMARK    1  A    between atoms: N_3  and  C_15
REMARK    2  A    between atoms: C_4  and  C_8
REMARK    3  A    between atoms: C_16  and  O_21
REMARK                            x       y       z     vdW  Elec       q    Type
REMARK                         _______ _______ _______ _____ _____    ______ ____
ROOT
ATOM      1  S   UNL     1      35.042 -15.801 -24.908  0.00  0.00    -0.107 S 
ATOM      2  O   UNL     1      34.086 -19.510 -24.704  0.00  0.00    -0.274 OA
ATOM      3  N   UNL     1      34.940 -17.868 -23.261  0.00  0.00    -0.243 N 
ATOM      4  C   UNL     1      35.228 -16.427 -23.218  0.00  0.00    +0.151 C 
ATOM      5  C   UNL     1      34.121 -17.232 -25.454  0.00  0.00    +0.145 C 
ATOM      6  C   UNL     1      34.379 -18.341 -24.465  0.00  0.00    +0.241 C 
ENDROOT
BRANCH   4   8
ATOM      7 BR   UNL     1      31.976 -12.257 -22.413  0.00  0.00    -0.049 Br
ATOM      8  C   UNL     1      34.298 -15.710 -22.300  0.00  0.00    +0.007 C 
ATOM      9  C   UNL     1      33.682 -14.528 -22.713  0.00  0.00    +0.005 C 
ATOM     10  C   UNL     1      34.042 -16.222 -21.028  0.00  0.00    -0.002 C 
ATOM     11  C   UNL     1      32.811 -13.858 -21.854  0.00  0.00    +0.034 C 
ATOM     12  C   UNL     1      33.171 -15.551 -20.168  0.00  0.00    +0.000 C 
ATOM     13  C   UNL     1      32.556 -14.370 -20.581  0.00  0.00    +0.007 C 
ENDBRANCH   4   8
BRANCH   3  15
ATOM     14 CL   UNL     1      33.089 -21.024 -19.692  0.00  0.00    -0.082 Cl
ATOM     15  C   UNL     1      35.204 -18.712 -22.180  0.00  0.00    +0.089 C 
ATOM     16  C   UNL     1      36.510 -18.904 -21.730  0.00  0.00    +0.147 C 
ATOM     17  C   UNL     1      34.146 -19.369 -21.550  0.00  0.00    +0.029 C 
ATOM     18  C   UNL     1      36.758 -19.750 -20.649  0.00  0.00    +0.039 C 
ATOM     19  C   UNL     1      34.395 -20.215 -20.470  0.00  0.00    +0.059 C 
ATOM     20  C   UNL     1      35.700 -20.406 -20.020  0.00  0.00    +0.015 C 
BRANCH  16  21
ATOM     21  O   UNL     1      37.558 -18.273 -22.332  0.00  0.00    -0.504 OA
ATOM     22  H   UNL     1      38.435 -18.457 -22.058  0.00  0.00    +0.292 HD
ENDBRANCH  16  21
ENDBRANCH   3  15
TORSDOF 3
ENDMDL
MODEL 2
REMARK VINA RESULT:      -8.4      4.483      6.552
REMARK  Name = 44129612
REMARK  3 active torsions:
REMARK  status: ('A' for Active; 'I' for Inactive)
REMARK    1  A    between atoms: N_3  and  C_15
REMARK    2  A    between atoms: C_4  and  C_8
REMARK    3  A    between atoms: C_16  and  O_21
REMARK                            x       y       z     vdW  Elec       q    Type
REMARK                         _______ _______ _______ _____ _____    ______ ____
ROOT
ATOM      1  S   UNL     1      32.192 -15.184 -20.898  0.00  0.00    -0.107 S 
ATOM      2  O   UNL     1      35.448 -15.073 -22.924  0.00  0.00    -0.274 OA
ATOM      3  N   UNL     1      33.354 -14.013 -22.966  0.00  0.00    -0.243 N 
ATOM      4  C   UNL     1      32.113 -13.910 -22.184  0.00  0.00    +0.151 C 
ATOM      5  C   UNL     1      33.957 -15.409 -21.075  0.00  0.00    +0.145 C 
ATOM      6  C   UNL     1      34.353 -14.843 -22.417  0.00  0.00    +0.241 C 
ENDROOT
BRANCH   4   8
ATOM      7 BR   UNL     1      31.557  -8.636 -22.880  0.00  0.00    -0.049 Br
ATOM      8  C   UNL     1      31.968 -12.563 -21.563  0.00  0.00    +0.007 C 
ATOM      9  C   UNL     1      31.851 -11.430 -22.370  0.00  0.00    +0.005 C 
ATOM     10  C   UNL     1      31.947 -12.435 -20.174  0.00  0.00    -0.002 C 
ATOM     11  C   UNL     1      31.715 -10.171 -21.787  0.00  0.00    +0.034 C 
ATOM     12  C   UNL     1      31.811 -11.174 -19.592  0.00  0.00    +0.000 C 
ATOM     13  C   UNL     1      31.695 -10.042 -20.398  0.00  0.00    +0.007 C 
ENDBRANCH   4   8
BRANCH   3  15
ATOM     14 CL   UNL     1      35.102  -9.851 -25.361  0.00  0.00    -0.082 Cl
ATOM     15  C   UNL     1      33.532 -13.333 -24.173  0.00  0.00    +0.089 C 
ATOM     16  C   UNL     1      33.097 -13.892 -25.374  0.00  0.00    +0.147 C 
ATOM     17  C   UNL     1      34.153 -12.084 -24.169  0.00  0.00    +0.029 C 
ATOM     18  C   UNL     1      33.282 -13.200 -26.572  0.00  0.00    +0.039 C 
ATOM     19  C   UNL     1      34.338 -11.393 -25.366  0.00  0.00    +0.059 C 
ATOM     20  C   UNL     1      33.902 -11.951 -26.567  0.00  0.00    +0.015 C 
BRANCH  16  21
ATOM     21  O   UNL     1      32.489 -15.111 -25.400  0.00  0.00    -0.504 OA
ATOM     22  H   UNL     1      32.671 -15.711 -26.097  0.00  0.00    +0.292 HD
ENDBRANCH  16  21
ENDBRANCH   3  15
TORSDOF 3
ENDMDL
MODEL 3
REMARK VINA RESULT:      -8.2      4.141      6.350
REMARK  Name = 44129612
REMARK  3 active torsions:
REMARK  status: ('A' for Active; 'I' for Inactive)
REMARK    1  A    between atoms: N_3  and  C_15
REMARK    2  A    between atoms: C_4  and  C_8
REMARK    3  A    between atoms: C_16  and  O_21
REMARK                            x       y       z     vdW  Elec       q    Type
REMARK                         _______ _______ _______ _____ _____    ______ ____
ROOT
ATOM      1  S   UNL     1      34.622 -14.768 -20.277  0.00  0.00    -0.107 S 
ATOM      2  O   UNL     1      31.598 -13.142 -21.989  0.00  0.00    -0.274 OA
ATOM      3  N   UNL     1      33.596 -14.184 -22.645  0.00  0.00    -0.243 N 
ATOM      4  C   UNL     1      34.736 -14.920 -22.080  0.00  0.00    +0.151 C 
ATOM      5  C   UNL     1      32.909 -14.260 -20.319  0.00  0.00    +0.145 C 
ATOM      6  C   UNL     1      32.613 -13.780 -21.719  0.00  0.00    +0.241 C 
ENDROOT
BRANCH   4   8
ATOM      7 BR   UNL     1      33.631 -19.975 -20.722  0.00  0.00    -0.049 Br
ATOM      8  C   UNL     1      34.710 -16.358 -22.475  0.00  0.00    +0.007 C 
ATOM      9  C   UNL     1      34.262 -17.323 -21.573  0.00  0.00    +0.005 C 
ATOM     10  C   UNL     1      35.134 -16.737 -23.749  0.00  0.00    -0.002 C 
ATOM     11  C   UNL     1      34.238 -18.667 -21.944  0.00  0.00    +0.034 C 
ATOM     12  C   UNL     1      35.111 -18.082 -24.120  0.00  0.00    +0.000 C 
ATOM     13  C   UNL     1      34.662 -19.047 -23.218  0.00  0.00    +0.007 C 
ENDBRANCH   4   8
BRANCH   3  15
ATOM     14 CL   UNL     1      32.284 -15.826 -27.303  0.00  0.00    -0.082 Cl
ATOM     15  C   UNL     1      33.494 -13.905 -24.009  0.00  0.00    +0.089 C 
ATOM     16  C   UNL     1      33.877 -12.662 -24.511  0.00  0.00    +0.147 C 
ATOM     17  C   UNL     1      33.000 -14.883 -24.873  0.00  0.00    +0.029 C 
ATOM     18  C   UNL     1      33.769 -12.397 -25.876  0.00  0.00    +0.039 C 
ATOM     19  C   UNL     1      32.891 -14.618 -26.237  0.00  0.00    +0.059 C 
ATOM     20  C   UNL     1      33.276 -13.376 -26.739  0.00  0.00    +0.015 C 
BRANCH  16  21
ATOM     21  O   UNL     1      34.361 -11.692 -23.685  0.00  0.00    -0.504 OA
ATOM     22  H   UNL     1      33.971 -10.839 -23.684  0.00  0.00    +0.292 HD
ENDBRANCH  16  21
ENDBRANCH   3  15
TORSDOF 3
ENDMDL
MODEL 4
REMARK VINA RESULT:      -7.9      7.582      9.899
REMARK  Name = 44129612
REMARK  3 active torsions:
REMARK  status: ('A' for Active; 'I' for Inactive)
REMARK    1  A    between atoms: N_3  and  C_15
REMARK    2  A    between atoms: C_4  and  C_8
REMARK    3  A    between atoms: C_16  and  O_21
REMARK                            x       y       z     vdW  Elec       q    Type
REMARK                         _______ _______ _______ _____ _____    ______ ____
ROOT
ATOM      1  S   UNL     1      31.209  -6.063 -21.369  0.00  0.00    -0.107 S 
ATOM      2  O   UNL     1      32.720  -9.043 -19.484  0.00  0.00    -0.274 OA
ATOM      3  N   UNL     1      32.063  -8.548 -21.682  0.00  0.00    -0.243 N 
ATOM      4  C   UNL     1      31.589  -7.425 -22.504  0.00  0.00    +0.151 C 
ATOM      5  C   UNL     1      32.145  -6.777 -20.024  0.00  0.00    +0.145 C 
ATOM      6  C   UNL     1      32.335  -8.243 -20.333  0.00  0.00    +0.241 C 
ENDROOT
BRANCH   4   8
ATOM      7 BR   UNL     1      32.753  -4.627 -26.912  0.00  0.00    -0.049 Br
ATOM      8  C   UNL     1      32.620  -6.996 -23.492  0.00  0.00    +0.007 C 
ATOM      9  C   UNL     1      32.266  -6.160 -24.552  0.00  0.00    +0.005 C 
ATOM     10  C   UNL     1      33.938  -7.430 -23.356  0.00  0.00    -0.002 C 
ATOM     11  C   UNL     1      33.232  -5.759 -25.475  0.00  0.00    +0.034 C 
ATOM     12  C   UNL     1      34.904  -7.029 -24.280  0.00  0.00    +0.000 C 
ATOM     13  C   UNL     1      34.550  -6.193 -25.339  0.00  0.00    +0.007 C 
ENDBRANCH   4   8
BRANCH   3  15
ATOM     14 CL   UNL     1      34.326 -11.530 -25.161  0.00  0.00    -0.082 Cl
ATOM     15  C   UNL     1      32.234  -9.831 -22.204  0.00  0.00    +0.089 C 
ATOM     16  C   UNL     1      31.561 -10.920 -21.650  0.00  0.00    +0.147 C 
ATOM     17  C   UNL     1      33.090 -10.020 -23.289  0.00  0.00    +0.029 C 
ATOM     18  C   UNL     1      31.741 -12.196 -22.182  0.00  0.00    +0.039 C 
ATOM     19  C   UNL     1      33.271 -11.297 -23.821  0.00  0.00    +0.059 C 
ATOM     20  C   UNL     1      32.597 -12.385 -23.268  0.00  0.00    +0.015 C 
BRANCH  16  21
ATOM     21  O   UNL     1      30.721 -10.757 -20.589  0.00  0.00    -0.504 OA
ATOM     22  H   UNL     1      30.391 -11.507 -20.133  0.00  0.00    +0.292 HD
ENDBRANCH  16  21
ENDBRANCH   3  15
TORSDOF 3
ENDMDL
MODEL 5
REMARK VINA RESULT:      -7.9      7.808     10.024
REMARK  Name = 44129612
REMARK  3 active torsions:
REMARK  status: ('A' for Active; 'I' for Inactive)
REMARK    1  A    between atoms: N_3  and  C_15
REMARK    2  A    between atoms: C_4  and  C_8
REMARK    3  A    between atoms: C_16  and  O_21
REMARK                            x       y       z     vdW  Elec       q    Type
REMARK                         _______ _______ _______ _____ _____    ______ ____
ROOT
ATOM      1  S   UNL     1      32.721 -23.615 -16.441  0.00  0.00    -0.107 S 
ATOM      2  O   UNL     1      33.750 -23.827 -12.751  0.00  0.00    -0.274 OA
ATOM      3  N   UNL     1      34.745 -24.205 -14.843  0.00  0.00    -0.243 N 
ATOM      4  C   UNL     1      34.474 -24.048 -16.279  0.00  0.00    +0.151 C 
ATOM      5  C   UNL     1      32.565 -23.145 -14.724  0.00  0.00    +0.145 C 
ATOM      6  C   UNL     1      33.722 -23.765 -13.978  0.00  0.00    +0.241 C 
ENDROOT
BRANCH   4   8
ATOM      7 BR   UNL     1      35.394 -20.793 -20.423  0.00  0.00    -0.049 Br
ATOM      8  C   UNL     1      35.323 -22.982 -16.883  0.00  0.00    +0.007 C 
ATOM      9  C   UNL     1      35.015 -22.476 -18.147  0.00  0.00    +0.005 C 
ATOM     10  C   UNL     1      36.425 -22.489 -16.185  0.00  0.00    -0.002 C 
ATOM     11  C   UNL     1      35.810 -21.479 -18.711  0.00  0.00    +0.034 C 
ATOM     12  C   UNL     1      37.221 -21.491 -16.750  0.00  0.00    +0.000 C 
ATOM     13  C   UNL     1      36.913 -20.986 -18.013  0.00  0.00    +0.007 C 
ENDBRANCH   4   8
BRANCH   3  15
ATOM     14 CL   UNL     1      38.755 -23.757 -11.706  0.00  0.00    -0.082 Cl
ATOM     15  C   UNL     1      35.938 -24.753 -14.367  0.00  0.00    +0.089 C 
ATOM     16  C   UNL     1      36.404 -25.973 -14.854  0.00  0.00    +0.147 C 
ATOM     17  C   UNL     1      36.665 -24.067 -13.392  0.00  0.00    +0.029 C 
ATOM     18  C   UNL     1      37.597 -26.508 -14.369  0.00  0.00    +0.039 C 
ATOM     19  C   UNL     1      37.857 -24.603 -12.907  0.00  0.00    +0.059 C 
ATOM     20  C   UNL     1      38.324 -25.823 -13.395  0.00  0.00    +0.015 C 
BRANCH  16  21
ATOM     21  O   UNL     1      35.709 -26.659 -15.805  0.00  0.00    -0.504 OA
ATOM     22  H   UNL     1      34.906 -26.312 -16.141  0.00  0.00    +0.292 HD
ENDBRANCH  16  21
ENDBRANCH   3  15
TORSDOF 3
ENDMDL
MODEL 6
REMARK VINA RESULT:      -7.6      7.058      9.793
REMARK  Name = 44129612
REMARK  3 active torsions:
REMARK  status: ('A' for Active; 'I' for Inactive)
REMARK    1  A    between atoms: N_3  and  C_15
REMARK    2  A    between atoms: C_4  and  C_8
REMARK    3  A    between atoms: C_16  and  O_21
REMARK                            x       y       z     vdW  Elec       q    Type
REMARK                         _______ _______ _______ _____ _____    ______ ____
ROOT
ATOM      1  S   UNL     1      33.764 -11.005 -24.960  0.00  0.00    -0.107 S 
ATOM      2  O   UNL     1      35.272  -7.775 -23.542  0.00  0.00    -0.274 OA
ATOM      3  N   UNL     1      33.209  -8.893 -23.467  0.00  0.00    -0.243 N 
ATOM      4  C   UNL     1      32.584 -10.159 -23.875  0.00  0.00    +0.151 C 
ATOM      5  C   UNL     1      35.144 -10.003 -24.424  0.00  0.00    +0.145 C 
ATOM      6  C   UNL     1      34.577  -8.760 -23.781  0.00  0.00    +0.241 C 
ENDROOT
BRANCH   4   8
ATOM      7 BR   UNL     1      32.930 -14.959 -21.538  0.00  0.00    -0.049 Br
ATOM      8  C   UNL     1      32.265 -11.017 -22.699  0.00  0.00    +0.007 C 
ATOM      9  C   UNL     1      32.674 -12.351 -22.674  0.00  0.00    +0.005 C 
ATOM     10  C   UNL     1      31.555 -10.486 -21.621  0.00  0.00    -0.002 C 
ATOM     11  C   UNL     1      32.375 -13.152 -21.572  0.00  0.00    +0.034 C 
ATOM     12  C   UNL     1      31.255 -11.287 -20.520  0.00  0.00    +0.000 C 
ATOM     13  C   UNL     1      31.665 -12.620 -20.495  0.00  0.00    +0.007 C 
ENDBRANCH   4   8
BRANCH   3  15
ATOM     14 CL   UNL     1      32.514  -6.179 -19.192  0.00  0.00    -0.082 Cl
ATOM     15  C   UNL     1      32.496  -7.889 -22.809  0.00  0.00    +0.089 C 
ATOM     16  C   UNL     1      31.469  -7.205 -23.459  0.00  0.00    +0.147 C 
ATOM     17  C   UNL     1      32.820  -7.571 -21.490  0.00  0.00    +0.029 C 
ATOM     18  C   UNL     1      30.764  -6.204 -22.789  0.00  0.00    +0.039 C 
ATOM     19  C   UNL     1      32.116  -6.571 -20.821  0.00  0.00    +0.059 C 
ATOM     20  C   UNL     1      31.088  -5.887 -21.470  0.00  0.00    +0.015 C 
BRANCH  16  21
ATOM     21  O   UNL     1      31.137  -7.499 -24.748  0.00  0.00    -0.504 OA
ATOM     22  H   UNL     1      30.848  -6.819 -25.324  0.00  0.00    +0.292 HD
ENDBRANCH  16  21
ENDBRANCH   3  15
TORSDOF 3
ENDMDL
MODEL 7
REMARK VINA RESULT:      -7.6      4.611      6.987
REMARK  Name = 44129612
REMARK  3 active torsions:
REMARK  status: ('A' for Active; 'I' for Inactive)
REMARK    1  A    between atoms: N_3  and  C_15
REMARK    2  A    between atoms: C_4  and  C_8
REMARK    3  A    between atoms: C_16  and  O_21
REMARK                            x       y       z     vdW  Elec       q    Type
REMARK                         _______ _______ _______ _____ _____    ______ ____
ROOT
ATOM      1  S   UNL     1      34.142 -14.553 -20.625  0.00  0.00    -0.107 S 
ATOM      2  O   UNL     1      31.418 -12.670 -22.562  0.00  0.00    -0.274 OA
ATOM      3  N   UNL     1      33.528 -13.594 -23.013  0.00  0.00    -0.243 N 
ATOM      4  C   UNL     1      34.572 -14.412 -22.380  0.00  0.00    +0.151 C 
ATOM      5  C   UNL     1      32.448 -14.044 -20.887  0.00  0.00    +0.145 C 
ATOM      6  C   UNL     1      32.388 -13.344 -22.222  0.00  0.00    +0.241 C 
ENDROOT
BRANCH   4   8
ATOM      7 BR   UNL     1      34.376 -19.716 -21.714  0.00  0.00    -0.049 Br
ATOM      8  C   UNL     1      34.656 -15.766 -22.997  0.00  0.00    +0.007 C 
ATOM      9  C   UNL     1      34.504 -16.906 -22.206  0.00  0.00    +0.005 C 
ATOM     10  C   UNL     1      34.886 -15.894 -24.367  0.00  0.00    -0.002 C 
ATOM     11  C   UNL     1      34.583 -18.172 -22.785  0.00  0.00    +0.034 C 
ATOM     12  C   UNL     1      34.965 -17.162 -24.946  0.00  0.00    +0.000 C 
ATOM     13  C   UNL     1      34.813 -18.300 -24.155  0.00  0.00    +0.007 C 
ENDBRANCH   4   8
BRANCH   3  15
ATOM     14 CL   UNL     1      35.508 -10.034 -26.100  0.00  0.00    -0.082 Cl
ATOM     15  C   UNL     1      33.657 -13.097 -24.311  0.00  0.00    +0.089 C 
ATOM     16  C   UNL     1      33.030 -13.735 -25.382  0.00  0.00    +0.147 C 
ATOM     17  C   UNL     1      34.424 -11.953 -24.534  0.00  0.00    +0.029 C 
ATOM     18  C   UNL     1      33.167 -13.227 -26.674  0.00  0.00    +0.039 C 
ATOM     19  C   UNL     1      34.562 -11.447 -25.826  0.00  0.00    +0.059 C 
ATOM     20  C   UNL     1      33.934 -12.083 -26.895  0.00  0.00    +0.015 C 
BRANCH  16  21
ATOM     21  O   UNL     1      32.277 -14.854 -25.186  0.00  0.00    -0.504 OA
ATOM     22  H   UNL     1      31.973 -15.071 -24.327  0.00  0.00    +0.292 HD
ENDBRANCH  16  21
ENDBRANCH   3  15
TORSDOF 3
ENDMDL
MODEL 8
REMARK VINA RESULT:      -7.5      3.313      4.457
REMARK  Name = 44129612
REMARK  3 active torsions:
REMARK  status: ('A' for Active; 'I' for Inactive)
REMARK    1  A    between atoms: N_3  and  C_15
REMARK    2  A    between atoms: C_4  and  C_8
REMARK    3  A    between atoms: C_16  and  O_21
REMARK                            x       y       z     vdW  Elec       q    Type
REMARK                         _______ _______ _______ _____ _____    ______ ____
ROOT
ATOM      1  S   UNL     1      33.985 -12.018 -26.268  0.00  0.00    -0.107 S 
ATOM      2  O   UNL     1      32.704 -15.615 -25.894  0.00  0.00    -0.274 OA
ATOM      3  N   UNL     1      33.696 -13.987 -24.525  0.00  0.00    -0.243 N 
ATOM      4  C   UNL     1      34.111 -12.577 -24.549  0.00  0.00    +0.151 C 
ATOM      5  C   UNL     1      32.942 -13.387 -26.751  0.00  0.00    +0.145 C 
ATOM      6  C   UNL     1      33.099 -14.466 -25.709  0.00  0.00    +0.241 C 
ENDROOT
BRANCH   4   8
ATOM      7 BR   UNL     1      32.965  -7.718 -22.627  0.00  0.00    -0.049 Br
ATOM      8  C   UNL     1      33.245 -11.737 -23.672  0.00  0.00    +0.007 C 
ATOM      9  C   UNL     1      33.471 -10.364 -23.576  0.00  0.00    +0.005 C 
ATOM     10  C   UNL     1      32.208 -12.326 -22.948  0.00  0.00    -0.002 C 
ATOM     11  C   UNL     1      32.660  -9.579 -22.756  0.00  0.00    +0.034 C 
ATOM     12  C   UNL     1      31.397 -11.541 -22.127  0.00  0.00    +0.000 C 
ATOM     13  C   UNL     1      31.623 -10.168 -22.032  0.00  0.00    +0.007 C 
ENDBRANCH   4   8
BRANCH   3  15
ATOM     14 CL   UNL     1      32.223 -15.210 -19.787  0.00  0.00    -0.082 Cl
ATOM     15  C   UNL     1      33.882 -14.798 -23.404  0.00  0.00    +0.089 C 
ATOM     16  C   UNL     1      34.875 -15.778 -23.391  0.00  0.00    +0.147 C 
ATOM     17  C   UNL     1      33.061 -14.624 -22.289  0.00  0.00    +0.029 C 
ATOM     18  C   UNL     1      35.049 -16.581 -22.264  0.00  0.00    +0.039 C 
ATOM     19  C   UNL     1      33.234 -15.427 -21.163  0.00  0.00    +0.059 C 
ATOM     20  C   UNL     1      34.228 -16.405 -21.150  0.00  0.00    +0.015 C 
BRANCH  16  21
ATOM     21  O   UNL     1      35.687 -15.966 -24.470  0.00  0.00    -0.504 OA
ATOM     22  H   UNL     1      36.002 -15.228 -24.953  0.00  0.00    +0.292 HD
ENDBRANCH  16  21
ENDBRANCH   3  15
TORSDOF 3
ENDMDL
MODEL 9
REMARK VINA RESULT:      -7.5      7.593     10.094
REMARK  Name = 44129612
REMARK  3 active torsions:
REMARK  status: ('A' for Active; 'I' for Inactive)
REMARK    1  A    between atoms: N_3  and  C_15
REMARK    2  A    between atoms: C_4  and  C_8
REMARK    3  A    between atoms: C_16  and  O_21
REMARK                            x       y       z     vdW  Elec       q    Type
REMARK                         _______ _______ _______ _____ _____    ______ ____
ROOT
ATOM      1  S   UNL     1      33.852 -10.944 -24.928  0.00  0.00    -0.107 S 
ATOM      2  O   UNL     1      35.488  -7.770 -23.526  0.00  0.00    -0.274 OA
ATOM      3  N   UNL     1      33.336  -8.703 -23.620  0.00  0.00    -0.243 N 
ATOM      4  C   UNL     1      32.645  -9.935 -24.027  0.00  0.00    +0.151 C 
ATOM      5  C   UNL     1      35.252 -10.030 -24.297  0.00  0.00    +0.145 C 
ATOM      6  C   UNL     1      34.736  -8.706 -23.788  0.00  0.00    +0.241 C 
ENDROOT
BRANCH   4   8
ATOM      7 BR   UNL     1      32.919 -14.313 -20.966  0.00  0.00    -0.049 Br
ATOM      8  C   UNL     1      32.126 -10.686 -22.849  0.00  0.00    +0.007 C 
ATOM      9  C   UNL     1      32.669 -11.929 -22.518  0.00  0.00    +0.005 C 
ATOM     10  C   UNL     1      31.097 -10.147 -22.077  0.00  0.00    -0.002 C 
ATOM     11  C   UNL     1      32.183 -12.630 -21.415  0.00  0.00    +0.034 C 
ATOM     12  C   UNL     1      30.611 -10.850 -20.974  0.00  0.00    +0.000 C 
ATOM     13  C   UNL     1      31.154 -12.091 -20.643  0.00  0.00    +0.007 C 
ENDBRANCH   4   8
BRANCH   3  15
ATOM     14 CL   UNL     1      30.512  -4.545 -24.542  0.00  0.00    -0.082 Cl
ATOM     15  C   UNL     1      32.651  -7.603 -23.101  0.00  0.00    +0.089 C 
ATOM     16  C   UNL     1      32.611  -7.375 -21.726  0.00  0.00    +0.147 C 
ATOM     17  C   UNL     1      32.001  -6.728 -23.972  0.00  0.00    +0.029 C 
ATOM     18  C   UNL     1      31.923  -6.271 -21.221  0.00  0.00    +0.039 C 
ATOM     19  C   UNL     1      31.313  -5.625 -23.468  0.00  0.00    +0.059 C 
ATOM     20  C   UNL     1      31.273  -5.397 -22.093  0.00  0.00    +0.015 C 
BRANCH  16  21
ATOM     21  O   UNL     1      33.238  -8.218 -20.857  0.00  0.00    -0.504 OA
ATOM     22  H   UNL     1      34.149  -8.104 -20.669  0.00  0.00    +0.292 HD
ENDBRANCH  16  21
ENDBRANCH   3  15
TORSDOF 3
ENDMDL
