MODEL 1
REMARK VINA RESULT:      -9.1      0.000      0.000
REMARK  Name = 62296
REMARK  6 active torsions:
REMARK  status: ('A' for Active; 'I' for Inactive)
REMARK    1  A    between atoms: N_1  and  C_20
REMARK    2  A    between atoms: C_2  and  N_10
REMARK    3  A    between atoms: N_10  and  C_12
REMARK    4  A    between atoms: C_11  and  C_18
REMARK    5  A    between atoms: C_20  and  C_21
REMARK    6  A    between atoms: C_21  and  C_23
REMARK                            x       y       z     vdW  Elec       q    Type
REMARK                         _______ _______ _______ _____ _____    ______ ____
ROOT
ATOM      1  N   UNL     1      34.879 -20.808 -19.374  0.00  0.00    +0.387 N 
ATOM      2  C   UNL     1      34.730 -19.228 -21.843  0.00  0.00    +0.076 C 
ATOM      3  C   UNL     1      35.971 -19.192 -20.926  0.00  0.00    -0.002 C 
ATOM      4  C   UNL     1      33.491 -19.651 -21.046  0.00  0.00    -0.003 C 
ATOM      5  C   UNL     1      36.100 -20.508 -20.133  0.00  0.00    -0.076 C 
ATOM      6  C   UNL     1      33.726 -20.944 -20.270  0.00  0.00    -0.076 C 
ATOM      7  C   UNL     1      37.262 -18.947 -21.714  0.00  0.00    -0.000 C 
ATOM      8  H   UNL     1      34.700 -20.030 -18.739  0.00  0.00    -0.080 HD
ENDROOT
BRANCH   2  10
ATOM      9  O   UNL     1      35.091 -18.560 -24.690  0.00  0.00    -0.275 OA
ATOM     10  N   UNL     1      34.484 -17.954 -22.480  0.00  0.00    -0.260 N 
ATOM     11  C   UNL     1      34.691 -17.726 -23.874  0.00  0.00    +0.229 C 
BRANCH  10  12
ATOM     12  C   UNL     1      34.003 -16.846 -21.657  0.00  0.00    +0.054 C 
ATOM     13  C   UNL     1      32.672 -16.805 -21.370  0.00  0.00    +0.015 C 
ATOM     14  C   UNL     1      34.919 -15.929 -21.235  0.00  0.00    +0.015 C 
ATOM     15  C   UNL     1      32.213 -15.746 -20.586  0.00  0.00    +0.001 C 
ATOM     16  C   UNL     1      34.460 -14.870 -20.451  0.00  0.00    +0.001 C 
ATOM     17  C   UNL     1      33.107 -14.780 -20.126  0.00  0.00    +0.000 C 
ENDBRANCH  10  12
BRANCH  11  18
ATOM     18  C   UNL     1      34.419 -16.298 -24.340  0.00  0.00    +0.086 C 
ATOM     19  C   UNL     1      33.763 -16.241 -25.711  0.00  0.00    +0.010 C 
ENDBRANCH  11  18
ENDBRANCH   2  10
BRANCH   1  20
ATOM     20  C   UNL     1      35.056 -22.026 -18.581  0.00  0.00    -0.072 C 
BRANCH  20  21
ATOM     21  C   UNL     1      33.792 -22.887 -18.608  0.00  0.00    +0.010 C 
BRANCH  21  23
ATOM     22  S   UNL     1      34.344 -23.479 -15.970  0.00  0.00    -0.091 S 
ATOM     23  C   UNL     1      33.252 -23.115 -17.218  0.00  0.00    +0.005 C 
ATOM     24  C   UNL     1      31.954 -23.066 -16.816  0.00  0.00    +0.003 C 
ATOM     25  C   UNL     1      31.838 -23.339 -15.423  0.00  0.00    +0.007 C 
ATOM     26  C   UNL     1      33.063 -23.581 -14.839  0.00  0.00    +0.035 C 
ENDBRANCH  21  23
ENDBRANCH  20  21
ENDBRANCH   1  20
TORSDOF 6
ENDMDL
MODEL 2
REMARK VINA RESULT:      -9.0      1.459      1.920
REMARK  Name = 62296
REMARK  6 active torsions:
REMARK  status: ('A' for Active; 'I' for Inactive)
REMARK    1  A    between atoms: N_1  and  C_20
REMARK    2  A    between atoms: C_2  and  N_10
REMARK    3  A    between atoms: N_10  and  C_12
REMARK    4  A    between atoms: C_11  and  C_18
REMARK    5  A    between atoms: C_20  and  C_21
REMARK    6  A    between atoms: C_21  and  C_23
REMARK                            x       y       z     vdW  Elec       q    Type
REMARK                         _______ _______ _______ _____ _____    ______ ____
ROOT
ATOM      1  N   UNL     1      35.134 -20.669 -19.482  0.00  0.00    +0.387 N 
ATOM      2  C   UNL     1      34.807 -19.087 -21.934  0.00  0.00    +0.076 C 
ATOM      3  C   UNL     1      36.098 -19.027 -21.091  0.00  0.00    -0.002 C 
ATOM      4  C   UNL     1      33.626 -19.538 -21.067  0.00  0.00    -0.003 C 
ATOM      5  C   UNL     1      36.302 -20.342 -20.311  0.00  0.00    -0.076 C 
ATOM      6  C   UNL     1      33.933 -20.827 -20.310  0.00  0.00    -0.076 C 
ATOM      7  C   UNL     1      37.336 -18.753 -21.952  0.00  0.00    -0.000 C 
ATOM      8  H   UNL     1      34.976 -19.897 -18.836  0.00  0.00    -0.080 HD
ENDROOT
BRANCH   2  10
ATOM      9  O   UNL     1      35.055 -18.384 -24.784  0.00  0.00    -0.275 OA
ATOM     10  N   UNL     1      34.498 -17.817 -22.550  0.00  0.00    -0.260 N 
ATOM     11  C   UNL     1      34.652 -17.571 -23.948  0.00  0.00    +0.229 C 
BRANCH  10  12
ATOM     12  C   UNL     1      34.006 -16.733 -21.703  0.00  0.00    +0.054 C 
ATOM     13  C   UNL     1      32.677 -16.721 -21.403  0.00  0.00    +0.015 C 
ATOM     14  C   UNL     1      34.910 -15.808 -21.273  0.00  0.00    +0.015 C 
ATOM     15  C   UNL     1      32.206 -15.685 -20.595  0.00  0.00    +0.001 C 
ATOM     16  C   UNL     1      34.439 -14.772 -20.465  0.00  0.00    +0.001 C 
ATOM     17  C   UNL     1      33.088 -14.712 -20.126  0.00  0.00    +0.000 C 
ENDBRANCH  10  12
BRANCH  11  18
ATOM     18  C   UNL     1      34.317 -16.150 -24.393  0.00  0.00    +0.086 C 
ATOM     19  C   UNL     1      33.616 -16.104 -25.741  0.00  0.00    +0.010 C 
ENDBRANCH  11  18
ENDBRANCH   2  10
BRANCH   1  20
ATOM     20  C   UNL     1      35.382 -21.884 -18.706  0.00  0.00    -0.072 C 
BRANCH  20  21
ATOM     21  C   UNL     1      36.682 -21.769 -17.907  0.00  0.00    +0.010 C 
BRANCH  21  23
ATOM     22  S   UNL     1      35.045 -22.967 -16.035  0.00  0.00    -0.091 S 
ATOM     23  C   UNL     1      36.578 -22.484 -16.582  0.00  0.00    +0.005 C 
ATOM     24  C   UNL     1      37.591 -22.805 -15.733  0.00  0.00    +0.003 C 
ATOM     25  C   UNL     1      37.098 -23.478 -14.579  0.00  0.00    +0.007 C 
ATOM     26  C   UNL     1      35.729 -23.632 -14.614  0.00  0.00    +0.035 C 
ENDBRANCH  21  23
ENDBRANCH  20  21
ENDBRANCH   1  20
TORSDOF 6
ENDMDL
MODEL 3
REMARK VINA RESULT:      -8.7      1.579      2.250
REMARK  Name = 62296
REMARK  6 active torsions:
REMARK  status: ('A' for Active; 'I' for Inactive)
REMARK    1  A    between atoms: N_1  and  C_20
REMARK    2  A    between atoms: C_2  and  N_10
REMARK    3  A    between atoms: N_10  and  C_12
REMARK    4  A    between atoms: C_11  and  C_18
REMARK    5  A    between atoms: C_20  and  C_21
REMARK    6  A    between atoms: C_21  and  C_23
REMARK                            x       y       z     vdW  Elec       q    Type
REMARK                         _______ _______ _______ _____ _____    ______ ____
ROOT
ATOM      1  N   UNL     1      36.235 -21.097 -20.099  0.00  0.00    +0.387 N 
ATOM      2  C   UNL     1      34.932 -18.627 -21.003  0.00  0.00    +0.076 C 
ATOM      3  C   UNL     1      34.174 -19.969 -20.932  0.00  0.00    -0.002 C 
ATOM      4  C   UNL     1      36.439 -18.873 -21.136  0.00  0.00    -0.003 C 
ATOM      5  C   UNL     1      34.799 -20.892 -19.866  0.00  0.00    -0.076 C 
ATOM      6  C   UNL     1      36.959 -19.821 -20.059  0.00  0.00    -0.076 C 
ATOM      7  C   UNL     1      32.686 -19.775 -20.622  0.00  0.00    -0.000 C 
ATOM      8  H   UNL     1      36.353 -21.501 -21.027  0.00  0.00    -0.080 HD
ENDROOT
BRANCH   2  10
ATOM      9  O   UNL     1      34.865 -19.342 -23.860  0.00  0.00    -0.275 OA
ATOM     10  N   UNL     1      34.478 -17.801 -22.100  0.00  0.00    -0.260 N 
ATOM     11  C   UNL     1      34.485 -18.239 -23.459  0.00  0.00    +0.229 C 
BRANCH  10  12
ATOM     12  C   UNL     1      33.991 -16.456 -21.803  0.00  0.00    +0.054 C 
ATOM     13  C   UNL     1      32.847 -16.347 -21.071  0.00  0.00    +0.015 C 
ATOM     14  C   UNL     1      34.712 -15.404 -22.282  0.00  0.00    +0.015 C 
ATOM     15  C   UNL     1      32.381 -15.062 -20.790  0.00  0.00    +0.001 C 
ATOM     16  C   UNL     1      34.246 -14.119 -22.001  0.00  0.00    +0.001 C 
ATOM     17  C   UNL     1      33.081 -13.949 -21.254  0.00  0.00    +0.000 C 
ENDBRANCH  10  12
BRANCH  11  18
ATOM     18  C   UNL     1      34.011 -17.200 -24.472  0.00  0.00    +0.086 C 
ATOM     19  C   UNL     1      35.047 -16.908 -25.546  0.00  0.00    +0.010 C 
ENDBRANCH  11  18
ENDBRANCH   2  10
BRANCH   1  20
ATOM     20  C   UNL     1      36.786 -22.027 -19.112  0.00  0.00    -0.072 C 
BRANCH  20  21
ATOM     21  C   UNL     1      36.763 -21.416 -17.709  0.00  0.00    +0.010 C 
BRANCH  21  23
ATOM     22  S   UNL     1      37.259 -22.951 -15.470  0.00  0.00    -0.091 S 
ATOM     23  C   UNL     1      36.223 -22.393 -16.693  0.00  0.00    +0.005 C 
ATOM     24  C   UNL     1      34.965 -22.904 -16.625  0.00  0.00    +0.003 C 
ATOM     25  C   UNL     1      34.835 -23.798 -15.523  0.00  0.00    +0.007 C 
ATOM     26  C   UNL     1      36.008 -23.915 -14.810  0.00  0.00    +0.035 C 
ENDBRANCH  21  23
ENDBRANCH  20  21
ENDBRANCH   1  20
TORSDOF 6
ENDMDL
MODEL 4
REMARK VINA RESULT:      -8.4      3.347      5.082
REMARK  Name = 62296
REMARK  6 active torsions:
REMARK  status: ('A' for Active; 'I' for Inactive)
REMARK    1  A    between atoms: N_1  and  C_20
REMARK    2  A    between atoms: C_2  and  N_10
REMARK    3  A    between atoms: N_10  and  C_12
REMARK    4  A    between atoms: C_11  and  C_18
REMARK    5  A    between atoms: C_20  and  C_21
REMARK    6  A    between atoms: C_21  and  C_23
REMARK                            x       y       z     vdW  Elec       q    Type
REMARK                         _______ _______ _______ _____ _____    ______ ____
ROOT
ATOM      1  N   UNL     1      34.326 -17.132 -21.903  0.00  0.00    +0.387 N 
ATOM      2  C   UNL     1      34.110 -14.466 -23.112  0.00  0.00    +0.076 C 
ATOM      3  C   UNL     1      32.995 -15.048 -22.219  0.00  0.00    -0.002 C 
ATOM      4  C   UNL     1      34.946 -15.595 -23.724  0.00  0.00    -0.003 C 
ATOM      5  C   UNL     1      33.575 -16.070 -21.220  0.00  0.00    -0.076 C 
ATOM      6  C   UNL     1      35.448 -16.573 -22.665  0.00  0.00    -0.076 C 
ATOM      7  C   UNL     1      32.247 -13.956 -21.446  0.00  0.00    -0.000 C 
ATOM      8  H   UNL     1      33.697 -17.597 -22.557  0.00  0.00    -0.080 HD
ENDROOT
BRANCH   2  10
ATOM      9  O   UNL     1      32.969 -15.344 -25.682  0.00  0.00    -0.275 OA
ATOM     10  N   UNL     1      33.583 -13.628 -24.166  0.00  0.00    -0.260 N 
ATOM     11  C   UNL     1      33.049 -14.150 -25.382  0.00  0.00    +0.229 C 
BRANCH  10  12
ATOM     12  C   UNL     1      33.600 -12.179 -23.977  0.00  0.00    +0.054 C 
ATOM     13  C   UNL     1      34.600 -11.476 -24.579  0.00  0.00    +0.015 C 
ATOM     14  C   UNL     1      32.616 -11.632 -23.209  0.00  0.00    +0.015 C 
ATOM     15  C   UNL     1      34.616 -10.092 -24.397  0.00  0.00    +0.001 C 
ATOM     16  C   UNL     1      32.633 -10.248 -23.027  0.00  0.00    +0.001 C 
ATOM     17  C   UNL     1      33.633  -9.479 -23.621  0.00  0.00    +0.000 C 
ENDBRANCH  10  12
BRANCH  11  18
ATOM     18  C   UNL     1      32.588 -13.097 -26.387  0.00  0.00    +0.086 C 
ATOM     19  C   UNL     1      33.472 -13.034 -27.622  0.00  0.00    +0.010 C 
ENDBRANCH  11  18
ENDBRANCH   2  10
BRANCH   1  20
ATOM     20  C   UNL     1      34.808 -18.121 -20.937  0.00  0.00    -0.072 C 
BRANCH  20  21
ATOM     21  C   UNL     1      34.731 -19.535 -21.514  0.00  0.00    +0.010 C 
BRANCH  21  23
ATOM     22  S   UNL     1      35.803 -21.306 -19.689  0.00  0.00    -0.091 S 
ATOM     23  C   UNL     1      34.474 -20.557 -20.434  0.00  0.00    +0.005 C 
ATOM     24  C   UNL     1      33.270 -20.974 -19.959  0.00  0.00    +0.003 C 
ATOM     25  C   UNL     1      33.434 -21.953 -18.937  0.00  0.00    +0.007 C 
ATOM     26  C   UNL     1      34.761 -22.227 -18.691  0.00  0.00    +0.035 C 
ENDBRANCH  21  23
ENDBRANCH  20  21
ENDBRANCH   1  20
TORSDOF 6
ENDMDL
MODEL 5
REMARK VINA RESULT:      -8.3      3.346      5.443
REMARK  Name = 62296
REMARK  6 active torsions:
REMARK  status: ('A' for Active; 'I' for Inactive)
REMARK    1  A    between atoms: N_1  and  C_20
REMARK    2  A    between atoms: C_2  and  N_10
REMARK    3  A    between atoms: N_10  and  C_12
REMARK    4  A    between atoms: C_11  and  C_18
REMARK    5  A    between atoms: C_20  and  C_21
REMARK    6  A    between atoms: C_21  and  C_23
REMARK                            x       y       z     vdW  Elec       q    Type
REMARK                         _______ _______ _______ _____ _____    ______ ____
ROOT
ATOM      1  N   UNL     1      34.482 -17.619 -22.823  0.00  0.00    +0.387 N 
ATOM      2  C   UNL     1      34.303 -14.706 -23.135  0.00  0.00    +0.076 C 
ATOM      3  C   UNL     1      34.280 -15.380 -21.747  0.00  0.00    -0.002 C 
ATOM      4  C   UNL     1      33.838 -15.691 -24.213  0.00  0.00    -0.003 C 
ATOM      5  C   UNL     1      35.023 -16.731 -21.786  0.00  0.00    -0.076 C 
ATOM      6  C   UNL     1      34.607 -17.008 -24.151  0.00  0.00    -0.076 C 
ATOM      7  C   UNL     1      34.904 -14.491 -20.665  0.00  0.00    -0.000 C 
ATOM      8  H   UNL     1      33.492 -17.766 -22.632  0.00  0.00    -0.080 HD
ENDROOT
BRANCH   2  10
ATOM      9  O   UNL     1      31.824 -14.201 -21.626  0.00  0.00    -0.275 OA
ATOM     10  N   UNL     1      33.480 -13.518 -23.178  0.00  0.00    -0.260 N 
ATOM     11  C   UNL     1      32.289 -13.366 -22.405  0.00  0.00    +0.229 C 
BRANCH  10  12
ATOM     12  C   UNL     1      33.886 -12.421 -24.055  0.00  0.00    +0.054 C 
ATOM     13  C   UNL     1      34.275 -11.255 -23.468  0.00  0.00    +0.015 C 
ATOM     14  C   UNL     1      33.845 -12.641 -25.400  0.00  0.00    +0.015 C 
ATOM     15  C   UNL     1      34.660 -10.208 -24.306  0.00  0.00    +0.001 C 
ATOM     16  C   UNL     1      34.231 -11.594 -26.237  0.00  0.00    +0.001 C 
ATOM     17  C   UNL     1      34.639 -10.378 -25.690  0.00  0.00    +0.000 C 
ENDBRANCH  10  12
BRANCH  11  18
ATOM     18  C   UNL     1      31.538 -12.056 -22.631  0.00  0.00    +0.086 C 
ATOM     19  C   UNL     1      31.069 -11.416 -21.334  0.00  0.00    +0.010 C 
ENDBRANCH  11  18
ENDBRANCH   2  10
BRANCH   1  20
ATOM     20  C   UNL     1      35.162 -18.915 -22.792  0.00  0.00    -0.072 C 
BRANCH  20  21
ATOM     21  C   UNL     1      35.837 -19.148 -21.439  0.00  0.00    +0.010 C 
BRANCH  21  23
ATOM     22  S   UNL     1      35.967 -21.329 -19.753  0.00  0.00    -0.091 S 
ATOM     23  C   UNL     1      35.084 -20.163 -20.616  0.00  0.00    +0.005 C 
ATOM     24  C   UNL     1      33.737 -20.272 -20.466  0.00  0.00    +0.003 C 
ATOM     25  C   UNL     1      33.403 -21.359 -19.609  0.00  0.00    +0.007 C 
ATOM     26  C   UNL     1      34.522 -22.020 -19.150  0.00  0.00    +0.035 C 
ENDBRANCH  21  23
ENDBRANCH  20  21
ENDBRANCH   1  20
TORSDOF 6
ENDMDL
MODEL 6
REMARK VINA RESULT:      -8.2      6.448      8.964
REMARK  Name = 62296
REMARK  6 active torsions:
REMARK  status: ('A' for Active; 'I' for Inactive)
REMARK    1  A    between atoms: N_1  and  C_20
REMARK    2  A    between atoms: C_2  and  N_10
REMARK    3  A    between atoms: N_10  and  C_12
REMARK    4  A    between atoms: C_11  and  C_18
REMARK    5  A    between atoms: C_20  and  C_21
REMARK    6  A    between atoms: C_21  and  C_23
REMARK                            x       y       z     vdW  Elec       q    Type
REMARK                         _______ _______ _______ _____ _____    ______ ____
ROOT
ATOM      1  N   UNL     1      32.972 -13.274 -22.309  0.00  0.00    +0.387 N 
ATOM      2  C   UNL     1      32.692 -10.535 -23.328  0.00  0.00    +0.076 C 
ATOM      3  C   UNL     1      33.668 -11.546 -23.965  0.00  0.00    -0.002 C 
ATOM      4  C   UNL     1      32.405 -10.918 -21.872  0.00  0.00    -0.003 C 
ATOM      5  C   UNL     1      33.183 -12.991 -23.735  0.00  0.00    -0.076 C 
ATOM      6  C   UNL     1      31.963 -12.373 -21.741  0.00  0.00    -0.076 C 
ATOM      7  C   UNL     1      33.845 -11.306 -25.469  0.00  0.00    -0.000 C 
ATOM      8  H   UNL     1      33.853 -13.115 -21.820  0.00  0.00    -0.080 HD
ENDROOT
BRANCH   2  10
ATOM      9  O   UNL     1      35.421  -9.678 -24.031  0.00  0.00    -0.275 OA
ATOM     10  N   UNL     1      33.195  -9.181 -23.382  0.00  0.00    -0.260 N 
ATOM     11  C   UNL     1      34.542  -8.865 -23.735  0.00  0.00    +0.229 C 
BRANCH  10  12
ATOM     12  C   UNL     1      32.284  -8.086 -23.060  0.00  0.00    +0.054 C 
ATOM     13  C   UNL     1      31.328  -7.770 -23.978  0.00  0.00    +0.015 C 
ATOM     14  C   UNL     1      32.455  -7.454 -21.864  0.00  0.00    +0.015 C 
ATOM     15  C   UNL     1      30.459  -6.722 -23.670  0.00  0.00    +0.001 C 
ATOM     16  C   UNL     1      31.585  -6.407 -21.556  0.00  0.00    +0.001 C 
ATOM     17  C   UNL     1      30.587  -6.042 -22.460  0.00  0.00    +0.000 C 
ENDBRANCH  10  12
BRANCH  11  18
ATOM     18  C   UNL     1      34.888  -7.379 -23.686  0.00  0.00    +0.086 C 
ATOM     19  C   UNL     1      34.644  -6.673 -25.011  0.00  0.00    +0.010 C 
ENDBRANCH  11  18
ENDBRANCH   2  10
BRANCH   1  20
ATOM     20  C   UNL     1      32.576 -14.670 -22.117  0.00  0.00    -0.072 C 
BRANCH  20  21
ATOM     21  C   UNL     1      33.515 -15.377 -21.138  0.00  0.00    +0.010 C 
BRANCH  21  23
ATOM     22  S   UNL     1      34.924 -16.378 -23.290  0.00  0.00    -0.091 S 
ATOM     23  C   UNL     1      34.178 -16.573 -21.777  0.00  0.00    +0.005 C 
ATOM     24  C   UNL     1      34.259 -17.836 -21.282  0.00  0.00    +0.003 C 
ATOM     25  C   UNL     1      34.963 -18.692 -22.177  0.00  0.00    +0.007 C 
ATOM     26  C   UNL     1      35.381 -18.027 -23.309  0.00  0.00    +0.035 C 
ENDBRANCH  21  23
ENDBRANCH  20  21
ENDBRANCH   1  20
TORSDOF 6
ENDMDL
MODEL 7
REMARK VINA RESULT:      -8.1      6.545      9.890
REMARK  Name = 62296
REMARK  6 active torsions:
REMARK  status: ('A' for Active; 'I' for Inactive)
REMARK    1  A    between atoms: N_1  and  C_20
REMARK    2  A    between atoms: C_2  and  N_10
REMARK    3  A    between atoms: N_10  and  C_12
REMARK    4  A    between atoms: C_11  and  C_18
REMARK    5  A    between atoms: C_20  and  C_21
REMARK    6  A    between atoms: C_21  and  C_23
REMARK                            x       y       z     vdW  Elec       q    Type
REMARK                         _______ _______ _______ _____ _____    ______ ____
ROOT
ATOM      1  N   UNL     1      32.781 -12.668 -24.030  0.00  0.00    +0.387 N 
ATOM      2  C   UNL     1      32.871 -10.414 -22.151  0.00  0.00    +0.076 C 
ATOM      3  C   UNL     1      31.689 -11.405 -22.179  0.00  0.00    -0.002 C 
ATOM      4  C   UNL     1      33.585 -10.400 -23.507  0.00  0.00    -0.003 C 
ATOM      5  C   UNL     1      32.143 -12.779 -22.711  0.00  0.00    -0.076 C 
ATOM      6  C   UNL     1      33.966 -11.805 -23.966  0.00  0.00    -0.076 C 
ATOM      7  C   UNL     1      31.055 -11.584 -20.795  0.00  0.00    -0.000 C 
ATOM      8  H   UNL     1      32.113 -12.244 -24.672  0.00  0.00    -0.080 HD
ENDROOT
BRANCH   2  10
ATOM      9  O   UNL     1      32.379  -9.329 -19.456  0.00  0.00    -0.275 OA
ATOM     10  N   UNL     1      32.450  -9.072 -21.813  0.00  0.00    -0.260 N 
ATOM     11  C   UNL     1      32.237  -8.639 -20.469  0.00  0.00    +0.229 C 
BRANCH  10  12
ATOM     12  C   UNL     1      32.233  -8.117 -22.896  0.00  0.00    +0.054 C 
ATOM     13  C   UNL     1      33.292  -7.351 -23.284  0.00  0.00    +0.015 C 
ATOM     14  C   UNL     1      30.986  -8.054 -23.442  0.00  0.00    +0.015 C 
ATOM     15  C   UNL     1      33.084  -6.437 -24.318  0.00  0.00    +0.001 C 
ATOM     16  C   UNL     1      30.778  -7.140 -24.475  0.00  0.00    +0.001 C 
ATOM     17  C   UNL     1      31.827  -6.332 -24.913  0.00  0.00    +0.000 C 
ENDBRANCH  10  12
BRANCH  11  18
ATOM     18  C   UNL     1      31.748  -7.200 -20.327  0.00  0.00    +0.086 C 
ATOM     19  C   UNL     1      32.837  -6.253 -19.846  0.00  0.00    +0.010 C 
ENDBRANCH  11  18
ENDBRANCH   2  10
BRANCH   1  20
ATOM     20  C   UNL     1      33.141 -13.993 -24.537  0.00  0.00    -0.072 C 
BRANCH  20  21
ATOM     21  C   UNL     1      34.225 -14.636 -23.671  0.00  0.00    +0.010 C 
BRANCH  21  23
ATOM     22  S   UNL     1      35.025 -17.140 -22.828  0.00  0.00    -0.091 S 
ATOM     23  C   UNL     1      34.413 -16.093 -24.016  0.00  0.00    +0.005 C 
ATOM     24  C   UNL     1      34.146 -16.703 -25.202  0.00  0.00    +0.003 C 
ATOM     25  C   UNL     1      34.454 -18.092 -25.144  0.00  0.00    +0.007 C 
ATOM     26  C   UNL     1      34.941 -18.464 -23.910  0.00  0.00    +0.035 C 
ENDBRANCH  21  23
ENDBRANCH  20  21
ENDBRANCH   1  20
TORSDOF 6
ENDMDL
MODEL 8
REMARK VINA RESULT:      -8.0      7.126     10.151
REMARK  Name = 62296
REMARK  6 active torsions:
REMARK  status: ('A' for Active; 'I' for Inactive)
REMARK    1  A    between atoms: N_1  and  C_20
REMARK    2  A    between atoms: C_2  and  N_10
REMARK    3  A    between atoms: N_10  and  C_12
REMARK    4  A    between atoms: C_11  and  C_18
REMARK    5  A    between atoms: C_20  and  C_21
REMARK    6  A    between atoms: C_21  and  C_23
REMARK                            x       y       z     vdW  Elec       q    Type
REMARK                         _______ _______ _______ _____ _____    ______ ____
ROOT
ATOM      1  N   UNL     1      32.787 -12.677 -22.670  0.00  0.00    +0.387 N 
ATOM      2  C   UNL     1      32.421  -9.814 -23.209  0.00  0.00    +0.076 C 
ATOM      3  C   UNL     1      33.789 -10.508 -23.381  0.00  0.00    -0.002 C 
ATOM      4  C   UNL     1      31.549 -10.596 -22.221  0.00  0.00    -0.003 C 
ATOM      5  C   UNL     1      33.604 -12.007 -23.691  0.00  0.00    -0.076 C 
ATOM      6  C   UNL     1      31.452 -12.074 -22.591  0.00  0.00    -0.076 C 
ATOM      7  C   UNL     1      34.626  -9.862 -24.491  0.00  0.00    -0.000 C 
ATOM      8  H   UNL     1      33.245 -12.557 -21.767  0.00  0.00    -0.080 HD
ENDROOT
BRANCH   2  10
ATOM      9  O   UNL     1      32.649  -8.870 -20.428  0.00  0.00    -0.275 OA
ATOM     10  N   UNL     1      32.556  -8.447 -22.759  0.00  0.00    -0.260 N 
ATOM     11  C   UNL     1      32.660  -8.087 -21.381  0.00  0.00    +0.229 C 
BRANCH  10  12
ATOM     12  C   UNL     1      32.586  -7.384 -23.761  0.00  0.00    +0.054 C 
ATOM     13  C   UNL     1      33.806  -6.945 -24.179  0.00  0.00    +0.015 C 
ATOM     14  C   UNL     1      31.391  -6.903 -24.207  0.00  0.00    +0.015 C 
ATOM     15  C   UNL     1      33.835  -5.928 -25.134  0.00  0.00    +0.001 C 
ATOM     16  C   UNL     1      31.419  -5.887 -25.162  0.00  0.00    +0.001 C 
ATOM     17  C   UNL     1      32.641  -5.400 -25.626  0.00  0.00    +0.000 C 
ENDBRANCH  10  12
BRANCH  11  18
ATOM     18  C   UNL     1      32.746  -6.587 -21.113  0.00  0.00    +0.086 C 
ATOM     19  C   UNL     1      31.387  -5.955 -20.853  0.00  0.00    +0.010 C 
ENDBRANCH  11  18
ENDBRANCH   2  10
BRANCH   1  20
ATOM     20  C   UNL     1      32.684 -14.108 -22.955  0.00  0.00    -0.072 C 
BRANCH  20  21
ATOM     21  C   UNL     1      33.434 -14.468 -24.240  0.00  0.00    +0.010 C 
BRANCH  21  23
ATOM     22  S   UNL     1      34.737 -16.325 -22.669  0.00  0.00    -0.091 S 
ATOM     23  C   UNL     1      34.059 -15.838 -24.147  0.00  0.00    +0.005 C 
ATOM     24  C   UNL     1      34.154 -16.772 -25.130  0.00  0.00    +0.003 C 
ATOM     25  C   UNL     1      34.813 -17.944 -24.661  0.00  0.00    +0.007 C 
ATOM     26  C   UNL     1      35.183 -17.836 -23.338  0.00  0.00    +0.035 C 
ENDBRANCH  21  23
ENDBRANCH  20  21
ENDBRANCH   1  20
TORSDOF 6
ENDMDL
MODEL 9
REMARK VINA RESULT:      -8.0      1.654      3.025
REMARK  Name = 62296
REMARK  6 active torsions:
REMARK  status: ('A' for Active; 'I' for Inactive)
REMARK    1  A    between atoms: N_1  and  C_20
REMARK    2  A    between atoms: C_2  and  N_10
REMARK    3  A    between atoms: N_10  and  C_12
REMARK    4  A    between atoms: C_11  and  C_18
REMARK    5  A    between atoms: C_20  and  C_21
REMARK    6  A    between atoms: C_21  and  C_23
REMARK                            x       y       z     vdW  Elec       q    Type
REMARK                         _______ _______ _______ _____ _____    ______ ____
ROOT
ATOM      1  N   UNL     1      35.208 -20.595 -19.682  0.00  0.00    +0.387 N 
ATOM      2  C   UNL     1      34.832 -18.501 -21.705  0.00  0.00    +0.076 C 
ATOM      3  C   UNL     1      36.209 -18.778 -21.065  0.00  0.00    -0.002 C 
ATOM      4  C   UNL     1      33.709 -18.978 -20.778  0.00  0.00    -0.003 C 
ATOM      5  C   UNL     1      36.304 -20.244 -20.594  0.00  0.00    -0.076 C 
ATOM      6  C   UNL     1      33.907 -20.427 -20.339  0.00  0.00    -0.076 C 
ATOM      7  C   UNL     1      37.362 -18.481 -22.029  0.00  0.00    -0.000 C 
ATOM      8  H   UNL     1      35.245 -19.965 -18.882  0.00  0.00    -0.080 HD
ENDROOT
BRANCH   2  10
ATOM      9  O   UNL     1      34.996 -16.232 -19.832  0.00  0.00    -0.275 OA
ATOM     10  N   UNL     1      34.645 -17.100 -22.010  0.00  0.00    -0.260 N 
ATOM     11  C   UNL     1      34.745 -16.069 -21.028  0.00  0.00    +0.229 C 
BRANCH  10  12
ATOM     12  C   UNL     1      34.338 -16.724 -23.388  0.00  0.00    +0.054 C 
ATOM     13  C   UNL     1      34.707 -17.588 -24.376  0.00  0.00    +0.015 C 
ATOM     14  C   UNL     1      33.707 -15.533 -23.591  0.00  0.00    +0.015 C 
ATOM     15  C   UNL     1      34.415 -17.227 -25.692  0.00  0.00    +0.001 C 
ATOM     16  C   UNL     1      33.415 -15.172 -24.907  0.00  0.00    +0.001 C 
ATOM     17  C   UNL     1      33.769 -16.019 -25.957  0.00  0.00    +0.000 C 
ENDBRANCH  10  12
BRANCH  11  18
ATOM     18  C   UNL     1      34.465 -14.660 -21.545  0.00  0.00    +0.086 C 
ATOM     19  C   UNL     1      33.278 -14.004 -20.857  0.00  0.00    +0.010 C 
ENDBRANCH  11  18
ENDBRANCH   2  10
BRANCH   1  20
ATOM     20  C   UNL     1      35.362 -21.969 -19.201  0.00  0.00    -0.072 C 
BRANCH  20  21
ATOM     21  C   UNL     1      36.249 -22.018 -17.956  0.00  0.00    +0.010 C 
BRANCH  21  23
ATOM     22  S   UNL     1      36.422 -23.024 -15.391  0.00  0.00    -0.091 S 
ATOM     23  C   UNL     1      35.539 -22.682 -16.801  0.00  0.00    +0.005 C 
ATOM     24  C   UNL     1      34.234 -23.056 -16.738  0.00  0.00    +0.003 C 
ATOM     25  C   UNL     1      33.933 -23.654 -15.480  0.00  0.00    +0.007 C 
ATOM     26  C   UNL     1      35.033 -23.699 -14.652  0.00  0.00    +0.035 C 
ENDBRANCH  21  23
ENDBRANCH  20  21
ENDBRANCH   1  20
TORSDOF 6
ENDMDL
