MODEL 1
REMARK VINA RESULT:     -10.1      0.000      0.000
REMARK  Name = 447297
REMARK  4 active torsions:
REMARK  status: ('A' for Active; 'I' for Inactive)
REMARK    1  A    between atoms: N_1  and  C_5
REMARK    2  A    between atoms: N_1  and  S_14
REMARK    3  A    between atoms: N_3  and  C_8
REMARK    4  A    between atoms: S_14  and  C_17
REMARK                            x       y       z     vdW  Elec       q    Type
REMARK                         _______ _______ _______ _____ _____    ______ ____
ROOT
ATOM      1  N   UNL     1      34.242 -22.662 -16.525  0.00  0.00    -0.174 N 
ATOM      2  C   UNL     1      35.722 -22.810 -16.592  0.00  0.00    +0.141 C 
ENDROOT
BRANCH   1   5
ATOM      3  N   UNL     1      34.148 -24.048 -14.415  0.00  0.00    -0.175 N 
ATOM      4  N   UNL     1      33.297 -24.395 -13.433  0.00  0.00    -0.171 NA
ATOM      5  C   UNL     1      33.584 -23.232 -15.318  0.00  0.00    +0.144 C 
ATOM      6  C   UNL     1      32.303 -23.006 -14.951  0.00  0.00    +0.056 C 
ATOM      7  C   UNL     1      32.172 -23.755 -13.766  0.00  0.00    +0.121 C 
BRANCH   3   8
ATOM      8  C   UNL     1      35.454 -24.532 -14.411  0.00  0.00    +0.075 C 
ATOM      9  C   UNL     1      36.435 -23.855 -13.697  0.00  0.00    +0.017 C 
ATOM     10  C   UNL     1      35.760 -25.689 -15.119  0.00  0.00    +0.017 C 
ATOM     11  C   UNL     1      37.743 -24.341 -13.691  0.00  0.00    +0.001 C 
ATOM     12  C   UNL     1      37.067 -26.175 -15.112  0.00  0.00    +0.001 C 
ATOM     13  C   UNL     1      38.058 -25.501 -14.399  0.00  0.00    +0.000 C 
ENDBRANCH   3   8
ENDBRANCH   1   5
BRANCH   1  14
ATOM     14  S   UNL     1      33.355 -23.001 -17.980  0.00  0.00    +0.078 S 
ATOM     15  O   UNL     1      31.946 -22.711 -17.742  0.00  0.00    -0.150 OA
ATOM     16  O   UNL     1      33.737 -24.311 -18.493  0.00  0.00    -0.150 OA
BRANCH  14  17
ATOM     17  C   UNL     1      33.995 -21.817 -19.091  0.00  0.00    +0.125 C 
ATOM     18  C   UNL     1      33.137 -20.908 -19.712  0.00  0.00    +0.020 C 
ATOM     19  C   UNL     1      35.364 -21.778 -19.358  0.00  0.00    +0.020 C 
ATOM     20  C   UNL     1      35.017 -19.922 -20.867  0.00  0.00    -0.022 C 
ATOM     21  C   UNL     1      33.648 -19.961 -20.600  0.00  0.00    -0.003 C 
ATOM     22  C   UNL     1      35.875 -20.831 -20.246  0.00  0.00    -0.003 C 
ATOM     23  C   UNL     1      35.563 -18.910 -21.816  0.00  0.00    +0.031 C 
ENDBRANCH  14  17
ENDBRANCH   1  14
TORSDOF 4
ENDMDL
MODEL 2
REMARK VINA RESULT:      -9.9     12.878     15.595
REMARK  Name = 447297
REMARK  4 active torsions:
REMARK  status: ('A' for Active; 'I' for Inactive)
REMARK    1  A    between atoms: N_1  and  C_5
REMARK    2  A    between atoms: N_1  and  S_14
REMARK    3  A    between atoms: N_3  and  C_8
REMARK    4  A    between atoms: S_14  and  C_17
REMARK                            x       y       z     vdW  Elec       q    Type
REMARK                         _______ _______ _______ _____ _____    ______ ____
ROOT
ATOM      1  N   UNL     1      31.751  -8.978 -22.492  0.00  0.00    -0.174 N 
ATOM      2  C   UNL     1      30.500  -8.806 -23.279  0.00  0.00    +0.141 C 
ENDROOT
BRANCH   1   5
ATOM      3  N   UNL     1      32.107 -11.316 -21.604  0.00  0.00    -0.175 N 
ATOM      4  N   UNL     1      31.966 -12.036 -20.478  0.00  0.00    -0.171 NA
ATOM      5  C   UNL     1      31.725 -10.040 -21.449  0.00  0.00    +0.144 C 
ATOM      6  C   UNL     1      31.306  -9.869 -20.176  0.00  0.00    +0.056 C 
ATOM      7  C   UNL     1      31.476 -11.146 -19.609  0.00  0.00    +0.121 C 
BRANCH   3   8
ATOM      8  C   UNL     1      32.605 -11.916 -22.760  0.00  0.00    +0.075 C 
ATOM      9  C   UNL     1      33.355 -11.163 -23.655  0.00  0.00    +0.017 C 
ATOM     10  C   UNL     1      32.347 -13.260 -23.001  0.00  0.00    +0.017 C 
ATOM     11  C   UNL     1      33.856 -11.765 -24.810  0.00  0.00    +0.001 C 
ATOM     12  C   UNL     1      32.848 -13.861 -24.155  0.00  0.00    +0.001 C 
ATOM     13  C   UNL     1      33.602 -13.113 -25.060  0.00  0.00    +0.000 C 
ENDBRANCH   3   8
ENDBRANCH   1   5
BRANCH   1  14
ATOM     14  S   UNL     1      32.530  -7.527 -21.934  0.00  0.00    +0.078 S 
ATOM     15  O   UNL     1      33.758  -7.898 -21.241  0.00  0.00    -0.150 OA
ATOM     16  O   UNL     1      31.557  -6.677 -21.258  0.00  0.00    -0.150 OA
BRANCH  14  17
ATOM     17  C   UNL     1      32.945  -6.730 -23.430  0.00  0.00    +0.125 C 
ATOM     18  C   UNL     1      32.101  -5.751 -23.956  0.00  0.00    +0.020 C 
ATOM     19  C   UNL     1      34.120  -7.071 -24.101  0.00  0.00    +0.020 C 
ATOM     20  C   UNL     1      33.607  -5.454 -25.822  0.00  0.00    -0.022 C 
ATOM     21  C   UNL     1      32.432  -5.113 -25.152  0.00  0.00    -0.003 C 
ATOM     22  C   UNL     1      34.451  -6.433 -25.296  0.00  0.00    -0.003 C 
ATOM     23  C   UNL     1      33.962  -4.773 -27.100  0.00  0.00    +0.031 C 
ENDBRANCH  14  17
ENDBRANCH   1  14
TORSDOF 4
ENDMDL
MODEL 3
REMARK VINA RESULT:      -9.8     13.876     16.697
REMARK  Name = 447297
REMARK  4 active torsions:
REMARK  status: ('A' for Active; 'I' for Inactive)
REMARK    1  A    between atoms: N_1  and  C_5
REMARK    2  A    between atoms: N_1  and  S_14
REMARK    3  A    between atoms: N_3  and  C_8
REMARK    4  A    between atoms: S_14  and  C_17
REMARK                            x       y       z     vdW  Elec       q    Type
REMARK                         _______ _______ _______ _____ _____    ______ ____
ROOT
ATOM      1  N   UNL     1      31.826  -8.466 -23.648  0.00  0.00    -0.174 N 
ATOM      2  C   UNL     1      30.433  -8.146 -24.064  0.00  0.00    +0.141 C 
ENDROOT
BRANCH   1   5
ATOM      3  N   UNL     1      32.809 -10.752 -23.216  0.00  0.00    -0.175 N 
ATOM      4  N   UNL     1      32.755 -11.759 -22.327  0.00  0.00    -0.171 NA
ATOM      5  C   UNL     1      32.005  -9.731 -22.886  0.00  0.00    +0.144 C 
ATOM      6  C   UNL     1      31.372 -10.040 -21.733  0.00  0.00    +0.056 C 
ATOM      7  C   UNL     1      31.875 -11.318 -21.423  0.00  0.00    +0.121 C 
BRANCH   3   8
ATOM      8  C   UNL     1      33.641 -10.848 -24.330  0.00  0.00    +0.075 C 
ATOM      9  C   UNL     1      34.744 -10.009 -24.436  0.00  0.00    +0.017 C 
ATOM     10  C   UNL     1      33.360 -11.783 -25.319  0.00  0.00    +0.017 C 
ATOM     11  C   UNL     1      35.579 -10.107 -25.550  0.00  0.00    +0.001 C 
ATOM     12  C   UNL     1      34.195 -11.880 -26.432  0.00  0.00    +0.001 C 
ATOM     13  C   UNL     1      35.304 -11.042 -26.547  0.00  0.00    +0.000 C 
ENDBRANCH   3   8
ENDBRANCH   1   5
BRANCH   1  14
ATOM     14  S   UNL     1      32.764  -7.160 -22.988  0.00  0.00    +0.078 S 
ATOM     15  O   UNL     1      33.978  -7.715 -22.399  0.00  0.00    -0.150 OA
ATOM     16  O   UNL     1      31.907  -6.301 -22.180  0.00  0.00    -0.150 OA
BRANCH  14  17
ATOM     17  C   UNL     1      33.193  -6.251 -24.414  0.00  0.00    +0.125 C 
ATOM     18  C   UNL     1      32.316  -5.290 -24.919  0.00  0.00    +0.020 C 
ATOM     19  C   UNL     1      34.412  -6.485 -25.051  0.00  0.00    +0.020 C 
ATOM     20  C   UNL     1      33.876  -4.797 -26.696  0.00  0.00    -0.022 C 
ATOM     21  C   UNL     1      32.657  -4.563 -26.059  0.00  0.00    -0.003 C 
ATOM     22  C   UNL     1      34.754  -5.758 -26.192  0.00  0.00    -0.003 C 
ATOM     23  C   UNL     1      34.242  -4.020 -27.915  0.00  0.00    +0.031 C 
ENDBRANCH  14  17
ENDBRANCH   1  14
TORSDOF 4
ENDMDL
MODEL 4
REMARK VINA RESULT:      -9.7     13.460     16.643
REMARK  Name = 447297
REMARK  4 active torsions:
REMARK  status: ('A' for Active; 'I' for Inactive)
REMARK    1  A    between atoms: N_1  and  C_5
REMARK    2  A    between atoms: N_1  and  S_14
REMARK    3  A    between atoms: N_3  and  C_8
REMARK    4  A    between atoms: S_14  and  C_17
REMARK                            x       y       z     vdW  Elec       q    Type
REMARK                         _______ _______ _______ _____ _____    ______ ____
ROOT
ATOM      1  N   UNL     1      31.690  -8.741 -23.171  0.00  0.00    -0.174 N 
ATOM      2  C   UNL     1      30.328  -8.443 -23.691  0.00  0.00    +0.141 C 
ENDROOT
BRANCH   1   5
ATOM      3  N   UNL     1      32.739 -11.036 -23.046  0.00  0.00    -0.175 N 
ATOM      4  N   UNL     1      32.689 -12.166 -22.319  0.00  0.00    -0.171 NA
ATOM      5  C   UNL     1      31.887 -10.101 -22.599  0.00  0.00    +0.144 C 
ATOM      6  C   UNL     1      31.225 -10.598 -21.532  0.00  0.00    +0.056 C 
ATOM      7  C   UNL     1      31.762 -11.892 -21.396  0.00  0.00    +0.121 C 
BRANCH   3   8
ATOM      8  C   UNL     1      33.613 -10.938 -24.127  0.00  0.00    +0.075 C 
ATOM      9  C   UNL     1      33.509 -11.842 -25.176  0.00  0.00    +0.017 C 
ATOM     10  C   UNL     1      34.576  -9.936 -24.143  0.00  0.00    +0.017 C 
ATOM     11  C   UNL     1      34.382 -11.742 -26.260  0.00  0.00    +0.001 C 
ATOM     12  C   UNL     1      35.448  -9.836 -25.226  0.00  0.00    +0.001 C 
ATOM     13  C   UNL     1      35.352 -10.740 -26.285  0.00  0.00    +0.000 C 
ENDBRANCH   3   8
ENDBRANCH   1   5
BRANCH   1  14
ATOM     14  S   UNL     1      32.449  -7.506 -22.211  0.00  0.00    +0.078 S 
ATOM     15  O   UNL     1      33.877  -7.790 -22.137  0.00  0.00    -0.150 OA
ATOM     16  O   UNL     1      31.694  -7.312 -20.979  0.00  0.00    -0.150 OA
BRANCH  14  17
ATOM     17  C   UNL     1      32.207  -6.078 -23.184  0.00  0.00    +0.125 C 
ATOM     18  C   UNL     1      32.699  -6.031 -24.489  0.00  0.00    +0.020 C 
ATOM     19  C   UNL     1      31.522  -4.982 -22.658  0.00  0.00    +0.020 C 
ATOM     20  C   UNL     1      31.821  -3.794 -24.741  0.00  0.00    -0.022 C 
ATOM     21  C   UNL     1      32.506  -4.890 -25.267  0.00  0.00    -0.003 C 
ATOM     22  C   UNL     1      31.329  -3.841 -23.436  0.00  0.00    -0.003 C 
ATOM     23  C   UNL     1      31.615  -2.574 -25.572  0.00  0.00    +0.031 C 
ENDBRANCH  14  17
ENDBRANCH   1  14
TORSDOF 4
ENDMDL
MODEL 5
REMARK VINA RESULT:      -9.6      6.677      9.684
REMARK  Name = 447297
REMARK  4 active torsions:
REMARK  status: ('A' for Active; 'I' for Inactive)
REMARK    1  A    between atoms: N_1  and  C_5
REMARK    2  A    between atoms: N_1  and  S_14
REMARK    3  A    between atoms: N_3  and  C_8
REMARK    4  A    between atoms: S_14  and  C_17
REMARK                            x       y       z     vdW  Elec       q    Type
REMARK                         _______ _______ _______ _____ _____    ______ ____
ROOT
ATOM      1  N   UNL     1      34.293 -15.493 -21.176  0.00  0.00    -0.174 N 
ATOM      2  C   UNL     1      35.197 -14.362 -20.833  0.00  0.00    +0.141 C 
ENDROOT
BRANCH   1   5
ATOM      3  N   UNL     1      34.757 -17.382 -22.788  0.00  0.00    -0.175 N 
ATOM      4  N   UNL     1      34.874 -17.623 -24.106  0.00  0.00    -0.171 NA
ATOM      5  C   UNL     1      34.485 -16.096 -22.523  0.00  0.00    +0.144 C 
ATOM      6  C   UNL     1      34.412 -15.423 -23.693  0.00  0.00    +0.056 C 
ATOM      7  C   UNL     1      34.662 -16.422 -24.653  0.00  0.00    +0.121 C 
BRANCH   3   8
ATOM      8  C   UNL     1      34.917 -18.419 -21.871  0.00  0.00    +0.075 C 
ATOM      9  C   UNL     1      33.805 -19.133 -21.443  0.00  0.00    +0.017 C 
ATOM     10  C   UNL     1      36.187 -18.728 -21.398  0.00  0.00    +0.017 C 
ATOM     11  C   UNL     1      33.965 -20.174 -20.528  0.00  0.00    +0.001 C 
ATOM     12  C   UNL     1      36.347 -19.768 -20.483  0.00  0.00    +0.001 C 
ATOM     13  C   UNL     1      35.236 -20.491 -20.048  0.00  0.00    +0.000 C 
ENDBRANCH   3   8
ENDBRANCH   1   5
BRANCH   1  14
ATOM     14  S   UNL     1      32.613 -15.302 -20.773  0.00  0.00    +0.078 S 
ATOM     15  O   UNL     1      32.472 -15.393 -19.324  0.00  0.00    -0.150 OA
ATOM     16  O   UNL     1      31.804 -16.165 -21.624  0.00  0.00    -0.150 OA
BRANCH  14  17
ATOM     17  C   UNL     1      32.296 -13.659 -21.269  0.00  0.00    +0.125 C 
ATOM     18  C   UNL     1      32.373 -13.312 -22.619  0.00  0.00    +0.020 C 
ATOM     19  C   UNL     1      31.966 -12.693 -20.318  0.00  0.00    +0.020 C 
ATOM     20  C   UNL     1      31.790 -11.033 -22.065  0.00  0.00    -0.022 C 
ATOM     21  C   UNL     1      32.120 -11.999 -23.016  0.00  0.00    -0.003 C 
ATOM     22  C   UNL     1      31.713 -11.381 -20.716  0.00  0.00    -0.003 C 
ATOM     23  C   UNL     1      31.519  -9.630 -22.490  0.00  0.00    +0.031 C 
ENDBRANCH  14  17
ENDBRANCH   1  14
TORSDOF 4
ENDMDL
MODEL 6
REMARK VINA RESULT:      -9.3     12.440     15.636
REMARK  Name = 447297
REMARK  4 active torsions:
REMARK  status: ('A' for Active; 'I' for Inactive)
REMARK    1  A    between atoms: N_1  and  C_5
REMARK    2  A    between atoms: N_1  and  S_14
REMARK    3  A    between atoms: N_3  and  C_8
REMARK    4  A    between atoms: S_14  and  C_17
REMARK                            x       y       z     vdW  Elec       q    Type
REMARK                         _______ _______ _______ _____ _____    ______ ____
ROOT
ATOM      1  N   UNL     1      32.071  -9.156 -22.595  0.00  0.00    -0.174 N 
ATOM      2  C   UNL     1      30.851  -8.718 -23.325  0.00  0.00    +0.141 C 
ENDROOT
BRANCH   1   5
ATOM      3  N   UNL     1      32.072 -11.398 -21.432  0.00  0.00    -0.175 N 
ATOM      4  N   UNL     1      31.776 -11.957 -20.245  0.00  0.00    -0.171 NA
ATOM      5  C   UNL     1      31.850 -10.075 -21.447  0.00  0.00    +0.144 C 
ATOM      6  C   UNL     1      31.384  -9.706 -20.233  0.00  0.00    +0.056 C 
ATOM      7  C   UNL     1      31.356 -10.917 -19.517  0.00  0.00    +0.121 C 
BRANCH   3   8
ATOM      8  C   UNL     1      32.553 -12.187 -22.475  0.00  0.00    +0.075 C 
ATOM      9  C   UNL     1      32.322 -13.557 -22.462  0.00  0.00    +0.017 C 
ATOM     10  C   UNL     1      33.256 -11.594 -23.518  0.00  0.00    +0.017 C 
ATOM     11  C   UNL     1      32.800 -14.346 -23.508  0.00  0.00    +0.001 C 
ATOM     12  C   UNL     1      33.734 -12.383 -24.563  0.00  0.00    +0.001 C 
ATOM     13  C   UNL     1      33.507 -13.760 -24.557  0.00  0.00    +0.000 C 
ENDBRANCH   3   8
ENDBRANCH   1   5
BRANCH   1  14
ATOM     14  S   UNL     1      33.252  -7.930 -22.240  0.00  0.00    +0.078 S 
ATOM     15  O   UNL     1      34.510  -8.301 -22.878  0.00  0.00    -0.150 OA
ATOM     16  O   UNL     1      33.236  -7.634 -20.813  0.00  0.00    -0.150 OA
BRANCH  14  17
ATOM     17  C   UNL     1      32.595  -6.533 -23.055  0.00  0.00    +0.125 C 
ATOM     18  C   UNL     1      32.913  -6.293 -24.392  0.00  0.00    +0.020 C 
ATOM     19  C   UNL     1      31.752  -5.657 -22.370  0.00  0.00    +0.020 C 
ATOM     20  C   UNL     1      31.547  -4.301 -24.359  0.00  0.00    -0.022 C 
ATOM     21  C   UNL     1      32.389  -5.177 -25.044  0.00  0.00    -0.003 C 
ATOM     22  C   UNL     1      31.228  -4.541 -23.022  0.00  0.00    -0.003 C 
ATOM     23  C   UNL     1      30.986  -3.108 -25.056  0.00  0.00    +0.031 C 
ENDBRANCH  14  17
ENDBRANCH   1  14
TORSDOF 4
ENDMDL
MODEL 7
REMARK VINA RESULT:      -9.3     10.605     14.110
REMARK  Name = 447297
REMARK  4 active torsions:
REMARK  status: ('A' for Active; 'I' for Inactive)
REMARK    1  A    between atoms: N_1  and  C_5
REMARK    2  A    between atoms: N_1  and  S_14
REMARK    3  A    between atoms: N_3  and  C_8
REMARK    4  A    between atoms: S_14  and  C_17
REMARK                            x       y       z     vdW  Elec       q    Type
REMARK                         _______ _______ _______ _____ _____    ______ ____
ROOT
ATOM      1  N   UNL     1      33.625 -10.883 -23.316  0.00  0.00    -0.174 N 
ATOM      2  C   UNL     1      34.412  -9.699 -23.754  0.00  0.00    +0.141 C 
ENDROOT
BRANCH   1   5
ATOM      3  N   UNL     1      33.404 -13.290 -24.049  0.00  0.00    -0.175 N 
ATOM      4  N   UNL     1      33.280 -14.034 -25.163  0.00  0.00    -0.171 NA
ATOM      5  C   UNL     1      33.482 -11.978 -24.314  0.00  0.00    +0.144 C 
ATOM      6  C   UNL     1      33.412 -11.806 -25.652  0.00  0.00    +0.056 C 
ATOM      7  C   UNL     1      33.285 -13.120 -26.139  0.00  0.00    +0.121 C 
BRANCH   3   8
ATOM      8  C   UNL     1      33.438 -13.905 -22.799  0.00  0.00    +0.075 C 
ATOM      9  C   UNL     1      32.256 -14.081 -22.090  0.00  0.00    +0.017 C 
ATOM     10  C   UNL     1      34.652 -14.337 -22.278  0.00  0.00    +0.017 C 
ATOM     11  C   UNL     1      32.289 -14.700 -20.839  0.00  0.00    +0.001 C 
ATOM     12  C   UNL     1      34.684 -14.955 -21.028  0.00  0.00    +0.001 C 
ATOM     13  C   UNL     1      33.503 -15.136 -20.309  0.00  0.00    +0.000 C 
ENDBRANCH   3   8
ENDBRANCH   1   5
BRANCH   1  14
ATOM     14  S   UNL     1      32.139 -10.565 -22.471  0.00  0.00    +0.078 S 
ATOM     15  O   UNL     1      32.338 -10.863 -21.058  0.00  0.00    -0.150 OA
ATOM     16  O   UNL     1      31.028 -11.186 -23.182  0.00  0.00    -0.150 OA
BRANCH  14  17
ATOM     17  C   UNL     1      31.963  -8.840 -22.665  0.00  0.00    +0.125 C 
ATOM     18  C   UNL     1      32.424  -7.976 -21.671  0.00  0.00    +0.020 C 
ATOM     19  C   UNL     1      31.362  -8.323 -23.813  0.00  0.00    +0.020 C 
ATOM     20  C   UNL     1      31.682  -6.081 -22.973  0.00  0.00    -0.022 C 
ATOM     21  C   UNL     1      32.284  -6.597 -21.824  0.00  0.00    -0.003 C 
ATOM     22  C   UNL     1      31.221  -6.944 -23.967  0.00  0.00    -0.003 C 
ATOM     23  C   UNL     1      31.532  -4.606 -23.138  0.00  0.00    +0.031 C 
ENDBRANCH  14  17
ENDBRANCH   1  14
TORSDOF 4
ENDMDL
MODEL 8
REMARK VINA RESULT:      -9.2      2.976      5.120
REMARK  Name = 447297
REMARK  4 active torsions:
REMARK  status: ('A' for Active; 'I' for Inactive)
REMARK    1  A    between atoms: N_1  and  C_5
REMARK    2  A    between atoms: N_1  and  S_14
REMARK    3  A    between atoms: N_3  and  C_8
REMARK    4  A    between atoms: S_14  and  C_17
REMARK                            x       y       z     vdW  Elec       q    Type
REMARK                         _______ _______ _______ _____ _____    ______ ____
ROOT
ATOM      1  N   UNL     1      34.815 -24.357 -15.477  0.00  0.00    -0.174 N 
ATOM      2  C   UNL     1      35.302 -25.752 -15.304  0.00  0.00    +0.141 C 
ENDROOT
BRANCH   1   5
ATOM      3  N   UNL     1      37.026 -23.138 -15.413  0.00  0.00    -0.175 N 
ATOM      4  N   UNL     1      37.710 -22.183 -16.069  0.00  0.00    -0.171 NA
ATOM      5  C   UNL     1      35.821 -23.369 -15.954  0.00  0.00    +0.144 C 
ATOM      6  C   UNL     1      35.663 -22.549 -17.016  0.00  0.00    +0.056 C 
ATOM      7  C   UNL     1      36.872 -21.828 -17.047  0.00  0.00    +0.121 C 
BRANCH   3   8
ATOM      8  C   UNL     1      37.591 -23.764 -14.303  0.00  0.00    +0.075 C 
ATOM      9  C   UNL     1      37.239 -23.344 -13.026  0.00  0.00    +0.017 C 
ATOM     10  C   UNL     1      38.496 -24.802 -14.487  0.00  0.00    +0.017 C 
ATOM     11  C   UNL     1      37.801 -23.973 -11.915  0.00  0.00    +0.001 C 
ATOM     12  C   UNL     1      39.058 -25.430 -13.376  0.00  0.00    +0.001 C 
ATOM     13  C   UNL     1      38.711 -25.015 -12.090  0.00  0.00    +0.000 C 
ENDBRANCH   3   8
ENDBRANCH   1   5
BRANCH   1  14
ATOM     14  S   UNL     1      33.811 -23.715 -14.211  0.00  0.00    +0.078 S 
ATOM     15  O   UNL     1      34.110 -22.296 -14.058  0.00  0.00    -0.150 OA
ATOM     16  O   UNL     1      33.876 -24.588 -13.045  0.00  0.00    -0.150 OA
BRANCH  14  17
ATOM     17  C   UNL     1      32.210 -23.886 -14.883  0.00  0.00    +0.125 C 
ATOM     18  C   UNL     1      31.801 -23.056 -15.929  0.00  0.00    +0.020 C 
ATOM     19  C   UNL     1      31.338 -24.850 -14.376  0.00  0.00    +0.020 C 
ATOM     20  C   UNL     1      29.650 -24.156 -15.960  0.00  0.00    -0.022 C 
ATOM     21  C   UNL     1      30.521 -23.192 -16.467  0.00  0.00    -0.003 C 
ATOM     22  C   UNL     1      30.058 -24.985 -14.914  0.00  0.00    -0.003 C 
ATOM     23  C   UNL     1      28.282 -24.301 -16.535  0.00  0.00    +0.031 C 
ENDBRANCH  14  17
ENDBRANCH   1  14
TORSDOF 4
ENDMDL
MODEL 9
REMARK VINA RESULT:      -9.0      2.496      3.770
REMARK  Name = 447297
REMARK  4 active torsions:
REMARK  status: ('A' for Active; 'I' for Inactive)
REMARK    1  A    between atoms: N_1  and  C_5
REMARK    2  A    between atoms: N_1  and  S_14
REMARK    3  A    between atoms: N_3  and  C_8
REMARK    4  A    between atoms: S_14  and  C_17
REMARK                            x       y       z     vdW  Elec       q    Type
REMARK                         _______ _______ _______ _____ _____    ______ ____
ROOT
ATOM      1  N   UNL     1      35.406 -24.449 -15.519  0.00  0.00    -0.174 N 
ATOM      2  C   UNL     1      34.073 -24.251 -14.889  0.00  0.00    +0.141 C 
ENDROOT
BRANCH   1   5
ATOM      3  N   UNL     1      36.748 -25.775 -13.839  0.00  0.00    -0.175 N 
ATOM      4  N   UNL     1      37.384 -26.952 -13.709  0.00  0.00    -0.171 NA
ATOM      5  C   UNL     1      36.183 -25.627 -15.046  0.00  0.00    +0.144 C 
ATOM      6  C   UNL     1      36.436 -26.736 -15.777  0.00  0.00    +0.056 C 
ATOM      7  C   UNL     1      37.189 -27.535 -14.896  0.00  0.00    +0.121 C 
BRANCH   3   8
ATOM      8  C   UNL     1      36.730 -24.870 -12.780  0.00  0.00    +0.075 C 
ATOM      9  C   UNL     1      35.644 -24.849 -11.914  0.00  0.00    +0.017 C 
ATOM     10  C   UNL     1      37.799 -24.000 -12.601  0.00  0.00    +0.017 C 
ATOM     11  C   UNL     1      35.627 -23.945 -10.851  0.00  0.00    +0.001 C 
ATOM     12  C   UNL     1      37.782 -23.097 -11.539  0.00  0.00    +0.001 C 
ATOM     13  C   UNL     1      36.696 -23.069 -10.664  0.00  0.00    +0.000 C 
ENDBRANCH   3   8
ENDBRANCH   1   5
BRANCH   1  14
ATOM     14  S   UNL     1      36.401 -23.036 -15.705  0.00  0.00    +0.078 S 
ATOM     15  O   UNL     1      37.785 -23.464 -15.871  0.00  0.00    -0.150 OA
ATOM     16  O   UNL     1      36.074 -22.066 -14.668  0.00  0.00    -0.150 OA
BRANCH  14  17
ATOM     17  C   UNL     1      35.830 -22.375 -17.216  0.00  0.00    +0.125 C 
ATOM     18  C   UNL     1      34.516 -22.606 -17.625  0.00  0.00    +0.020 C 
ATOM     19  C   UNL     1      36.685 -21.615 -18.014  0.00  0.00    +0.020 C 
ATOM     20  C   UNL     1      34.914 -21.319 -19.631  0.00  0.00    -0.022 C 
ATOM     21  C   UNL     1      34.058 -22.078 -18.832  0.00  0.00    -0.003 C 
ATOM     22  C   UNL     1      36.228 -21.087 -19.221  0.00  0.00    -0.003 C 
ATOM     23  C   UNL     1      34.425 -20.754 -20.921  0.00  0.00    +0.031 C 
ENDBRANCH  14  17
ENDBRANCH   1  14
TORSDOF 4
ENDMDL
