MODEL 1
REMARK VINA RESULT:      -5.2      0.000      0.000
REMARK  Name = 6535
REMARK  6 active torsions:
REMARK  status: ('A' for Active; 'I' for Inactive)
REMARK    1  A    between atoms: P_1  and  O_3
REMARK    2  A    between atoms: P_1  and  O_6
REMARK    3  A    between atoms: P_1  and  O_9
REMARK    4  A    between atoms: O_3  and  C_4
REMARK    5  A    between atoms: O_6  and  C_7
REMARK    6  A    between atoms: O_9  and  C_10
REMARK                            x       y       z     vdW  Elec       q    Type
REMARK                         _______ _______ _______ _____ _____    ______ ____
ROOT
ATOM      1  P   UNL     1      35.273 -18.669 -21.472  0.00  0.00    +0.480 P 
ATOM      2  O   UNL     1      36.390 -19.099 -20.564  0.00  0.00    -0.227 OA
ENDROOT
BRANCH   1   3
ATOM      3  O   UNL     1      34.102 -19.772 -21.670  0.00  0.00    -0.273 OA
BRANCH   3   4
ATOM      4  C   UNL     1      33.045 -19.812 -20.728  0.00  0.00    +0.154 C 
ATOM      5  C   UNL     1      33.277 -20.964 -19.774  0.00  0.00    +0.035 C 
ENDBRANCH   3   4
ENDBRANCH   1   3
BRANCH   1   6
ATOM      6  O   UNL     1      35.726 -18.343 -22.992  0.00  0.00    -0.273 OA
BRANCH   6   7
ATOM      7  C   UNL     1      34.944 -18.860 -24.056  0.00  0.00    +0.154 C 
ATOM      8  C   UNL     1      34.592 -17.733 -25.002  0.00  0.00    +0.035 C 
ENDBRANCH   6   7
ENDBRANCH   1   6
BRANCH   1   9
ATOM      9  O   UNL     1      34.492 -17.334 -20.988  0.00  0.00    -0.273 OA
BRANCH   9  10
ATOM     10  C   UNL     1      34.770 -16.085 -21.599  0.00  0.00    +0.154 C 
ATOM     11  C   UNL     1      34.390 -14.973 -20.645  0.00  0.00    +0.035 C 
ENDBRANCH   9  10
ENDBRANCH   1   9
TORSDOF 6
ENDMDL
MODEL 2
REMARK VINA RESULT:      -5.2      0.232      3.949
REMARK  Name = 6535
REMARK  6 active torsions:
REMARK  status: ('A' for Active; 'I' for Inactive)
REMARK    1  A    between atoms: P_1  and  O_3
REMARK    2  A    between atoms: P_1  and  O_6
REMARK    3  A    between atoms: P_1  and  O_9
REMARK    4  A    between atoms: O_3  and  C_4
REMARK    5  A    between atoms: O_6  and  C_7
REMARK    6  A    between atoms: O_9  and  C_10
REMARK                            x       y       z     vdW  Elec       q    Type
REMARK                         _______ _______ _______ _____ _____    ______ ____
ROOT
ATOM      1  P   UNL     1      35.090 -18.608 -21.584  0.00  0.00    +0.480 P 
ATOM      2  O   UNL     1      36.169 -18.797 -20.556  0.00  0.00    -0.227 OA
ENDROOT
BRANCH   1   3
ATOM      3  O   UNL     1      34.150 -17.311 -21.343  0.00  0.00    -0.273 OA
BRANCH   3   4
ATOM      4  C   UNL     1      34.674 -16.030 -21.650  0.00  0.00    +0.154 C 
ATOM      5  C   UNL     1      34.371 -15.086 -20.507  0.00  0.00    +0.035 C 
ENDBRANCH   3   4
ENDBRANCH   1   3
BRANCH   1   6
ATOM      6  O   UNL     1      34.021 -19.821 -21.671  0.00  0.00    -0.273 OA
BRANCH   6   7
ATOM      7  C   UNL     1      32.991 -19.885 -20.699  0.00  0.00    +0.154 C 
ATOM      8  C   UNL     1      33.292 -21.010 -19.733  0.00  0.00    +0.035 C 
ENDBRANCH   6   7
ENDBRANCH   1   6
BRANCH   1   9
ATOM      9  O   UNL     1      35.634 -18.439 -23.101  0.00  0.00    -0.273 OA
BRANCH   9  10
ATOM     10  C   UNL     1      34.818 -18.820 -24.197  0.00  0.00    +0.154 C 
ATOM     11  C   UNL     1      34.587 -17.615 -25.082  0.00  0.00    +0.035 C 
ENDBRANCH   9  10
ENDBRANCH   1   9
TORSDOF 6
ENDMDL
MODEL 3
REMARK VINA RESULT:      -5.2      0.543      3.953
REMARK  Name = 6535
REMARK  6 active torsions:
REMARK  status: ('A' for Active; 'I' for Inactive)
REMARK    1  A    between atoms: P_1  and  O_3
REMARK    2  A    between atoms: P_1  and  O_6
REMARK    3  A    between atoms: P_1  and  O_9
REMARK    4  A    between atoms: O_3  and  C_4
REMARK    5  A    between atoms: O_6  and  C_7
REMARK    6  A    between atoms: O_9  and  C_10
REMARK                            x       y       z     vdW  Elec       q    Type
REMARK                         _______ _______ _______ _____ _____    ______ ____
ROOT
ATOM      1  P   UNL     1      35.045 -18.499 -21.566  0.00  0.00    +0.480 P 
ATOM      2  O   UNL     1      36.097 -18.676 -20.508  0.00  0.00    -0.227 OA
ENDROOT
BRANCH   1   3
ATOM      3  O   UNL     1      35.624 -18.292 -23.065  0.00  0.00    -0.273 OA
BRANCH   3   4
ATOM      4  C   UNL     1      34.757 -18.520 -24.162  0.00  0.00    +0.154 C 
ATOM      5  C   UNL     1      34.692 -17.267 -25.009  0.00  0.00    +0.035 C 
ENDBRANCH   3   4
ENDBRANCH   1   3
BRANCH   1   6
ATOM      6  O   UNL     1      34.094 -17.204 -21.362  0.00  0.00    -0.273 OA
BRANCH   6   7
ATOM      7  C   UNL     1      34.687 -15.993 -20.926  0.00  0.00    +0.154 C 
ATOM      8  C   UNL     1      34.388 -14.905 -21.936  0.00  0.00    +0.035 C 
ENDBRANCH   6   7
ENDBRANCH   1   6
BRANCH   1   9
ATOM      9  O   UNL     1      34.013 -19.741 -21.699  0.00  0.00    -0.273 OA
BRANCH   9  10
ATOM     10  C   UNL     1      32.981 -19.916 -20.743  0.00  0.00    +0.154 C 
ATOM     11  C   UNL     1      33.377 -21.018 -19.784  0.00  0.00    +0.035 C 
ENDBRANCH   9  10
ENDBRANCH   1   9
TORSDOF 6
ENDMDL
MODEL 4
REMARK VINA RESULT:      -5.2      1.688      4.339
REMARK  Name = 6535
REMARK  6 active torsions:
REMARK  status: ('A' for Active; 'I' for Inactive)
REMARK    1  A    between atoms: P_1  and  O_3
REMARK    2  A    between atoms: P_1  and  O_6
REMARK    3  A    between atoms: P_1  and  O_9
REMARK    4  A    between atoms: O_3  and  C_4
REMARK    5  A    between atoms: O_6  and  C_7
REMARK    6  A    between atoms: O_9  and  C_10
REMARK                            x       y       z     vdW  Elec       q    Type
REMARK                         _______ _______ _______ _____ _____    ______ ____
ROOT
ATOM      1  P   UNL     1      35.727 -18.792 -21.315  0.00  0.00    +0.480 P 
ATOM      2  O   UNL     1      36.557 -18.515 -22.536  0.00  0.00    -0.227 OA
ENDROOT
BRANCH   1   3
ATOM      3  O   UNL     1      35.120 -17.471 -20.598  0.00  0.00    -0.273 OA
BRANCH   3   4
ATOM      4  C   UNL     1      34.855 -16.331 -21.396  0.00  0.00    +0.154 C 
ATOM      5  C   UNL     1      34.212 -15.264 -20.536  0.00  0.00    +0.035 C 
ENDBRANCH   3   4
ENDBRANCH   1   3
BRANCH   1   6
ATOM      6  O   UNL     1      36.521 -19.526 -20.110  0.00  0.00    -0.273 OA
BRANCH   6   7
ATOM      7  C   UNL     1      36.590 -20.942 -20.110  0.00  0.00    +0.154 C 
ATOM      8  C   UNL     1      36.409 -21.445 -18.694  0.00  0.00    +0.035 C 
ENDBRANCH   6   7
ENDBRANCH   1   6
BRANCH   1   9
ATOM      9  O   UNL     1      34.437 -19.735 -21.583  0.00  0.00    -0.273 OA
BRANCH   9  10
ATOM     10  C   UNL     1      33.227 -19.504 -20.880  0.00  0.00    +0.154 C 
ATOM     11  C   UNL     1      32.979 -20.658 -19.933  0.00  0.00    +0.035 C 
ENDBRANCH   9  10
ENDBRANCH   1   9
TORSDOF 6
ENDMDL
MODEL 5
REMARK VINA RESULT:      -5.2      1.690      2.944
REMARK  Name = 6535
REMARK  6 active torsions:
REMARK  status: ('A' for Active; 'I' for Inactive)
REMARK    1  A    between atoms: P_1  and  O_3
REMARK    2  A    between atoms: P_1  and  O_6
REMARK    3  A    between atoms: P_1  and  O_9
REMARK    4  A    between atoms: O_3  and  C_4
REMARK    5  A    between atoms: O_6  and  C_7
REMARK    6  A    between atoms: O_9  and  C_10
REMARK                            x       y       z     vdW  Elec       q    Type
REMARK                         _______ _______ _______ _____ _____    ______ ____
ROOT
ATOM      1  P   UNL     1      35.715 -18.779 -21.341  0.00  0.00    +0.480 P 
ATOM      2  O   UNL     1      36.519 -18.487 -22.577  0.00  0.00    -0.227 OA
ENDROOT
BRANCH   1   3
ATOM      3  O   UNL     1      36.545 -19.504 -20.153  0.00  0.00    -0.273 OA
BRANCH   3   4
ATOM      4  C   UNL     1      36.619 -20.920 -20.148  0.00  0.00    +0.154 C 
ATOM      5  C   UNL     1      36.436 -21.418 -18.730  0.00  0.00    +0.035 C 
ENDBRANCH   3   4
ENDBRANCH   1   3
BRANCH   1   6
ATOM      6  O   UNL     1      34.462 -19.778 -21.572  0.00  0.00    -0.273 OA
BRANCH   6   7
ATOM      7  C   UNL     1      33.253 -19.516 -20.880  0.00  0.00    +0.154 C 
ATOM      8  C   UNL     1      32.964 -20.664 -19.937  0.00  0.00    +0.035 C 
ENDBRANCH   6   7
ENDBRANCH   1   6
BRANCH   1   9
ATOM      9  O   UNL     1      35.065 -17.470 -20.640  0.00  0.00    -0.273 OA
BRANCH   9  10
ATOM     10  C   UNL     1      34.901 -16.273 -21.381  0.00  0.00    +0.154 C 
ATOM     11  C   UNL     1      34.072 -15.301 -20.570  0.00  0.00    +0.035 C 
ENDBRANCH   9  10
ENDBRANCH   1   9
TORSDOF 6
ENDMDL
MODEL 6
REMARK VINA RESULT:      -5.1      1.328      3.418
REMARK  Name = 6535
REMARK  6 active torsions:
REMARK  status: ('A' for Active; 'I' for Inactive)
REMARK    1  A    between atoms: P_1  and  O_3
REMARK    2  A    between atoms: P_1  and  O_6
REMARK    3  A    between atoms: P_1  and  O_9
REMARK    4  A    between atoms: O_3  and  C_4
REMARK    5  A    between atoms: O_6  and  C_7
REMARK    6  A    between atoms: O_9  and  C_10
REMARK                            x       y       z     vdW  Elec       q    Type
REMARK                         _______ _______ _______ _____ _____    ______ ____
ROOT
ATOM      1  P   UNL     1      34.978 -18.838 -21.252  0.00  0.00    +0.480 P 
ATOM      2  O   UNL     1      33.553 -19.312 -21.204  0.00  0.00    -0.227 OA
ENDROOT
BRANCH   1   3
ATOM      3  O   UNL     1      36.018 -19.741 -20.398  0.00  0.00    -0.273 OA
BRANCH   3   4
ATOM      4  C   UNL     1      35.608 -21.031 -19.980  0.00  0.00    +0.154 C 
ATOM      5  C   UNL     1      36.431 -21.446 -18.780  0.00  0.00    +0.035 C 
ENDBRANCH   3   4
ENDBRANCH   1   3
BRANCH   1   6
ATOM      6  O   UNL     1      35.215 -17.351 -20.657  0.00  0.00    -0.273 OA
BRANCH   6   7
ATOM      7  C   UNL     1      34.789 -16.239 -21.427  0.00  0.00    +0.154 C 
ATOM      8  C   UNL     1      34.324 -15.142 -20.494  0.00  0.00    +0.035 C 
ENDBRANCH   6   7
ENDBRANCH   1   6
BRANCH   1   9
ATOM      9  O   UNL     1      35.616 -18.784 -22.741  0.00  0.00    -0.273 OA
BRANCH   9  10
ATOM     10  C   UNL     1      34.842 -19.177 -23.862  0.00  0.00    +0.154 C 
ATOM     11  C   UNL     1      34.636 -17.978 -24.763  0.00  0.00    +0.035 C 
ENDBRANCH   9  10
ENDBRANCH   1   9
TORSDOF 6
ENDMDL
MODEL 7
REMARK VINA RESULT:      -5.1      1.354      3.750
REMARK  Name = 6535
REMARK  6 active torsions:
REMARK  status: ('A' for Active; 'I' for Inactive)
REMARK    1  A    between atoms: P_1  and  O_3
REMARK    2  A    between atoms: P_1  and  O_6
REMARK    3  A    between atoms: P_1  and  O_9
REMARK    4  A    between atoms: O_3  and  C_4
REMARK    5  A    between atoms: O_6  and  C_7
REMARK    6  A    between atoms: O_9  and  C_10
REMARK                            x       y       z     vdW  Elec       q    Type
REMARK                         _______ _______ _______ _____ _____    ______ ____
ROOT
ATOM      1  P   UNL     1      35.033 -18.802 -21.242  0.00  0.00    +0.480 P 
ATOM      2  O   UNL     1      33.614 -19.295 -21.199  0.00  0.00    -0.227 OA
ENDROOT
BRANCH   1   3
ATOM      3  O   UNL     1      35.242 -17.300 -20.669  0.00  0.00    -0.273 OA
BRANCH   3   4
ATOM      4  C   UNL     1      34.790 -16.209 -21.452  0.00  0.00    +0.154 C 
ATOM      5  C   UNL     1      34.158 -15.176 -20.543  0.00  0.00    +0.035 C 
ENDBRANCH   3   4
ENDBRANCH   1   3
BRANCH   1   6
ATOM      6  O   UNL     1      35.674 -18.716 -22.726  0.00  0.00    -0.273 OA
BRANCH   6   7
ATOM      7  C   UNL     1      34.897 -19.165 -23.824  0.00  0.00    +0.154 C 
ATOM      8  C   UNL     1      34.627 -17.996 -24.747  0.00  0.00    +0.035 C 
ENDBRANCH   6   7
ENDBRANCH   1   6
BRANCH   1   9
ATOM      9  O   UNL     1      36.081 -19.705 -20.400  0.00  0.00    -0.273 OA
BRANCH   9  10
ATOM     10  C   UNL     1      35.794 -21.068 -20.135  0.00  0.00    +0.154 C 
ATOM     11  C   UNL     1      36.427 -21.458 -18.816  0.00  0.00    +0.035 C 
ENDBRANCH   9  10
ENDBRANCH   1   9
TORSDOF 6
ENDMDL
MODEL 8
REMARK VINA RESULT:      -5.1      1.347      3.636
REMARK  Name = 6535
REMARK  6 active torsions:
REMARK  status: ('A' for Active; 'I' for Inactive)
REMARK    1  A    between atoms: P_1  and  O_3
REMARK    2  A    between atoms: P_1  and  O_6
REMARK    3  A    between atoms: P_1  and  O_9
REMARK    4  A    between atoms: O_3  and  C_4
REMARK    5  A    between atoms: O_6  and  C_7
REMARK    6  A    between atoms: O_9  and  C_10
REMARK                            x       y       z     vdW  Elec       q    Type
REMARK                         _______ _______ _______ _____ _____    ______ ____
ROOT
ATOM      1  P   UNL     1      35.017 -18.675 -21.253  0.00  0.00    +0.480 P 
ATOM      2  O   UNL     1      33.590 -19.141 -21.193  0.00  0.00    -0.227 OA
ENDROOT
BRANCH   1   3
ATOM      3  O   UNL     1      35.666 -18.681 -22.738  0.00  0.00    -0.273 OA
BRANCH   3   4
ATOM      4  C   UNL     1      34.856 -19.084 -23.828  0.00  0.00    +0.154 C 
ATOM      5  C   UNL     1      34.644 -17.901 -24.749  0.00  0.00    +0.035 C 
ENDBRANCH   3   4
ENDBRANCH   1   3
BRANCH   1   6
ATOM      6  O   UNL     1      36.057 -19.575 -20.399  0.00  0.00    -0.273 OA
BRANCH   6   7
ATOM      7  C   UNL     1      35.775 -20.953 -20.225  0.00  0.00    +0.154 C 
ATOM      8  C   UNL     1      36.418 -21.431 -18.941  0.00  0.00    +0.035 C 
ENDBRANCH   6   7
ENDBRANCH   1   6
BRANCH   1   9
ATOM      9  O   UNL     1      35.251 -17.165 -20.715  0.00  0.00    -0.273 OA
BRANCH   9  10
ATOM     10  C   UNL     1      34.757 -16.060 -21.454  0.00  0.00    +0.154 C 
ATOM     11  C   UNL     1      33.910 -15.197 -20.544  0.00  0.00    +0.035 C 
ENDBRANCH   9  10
ENDBRANCH   1   9
TORSDOF 6
ENDMDL
MODEL 9
REMARK VINA RESULT:      -5.0      1.662      4.219
REMARK  Name = 6535
REMARK  6 active torsions:
REMARK  status: ('A' for Active; 'I' for Inactive)
REMARK    1  A    between atoms: P_1  and  O_3
REMARK    2  A    between atoms: P_1  and  O_6
REMARK    3  A    between atoms: P_1  and  O_9
REMARK    4  A    between atoms: O_3  and  C_4
REMARK    5  A    between atoms: O_6  and  C_7
REMARK    6  A    between atoms: O_9  and  C_10
REMARK                            x       y       z     vdW  Elec       q    Type
REMARK                         _______ _______ _______ _____ _____    ______ ____
ROOT
ATOM      1  P   UNL     1      34.691 -18.181 -21.557  0.00  0.00    +0.480 P 
ATOM      2  O   UNL     1      33.851 -16.979 -21.227  0.00  0.00    -0.227 OA
ENDROOT
BRANCH   1   3
ATOM      3  O   UNL     1      35.452 -18.099 -22.985  0.00  0.00    -0.273 OA
BRANCH   3   4
ATOM      4  C   UNL     1      34.871 -17.322 -24.017  0.00  0.00    +0.154 C 
ATOM      5  C   UNL     1      34.388 -18.243 -25.117  0.00  0.00    +0.035 C 
ENDBRANCH   3   4
ENDBRANCH   1   3
BRANCH   1   6
ATOM      6  O   UNL     1      33.868 -19.571 -21.662  0.00  0.00    -0.273 OA
BRANCH   6   7
ATOM      7  C   UNL     1      32.789 -19.788 -20.768  0.00  0.00    +0.154 C 
ATOM      8  C   UNL     1      33.159 -20.900 -19.810  0.00  0.00    +0.035 C 
ENDBRANCH   6   7
ENDBRANCH   1   6
BRANCH   1   9
ATOM      9  O   UNL     1      35.869 -18.488 -20.487  0.00  0.00    -0.273 OA
BRANCH   9  10
ATOM     10  C   UNL     1      36.894 -19.415 -20.803  0.00  0.00    +0.154 C 
ATOM     11  C   UNL     1      36.727 -20.649 -19.942  0.00  0.00    +0.035 C 
ENDBRANCH   9  10
ENDBRANCH   1   9
TORSDOF 6
ENDMDL
