MODEL 1
REMARK VINA RESULT:      -6.5      0.000      0.000
REMARK  Name = 1195
REMARK  9 active torsions:
REMARK  status: ('A' for Active; 'I' for Inactive)
REMARK    1  A    between atoms: P_1  and  O_3
REMARK    2  A    between atoms: P_1  and  O_5
REMARK    3  A    between atoms: P_1  and  O_11
REMARK    4  A    between atoms: O_5  and  C_6
REMARK    5  A    between atoms: C_6  and  C_7
REMARK    6  A    between atoms: C_7  and  C_8
REMARK    7  A    between atoms: O_11  and  P_12
REMARK    8  A    between atoms: P_12  and  O_14
REMARK    9  A    between atoms: P_12  and  O_16
REMARK                            x       y       z     vdW  Elec       q    Type
REMARK                         _______ _______ _______ _____ _____    ______ ____
ROOT
ATOM      1  P   UNL     1      37.220 -26.165 -14.918  0.00  0.00    +0.484 P 
ATOM      2  O   UNL     1      36.431 -27.098 -15.790  0.00  0.00    -0.227 OA
ENDROOT
BRANCH   1   3
ATOM      3  O   UNL     1      37.545 -24.732 -15.596  0.00  0.00    -0.302 OA
ATOM      4  H   UNL     1      36.719 -24.237 -15.717  0.00  0.00    +0.222 HD
ENDBRANCH   1   3
BRANCH   1   5
ATOM      5  O   UNL     1      36.511 -25.796 -13.512  0.00  0.00    -0.273 OA
BRANCH   5   6
ATOM      6  C   UNL     1      36.344 -24.435 -13.140  0.00  0.00    +0.158 C 
BRANCH   6   7
ATOM      7  C   UNL     1      34.892 -24.186 -12.741  0.00  0.00    +0.055 C 
BRANCH   7   8
ATOM      8  C   UNL     1      33.963 -24.042 -13.925  0.00  0.00    -0.041 C 
ATOM      9  C   UNL     1      32.621 -24.713 -13.829  0.00  0.00    +0.026 C 
ATOM     10  C   UNL     1      34.333 -23.376 -15.030  0.00  0.00    -0.009 C 
ENDBRANCH   7   8
ENDBRANCH   6   7
ENDBRANCH   5   6
ENDBRANCH   1   5
BRANCH   1  11
ATOM     11  O   UNL     1      38.681 -26.720 -14.505  0.00  0.00    -0.186 OA
BRANCH  11  12
ATOM     12  P   UNL     1      40.142 -26.033 -14.600  0.00  0.00    +0.481 P 
ATOM     13  O   UNL     1      41.256 -26.848 -14.014  0.00  0.00    -0.227 OA
BRANCH  12  14
ATOM     14  O   UNL     1      39.911 -24.588 -13.914  0.00  0.00    -0.302 OA
ATOM     15  H   UNL     1      39.062 -24.585 -13.443  0.00  0.00    +0.222 HD
ENDBRANCH  12  14
BRANCH  12  16
ATOM     16  O   UNL     1      40.290 -25.687 -16.171  0.00  0.00    -0.302 OA
ATOM     17  H   UNL     1      39.708 -26.267 -16.687  0.00  0.00    +0.222 HD
ENDBRANCH  12  16
ENDBRANCH  11  12
ENDBRANCH   1  11
TORSDOF 9
ENDMDL
MODEL 2
REMARK VINA RESULT:      -6.4      1.649      2.591
REMARK  Name = 1195
REMARK  9 active torsions:
REMARK  status: ('A' for Active; 'I' for Inactive)
REMARK    1  A    between atoms: P_1  and  O_3
REMARK    2  A    between atoms: P_1  and  O_5
REMARK    3  A    between atoms: P_1  and  O_11
REMARK    4  A    between atoms: O_5  and  C_6
REMARK    5  A    between atoms: C_6  and  C_7
REMARK    6  A    between atoms: C_7  and  C_8
REMARK    7  A    between atoms: O_11  and  P_12
REMARK    8  A    between atoms: P_12  and  O_14
REMARK    9  A    between atoms: P_12  and  O_16
REMARK                            x       y       z     vdW  Elec       q    Type
REMARK                         _______ _______ _______ _____ _____    ______ ____
ROOT
ATOM      1  P   UNL     1      37.598 -25.067 -12.613  0.00  0.00    +0.484 P 
ATOM      2  O   UNL     1      37.653 -24.520 -11.215  0.00  0.00    -0.227 OA
ENDROOT
BRANCH   1   3
ATOM      3  O   UNL     1      36.781 -26.456 -12.753  0.00  0.00    -0.302 OA
ATOM      4  H   UNL     1      35.861 -26.319 -12.476  0.00  0.00    +0.222 HD
ENDBRANCH   1   3
BRANCH   1   5
ATOM      5  O   UNL     1      36.911 -24.082 -13.695  0.00  0.00    -0.273 OA
BRANCH   5   6
ATOM      6  C   UNL     1      35.634 -24.399 -14.230  0.00  0.00    +0.158 C 
BRANCH   6   7
ATOM      7  C   UNL     1      35.381 -23.566 -15.484  0.00  0.00    +0.055 C 
BRANCH   7   8
ATOM      8  C   UNL     1      33.913 -23.405 -15.808  0.00  0.00    -0.041 C 
ATOM      9  C   UNL     1      33.539 -23.304 -17.260  0.00  0.00    +0.026 C 
ATOM     10  C   UNL     1      32.986 -23.321 -14.841  0.00  0.00    -0.009 C 
ENDBRANCH   7   8
ENDBRANCH   6   7
ENDBRANCH   5   6
ENDBRANCH   1   5
BRANCH   1  11
ATOM     11  O   UNL     1      39.044 -25.422 -13.243  0.00  0.00    -0.186 OA
BRANCH  11  12
ATOM     12  P   UNL     1      39.509 -25.629 -14.777  0.00  0.00    +0.481 P 
ATOM     13  O   UNL     1      40.862 -26.257 -14.941  0.00  0.00    -0.227 OA
BRANCH  12  14
ATOM     14  O   UNL     1      39.354 -24.150 -15.410  0.00  0.00    -0.302 OA
ATOM     15  H   UNL     1      38.532 -23.746 -15.090  0.00  0.00    +0.222 HD
ENDBRANCH  12  14
BRANCH  12  16
ATOM     16  O   UNL     1      38.282 -26.452 -15.431  0.00  0.00    -0.302 OA
ATOM     17  H   UNL     1      38.561 -26.829 -16.280  0.00  0.00    +0.222 HD
ENDBRANCH  12  16
ENDBRANCH  11  12
ENDBRANCH   1  11
TORSDOF 9
ENDMDL
MODEL 3
REMARK VINA RESULT:      -6.4      3.296      4.569
REMARK  Name = 1195
REMARK  9 active torsions:
REMARK  status: ('A' for Active; 'I' for Inactive)
REMARK    1  A    between atoms: P_1  and  O_3
REMARK    2  A    between atoms: P_1  and  O_5
REMARK    3  A    between atoms: P_1  and  O_11
REMARK    4  A    between atoms: O_5  and  C_6
REMARK    5  A    between atoms: C_6  and  C_7
REMARK    6  A    between atoms: C_7  and  C_8
REMARK    7  A    between atoms: O_11  and  P_12
REMARK    8  A    between atoms: P_12  and  O_14
REMARK    9  A    between atoms: P_12  and  O_16
REMARK                            x       y       z     vdW  Elec       q    Type
REMARK                         _______ _______ _______ _____ _____    ______ ____
ROOT
ATOM      1  P   UNL     1      37.913 -24.125 -14.920  0.00  0.00    +0.484 P 
ATOM      2  O   UNL     1      36.873 -25.147 -15.277  0.00  0.00    -0.227 OA
ENDROOT
BRANCH   1   3
ATOM      3  O   UNL     1      39.377 -24.415 -15.545  0.00  0.00    -0.302 OA
ATOM      4  H   UNL     1      39.514 -25.374 -15.614  0.00  0.00    +0.222 HD
ENDBRANCH   1   3
BRANCH   1   5
ATOM      5  O   UNL     1      37.565 -22.617 -15.388  0.00  0.00    -0.273 OA
BRANCH   5   6
ATOM      6  C   UNL     1      36.483 -22.386 -16.280  0.00  0.00    +0.158 C 
BRANCH   6   7
ATOM      7  C   UNL     1      36.950 -21.506 -17.437  0.00  0.00    +0.055 C 
BRANCH   7   8
ATOM      8  C   UNL     1      36.086 -21.633 -18.670  0.00  0.00    -0.041 C 
ATOM      9  C   UNL     1      34.743 -22.285 -18.502  0.00  0.00    +0.026 C 
ATOM     10  C   UNL     1      36.512 -21.214 -19.872  0.00  0.00    -0.009 C 
ENDBRANCH   7   8
ENDBRANCH   6   7
ENDBRANCH   5   6
ENDBRANCH   1   5
BRANCH   1  11
ATOM     11  O   UNL     1      38.205 -24.003 -13.334  0.00  0.00    -0.186 OA
BRANCH  11  12
ATOM     12  P   UNL     1      37.268 -23.491 -12.120  0.00  0.00    +0.481 P 
ATOM     13  O   UNL     1      37.172 -24.439 -10.962  0.00  0.00    -0.227 OA
BRANCH  12  14
ATOM     14  O   UNL     1      35.868 -23.156 -12.855  0.00  0.00    -0.302 OA
ATOM     15  H   UNL     1      35.358 -22.536 -12.311  0.00  0.00    +0.222 HD
ENDBRANCH  12  14
BRANCH  12  16
ATOM     16  O   UNL     1      37.871 -22.033 -11.772  0.00  0.00    -0.302 OA
ATOM     17  H   UNL     1      38.442 -21.737 -12.499  0.00  0.00    +0.222 HD
ENDBRANCH  12  16
ENDBRANCH  11  12
ENDBRANCH   1  11
TORSDOF 9
ENDMDL
MODEL 4
REMARK VINA RESULT:      -6.1      2.695      3.648
REMARK  Name = 1195
REMARK  9 active torsions:
REMARK  status: ('A' for Active; 'I' for Inactive)
REMARK    1  A    between atoms: P_1  and  O_3
REMARK    2  A    between atoms: P_1  and  O_5
REMARK    3  A    between atoms: P_1  and  O_11
REMARK    4  A    between atoms: O_5  and  C_6
REMARK    5  A    between atoms: C_6  and  C_7
REMARK    6  A    between atoms: C_7  and  C_8
REMARK    7  A    between atoms: O_11  and  P_12
REMARK    8  A    between atoms: P_12  and  O_14
REMARK    9  A    between atoms: P_12  and  O_16
REMARK                            x       y       z     vdW  Elec       q    Type
REMARK                         _______ _______ _______ _____ _____    ______ ____
ROOT
ATOM      1  P   UNL     1      36.091 -25.411 -14.963  0.00  0.00    +0.484 P 
ATOM      2  O   UNL     1      36.211 -26.720 -15.689  0.00  0.00    -0.227 OA
ENDROOT
BRANCH   1   3
ATOM      3  O   UNL     1      36.858 -24.179 -15.679  0.00  0.00    -0.302 OA
ATOM      4  H   UNL     1      37.812 -24.257 -15.520  0.00  0.00    +0.222 HD
ENDBRANCH   1   3
BRANCH   1   5
ATOM      5  O   UNL     1      34.575 -24.886 -14.768  0.00  0.00    -0.273 OA
BRANCH   5   6
ATOM      6  C   UNL     1      34.087 -23.818 -15.568  0.00  0.00    +0.158 C 
BRANCH   6   7
ATOM      7  C   UNL     1      32.936 -23.121 -14.848  0.00  0.00    +0.055 C 
BRANCH   7   8
ATOM      8  C   UNL     1      31.575 -23.633 -15.262  0.00  0.00    -0.041 C 
ATOM      9  C   UNL     1      30.901 -22.937 -16.410  0.00  0.00    +0.026 C 
ATOM     10  C   UNL     1      30.978 -24.643 -14.609  0.00  0.00    -0.009 C 
ENDBRANCH   7   8
ENDBRANCH   6   7
ENDBRANCH   5   6
ENDBRANCH   1   5
BRANCH   1  11
ATOM     11  O   UNL     1      36.716 -25.421 -13.472  0.00  0.00    -0.186 OA
BRANCH  11  12
ATOM     12  P   UNL     1      36.385 -24.509 -12.178  0.00  0.00    +0.481 P 
ATOM     13  O   UNL     1      37.445 -24.521 -11.117  0.00  0.00    -0.227 OA
BRANCH  12  14
ATOM     14  O   UNL     1      34.935 -25.051 -11.711  0.00  0.00    -0.302 OA
ATOM     15  H   UNL     1      34.278 -24.345 -11.813  0.00  0.00    +0.222 HD
ENDBRANCH  12  14
BRANCH  12  16
ATOM     16  O   UNL     1      36.061 -23.060 -12.816  0.00  0.00    -0.302 OA
ATOM     17  H   UNL     1      35.631 -22.502 -12.149  0.00  0.00    +0.222 HD
ENDBRANCH  12  16
ENDBRANCH  11  12
ENDBRANCH   1  11
TORSDOF 9
ENDMDL
MODEL 5
REMARK VINA RESULT:      -6.1      2.165      3.660
REMARK  Name = 1195
REMARK  9 active torsions:
REMARK  status: ('A' for Active; 'I' for Inactive)
REMARK    1  A    between atoms: P_1  and  O_3
REMARK    2  A    between atoms: P_1  and  O_5
REMARK    3  A    between atoms: P_1  and  O_11
REMARK    4  A    between atoms: O_5  and  C_6
REMARK    5  A    between atoms: C_6  and  C_7
REMARK    6  A    between atoms: C_7  and  C_8
REMARK    7  A    between atoms: O_11  and  P_12
REMARK    8  A    between atoms: P_12  and  O_14
REMARK    9  A    between atoms: P_12  and  O_16
REMARK                            x       y       z     vdW  Elec       q    Type
REMARK                         _______ _______ _______ _____ _____    ______ ____
ROOT
ATOM      1  P   UNL     1      37.530 -25.446 -14.092  0.00  0.00    +0.484 P 
ATOM      2  O   UNL     1      38.428 -26.645 -14.203  0.00  0.00    -0.227 OA
ENDROOT
BRANCH   1   3
ATOM      3  O   UNL     1      38.309 -24.051 -13.838  0.00  0.00    -0.302 OA
ATOM      4  H   UNL     1      38.788 -24.097 -12.995  0.00  0.00    +0.222 HD
ENDBRANCH   1   3
BRANCH   1   5
ATOM      5  O   UNL     1      36.614 -25.168 -15.395  0.00  0.00    -0.273 OA
BRANCH   5   6
ATOM      6  C   UNL     1      35.220 -24.943 -15.244  0.00  0.00    +0.158 C 
BRANCH   6   7
ATOM      7  C   UNL     1      34.883 -23.512 -15.653  0.00  0.00    +0.055 C 
BRANCH   7   8
ATOM      8  C   UNL     1      33.415 -23.305 -15.949  0.00  0.00    -0.041 C 
ATOM      9  C   UNL     1      32.485 -23.213 -14.771  0.00  0.00    +0.026 C 
ATOM     10  C   UNL     1      32.954 -23.243 -17.208  0.00  0.00    -0.009 C 
ENDBRANCH   7   8
ENDBRANCH   6   7
ENDBRANCH   5   6
ENDBRANCH   1   5
BRANCH   1  11
ATOM     11  O   UNL     1      36.482 -25.515 -12.863  0.00  0.00    -0.186 OA
BRANCH  11  12
ATOM     12  P   UNL     1      36.256 -24.524 -11.606  0.00  0.00    +0.481 P 
ATOM     13  O   UNL     1      35.283 -25.026 -10.580  0.00  0.00    -0.227 OA
BRANCH  12  14
ATOM     14  O   UNL     1      35.856 -23.125 -12.310  0.00  0.00    -0.302 OA
ATOM     15  H   UNL     1      36.554 -22.864 -12.930  0.00  0.00    +0.222 HD
ENDBRANCH  12  14
BRANCH  12  16
ATOM     16  O   UNL     1      37.756 -24.260 -11.065  0.00  0.00    -0.302 OA
ATOM     17  H   UNL     1      38.101 -25.071 -10.660  0.00  0.00    +0.222 HD
ENDBRANCH  12  16
ENDBRANCH  11  12
ENDBRANCH   1  11
TORSDOF 9
ENDMDL
MODEL 6
REMARK VINA RESULT:      -6.1      2.554      3.745
REMARK  Name = 1195
REMARK  9 active torsions:
REMARK  status: ('A' for Active; 'I' for Inactive)
REMARK    1  A    between atoms: P_1  and  O_3
REMARK    2  A    between atoms: P_1  and  O_5
REMARK    3  A    between atoms: P_1  and  O_11
REMARK    4  A    between atoms: O_5  and  C_6
REMARK    5  A    between atoms: C_6  and  C_7
REMARK    6  A    between atoms: C_7  and  C_8
REMARK    7  A    between atoms: O_11  and  P_12
REMARK    8  A    between atoms: P_12  and  O_14
REMARK    9  A    between atoms: P_12  and  O_16
REMARK                            x       y       z     vdW  Elec       q    Type
REMARK                         _______ _______ _______ _____ _____    ______ ____
ROOT
ATOM      1  P   UNL     1      35.622 -24.841 -14.673  0.00  0.00    +0.484 P 
ATOM      2  O   UNL     1      34.457 -24.424 -13.823  0.00  0.00    -0.227 OA
ENDROOT
BRANCH   1   3
ATOM      3  O   UNL     1      35.611 -26.402 -15.101  0.00  0.00    -0.302 OA
ATOM      4  H   UNL     1      35.712 -26.473 -16.063  0.00  0.00    +0.222 HD
ENDBRANCH   1   3
BRANCH   1   5
ATOM      5  O   UNL     1      35.759 -24.039 -16.069  0.00  0.00    -0.273 OA
BRANCH   5   6
ATOM      6  C   UNL     1      34.957 -22.891 -16.307  0.00  0.00    +0.158 C 
BRANCH   6   7
ATOM      7  C   UNL     1      34.082 -23.121 -17.535  0.00  0.00    +0.055 C 
BRANCH   7   8
ATOM      8  C   UNL     1      34.366 -22.153 -18.661  0.00  0.00    -0.041 C 
ATOM      9  C   UNL     1      35.802 -21.777 -18.897  0.00  0.00    +0.026 C 
ATOM     10  C   UNL     1      33.376 -21.622 -19.396  0.00  0.00    -0.009 C 
ENDBRANCH   7   8
ENDBRANCH   6   7
ENDBRANCH   5   6
ENDBRANCH   1   5
BRANCH   1  11
ATOM     11  O   UNL     1      37.061 -24.664 -13.957  0.00  0.00    -0.186 OA
BRANCH  11  12
ATOM     12  P   UNL     1      38.561 -24.874 -14.524  0.00  0.00    +0.481 P 
ATOM     13  O   UNL     1      39.632 -24.874 -13.475  0.00  0.00    -0.227 OA
BRANCH  12  14
ATOM     14  O   UNL     1      38.693 -23.715 -15.643  0.00  0.00    -0.302 OA
ATOM     15  H   UNL     1      39.270 -24.022 -16.360  0.00  0.00    +0.222 HD
ENDBRANCH  12  14
BRANCH  12  16
ATOM     16  O   UNL     1      38.444 -26.230 -15.394  0.00  0.00    -0.302 OA
ATOM     17  H   UNL     1      39.270 -26.375 -15.881  0.00  0.00    +0.222 HD
ENDBRANCH  12  16
ENDBRANCH  11  12
ENDBRANCH   1  11
TORSDOF 9
ENDMDL
MODEL 7
REMARK VINA RESULT:      -6.0      3.493      4.729
REMARK  Name = 1195
REMARK  9 active torsions:
REMARK  status: ('A' for Active; 'I' for Inactive)
REMARK    1  A    between atoms: P_1  and  O_3
REMARK    2  A    between atoms: P_1  and  O_5
REMARK    3  A    between atoms: P_1  and  O_11
REMARK    4  A    between atoms: O_5  and  C_6
REMARK    5  A    between atoms: C_6  and  C_7
REMARK    6  A    between atoms: C_7  and  C_8
REMARK    7  A    between atoms: O_11  and  P_12
REMARK    8  A    between atoms: P_12  and  O_14
REMARK    9  A    between atoms: P_12  and  O_16
REMARK                            x       y       z     vdW  Elec       q    Type
REMARK                         _______ _______ _______ _____ _____    ______ ____
ROOT
ATOM      1  P   UNL     1      35.641 -23.052 -15.858  0.00  0.00    +0.484 P 
ATOM      2  O   UNL     1      36.537 -22.009 -16.461  0.00  0.00    -0.227 OA
ENDROOT
BRANCH   1   3
ATOM      3  O   UNL     1      34.726 -22.519 -14.634  0.00  0.00    -0.302 OA
ATOM      4  H   UNL     1      34.881 -21.569 -14.505  0.00  0.00    +0.222 HD
ENDBRANCH   1   3
BRANCH   1   5
ATOM      5  O   UNL     1      34.589 -23.715 -16.891  0.00  0.00    -0.273 OA
BRANCH   5   6
ATOM      6  C   UNL     1      33.675 -22.888 -17.597  0.00  0.00    +0.158 C 
BRANCH   6   7
ATOM      7  C   UNL     1      34.048 -22.857 -19.077  0.00  0.00    +0.055 C 
BRANCH   7   8
ATOM      8  C   UNL     1      34.337 -21.464 -19.590  0.00  0.00    -0.041 C 
ATOM      9  C   UNL     1      33.156 -20.609 -19.953  0.00  0.00    +0.026 C 
ATOM     10  C   UNL     1      35.594 -21.022 -19.749  0.00  0.00    -0.009 C 
ENDBRANCH   7   8
ENDBRANCH   6   7
ENDBRANCH   5   6
ENDBRANCH   1   5
BRANCH   1  11
ATOM     11  O   UNL     1      36.427 -24.309 -15.213  0.00  0.00    -0.186 OA
BRANCH  11  12
ATOM     12  P   UNL     1      37.985 -24.499 -14.823  0.00  0.00    +0.481 P 
ATOM     13  O   UNL     1      38.309 -24.220 -13.386  0.00  0.00    -0.227 OA
BRANCH  12  14
ATOM     14  O   UNL     1      38.746 -23.560 -15.896  0.00  0.00    -0.302 OA
ATOM     15  H   UNL     1      38.327 -22.685 -15.916  0.00  0.00    +0.222 HD
ENDBRANCH  12  14
BRANCH  12  16
ATOM     16  O   UNL     1      38.316 -25.997 -15.329  0.00  0.00    -0.302 OA
ATOM     17  H   UNL     1      37.615 -26.600 -15.036  0.00  0.00    +0.222 HD
ENDBRANCH  12  16
ENDBRANCH  11  12
ENDBRANCH   1  11
TORSDOF 9
ENDMDL
MODEL 8
REMARK VINA RESULT:      -6.0      7.259      8.769
REMARK  Name = 1195
REMARK  9 active torsions:
REMARK  status: ('A' for Active; 'I' for Inactive)
REMARK    1  A    between atoms: P_1  and  O_3
REMARK    2  A    between atoms: P_1  and  O_5
REMARK    3  A    between atoms: P_1  and  O_11
REMARK    4  A    between atoms: O_5  and  C_6
REMARK    5  A    between atoms: C_6  and  C_7
REMARK    6  A    between atoms: C_7  and  C_8
REMARK    7  A    between atoms: O_11  and  P_12
REMARK    8  A    between atoms: P_12  and  O_14
REMARK    9  A    between atoms: P_12  and  O_16
REMARK                            x       y       z     vdW  Elec       q    Type
REMARK                         _______ _______ _______ _____ _____    ______ ____
ROOT
ATOM      1  P   UNL     1      29.361 -24.781 -14.895  0.00  0.00    +0.484 P 
ATOM      2  O   UNL     1      30.110 -25.358 -16.061  0.00  0.00    -0.227 OA
ENDROOT
BRANCH   1   3
ATOM      3  O   UNL     1      28.297 -25.795 -14.218  0.00  0.00    -0.302 OA
ATOM      4  H   UNL     1      28.368 -26.666 -14.640  0.00  0.00    +0.222 HD
ENDBRANCH   1   3
BRANCH   1   5
ATOM      5  O   UNL     1      30.295 -24.296 -13.668  0.00  0.00    -0.273 OA
BRANCH   5   6
ATOM      6  C   UNL     1      31.707 -24.268 -13.821  0.00  0.00    +0.158 C 
BRANCH   6   7
ATOM      7  C   UNL     1      32.109 -23.060 -14.662  0.00  0.00    +0.055 C 
BRANCH   7   8
ATOM      8  C   UNL     1      33.304 -23.322 -15.550  0.00  0.00    -0.041 C 
ATOM      9  C   UNL     1      33.076 -23.279 -17.035  0.00  0.00    +0.026 C 
ATOM     10  C   UNL     1      34.508 -23.616 -15.037  0.00  0.00    -0.009 C 
ENDBRANCH   7   8
ENDBRANCH   6   7
ENDBRANCH   5   6
ENDBRANCH   1   5
BRANCH   1  11
ATOM     11  O   UNL     1      28.460 -23.488 -15.259  0.00  0.00    -0.186 OA
BRANCH  11  12
ATOM     12  P   UNL     1      28.210 -22.733 -16.666  0.00  0.00    +0.481 P 
ATOM     13  O   UNL     1      27.276 -21.562 -16.591  0.00  0.00    -0.227 OA
BRANCH  12  14
ATOM     14  O   UNL     1      27.738 -23.930 -17.644  0.00  0.00    -0.302 OA
ATOM     15  H   UNL     1      26.795 -23.828 -17.848  0.00  0.00    +0.222 HD
ENDBRANCH  12  14
BRANCH  12  16
ATOM     16  O   UNL     1      29.705 -22.393 -17.178  0.00  0.00    -0.302 OA
ATOM     17  H   UNL     1      29.778 -22.598 -18.123  0.00  0.00    +0.222 HD
ENDBRANCH  12  16
ENDBRANCH  11  12
ENDBRANCH   1  11
TORSDOF 9
ENDMDL
MODEL 9
REMARK VINA RESULT:      -6.0     11.520     13.089
REMARK  Name = 1195
REMARK  9 active torsions:
REMARK  status: ('A' for Active; 'I' for Inactive)
REMARK    1  A    between atoms: P_1  and  O_3
REMARK    2  A    between atoms: P_1  and  O_5
REMARK    3  A    between atoms: P_1  and  O_11
REMARK    4  A    between atoms: O_5  and  C_6
REMARK    5  A    between atoms: C_6  and  C_7
REMARK    6  A    between atoms: C_7  and  C_8
REMARK    7  A    between atoms: O_11  and  P_12
REMARK    8  A    between atoms: P_12  and  O_14
REMARK    9  A    between atoms: P_12  and  O_16
REMARK                            x       y       z     vdW  Elec       q    Type
REMARK                         _______ _______ _______ _____ _____    ______ ____
ROOT
ATOM      1  P   UNL     1      33.924 -15.534 -21.458  0.00  0.00    +0.484 P 
ATOM      2  O   UNL     1      32.468 -15.605 -21.097  0.00  0.00    -0.227 OA
ENDROOT
BRANCH   1   3
ATOM      3  O   UNL     1      34.904 -15.198 -20.215  0.00  0.00    -0.302 OA
ATOM      4  H   UNL     1      35.662 -14.682 -20.532  0.00  0.00    +0.222 HD
ENDBRANCH   1   3
BRANCH   1   5
ATOM      5  O   UNL     1      34.527 -16.892 -22.094  0.00  0.00    -0.273 OA
BRANCH   5   6
ATOM      6  C   UNL     1      35.151 -17.851 -21.251  0.00  0.00    +0.158 C 
BRANCH   6   7
ATOM      7  C   UNL     1      34.809 -19.258 -21.732  0.00  0.00    +0.055 C 
BRANCH   7   8
ATOM      8  C   UNL     1      34.211 -20.130 -20.651  0.00  0.00    -0.041 C 
ATOM      9  C   UNL     1      35.153 -21.017 -19.887  0.00  0.00    +0.026 C 
ATOM     10  C   UNL     1      32.891 -20.140 -20.408  0.00  0.00    -0.009 C 
ENDBRANCH   7   8
ENDBRANCH   6   7
ENDBRANCH   5   6
ENDBRANCH   1   5
BRANCH   1  11
ATOM     11  O   UNL     1      34.284 -14.384 -22.536  0.00  0.00    -0.186 OA
BRANCH  11  12
ATOM     12  P   UNL     1      33.383 -13.685 -23.682  0.00  0.00    +0.481 P 
ATOM     13  O   UNL     1      33.189 -14.513 -24.917  0.00  0.00    -0.227 OA
BRANCH  12  14
ATOM     14  O   UNL     1      34.121 -12.265 -23.912  0.00  0.00    -0.302 OA
ATOM     15  H   UNL     1      33.486 -11.624 -24.268  0.00  0.00    +0.222 HD
ENDBRANCH  12  14
BRANCH  12  16
ATOM     16  O   UNL     1      32.028 -13.284 -22.898  0.00  0.00    -0.302 OA
ATOM     17  H   UNL     1      32.203 -12.532 -22.312  0.00  0.00    +0.222 HD
ENDBRANCH  12  16
ENDBRANCH  11  12
ENDBRANCH   1  11
TORSDOF 9
ENDMDL
