MODEL 1
REMARK VINA RESULT:     -10.2      0.000      0.000
REMARK  Name = 1514
REMARK  4 active torsions:
REMARK  status: ('A' for Active; 'I' for Inactive)
REMARK    1  A    between atoms: N_5  and  C_12
REMARK    2  A    between atoms: C_11  and  S_20
REMARK    3  A    between atoms: C_15  and  O_18
REMARK    4  A    between atoms: S_20  and  N_23
REMARK                            x       y       z     vdW  Elec       q    Type
REMARK                         _______ _______ _______ _____ _____    ______ ____
ROOT
ATOM      1  S   UNL     1      32.414 -24.076 -13.893  0.00  0.00    +0.086 S 
ATOM      2  S   UNL     1      35.013 -24.093 -12.411  0.00  0.00    -0.047 S 
ATOM      3  O   UNL     1      32.223 -25.512 -13.879  0.00  0.00    -0.149 OA
ATOM      4  O   UNL     1      31.889 -23.218 -12.849  0.00  0.00    -0.149 OA
ATOM      5  N   UNL     1      32.007 -23.438 -15.428  0.00  0.00    -0.167 N 
ATOM      6  C   UNL     1      34.149 -23.861 -13.841  0.00  0.00    +0.156 C 
ATOM      7  C   UNL     1      34.931 -23.525 -14.910  0.00  0.00    +0.028 C 
ATOM      8  C   UNL     1      33.008 -23.316 -16.458  0.00  0.00    +0.089 C 
ATOM      9  C   UNL     1      34.326 -23.325 -16.187  0.00  0.00    +0.020 C 
ATOM     10  C   UNL     1      36.303 -23.446 -14.552  0.00  0.00    +0.028 C 
ATOM     11  C   UNL     1      36.491 -23.727 -13.212  0.00  0.00    +0.152 C 
ENDROOT
BRANCH   5  12
ATOM     12  C   UNL     1      30.645 -23.610 -15.856  0.00  0.00    +0.077 C 
ATOM     13  C   UNL     1      29.888 -22.503 -16.244  0.00  0.00    +0.053 C 
ATOM     14  C   UNL     1      30.075 -24.885 -15.884  0.00  0.00    +0.017 C 
ATOM     15  C   UNL     1      28.565 -22.669 -16.658  0.00  0.00    +0.140 C 
ATOM     16  C   UNL     1      28.753 -25.051 -16.298  0.00  0.00    +0.004 C 
ATOM     17  C   UNL     1      27.998 -23.944 -16.685  0.00  0.00    +0.037 C 
BRANCH  15  18
ATOM     18  O   UNL     1      27.829 -21.589 -17.035  0.00  0.00    -0.471 OA
ATOM     19  C   UNL     1      26.411 -21.703 -16.935  0.00  0.00    +0.252 C 
ENDBRANCH  15  18
ENDBRANCH   5  12
BRANCH  11  20
ATOM     20  S   UNL     1      37.916 -23.789 -12.185  0.00  0.00    +0.063 S 
ATOM     21  O   UNL     1      38.271 -22.401 -11.910  0.00  0.00    -0.153 OA
ATOM     22  O   UNL     1      37.560 -24.692 -11.098  0.00  0.00    -0.153 OA
BRANCH  20  23
ATOM     23  N   UNL     1      39.205 -24.494 -13.074  0.00  0.00    -0.203 NA
ATOM     24  H   UNL     1      38.905 -24.658 -14.035  0.00  0.00    +0.144 HD
ATOM     25  H   UNL     1      39.469 -25.380 -12.645  0.00  0.00    +0.144 HD
ENDBRANCH  20  23
ENDBRANCH  11  20
TORSDOF 4
ENDMDL
MODEL 2
REMARK VINA RESULT:      -9.9      9.771     11.807
REMARK  Name = 1514
REMARK  4 active torsions:
REMARK  status: ('A' for Active; 'I' for Inactive)
REMARK    1  A    between atoms: N_5  and  C_12
REMARK    2  A    between atoms: C_11  and  S_20
REMARK    3  A    between atoms: C_15  and  O_18
REMARK    4  A    between atoms: S_20  and  N_23
REMARK                            x       y       z     vdW  Elec       q    Type
REMARK                         _______ _______ _______ _____ _____    ______ ____
ROOT
ATOM      1  S   UNL     1      34.083 -16.839 -21.140  0.00  0.00    +0.086 S 
ATOM      2  S   UNL     1      33.519 -14.132 -22.283  0.00  0.00    -0.047 S 
ATOM      3  O   UNL     1      35.224 -16.432 -20.345  0.00  0.00    -0.149 OA
ATOM      4  O   UNL     1      32.734 -16.835 -20.611  0.00  0.00    -0.149 OA
ATOM      5  N   UNL     1      34.400 -18.333 -21.912  0.00  0.00    -0.167 N 
ATOM      6  C   UNL     1      34.059 -15.718 -22.482  0.00  0.00    +0.156 C 
ATOM      7  C   UNL     1      34.479 -16.002 -23.752  0.00  0.00    +0.028 C 
ATOM      8  C   UNL     1      34.995 -18.368 -23.224  0.00  0.00    +0.089 C 
ATOM      9  C   UNL     1      34.985 -17.304 -24.048  0.00  0.00    +0.020 C 
ATOM     10  C   UNL     1      34.353 -14.879 -24.610  0.00  0.00    +0.028 C 
ATOM     11  C   UNL     1      33.835 -13.787 -23.939  0.00  0.00    +0.152 C 
ENDROOT
BRANCH   5  12
ATOM     12  C   UNL     1      34.644 -19.462 -21.054  0.00  0.00    +0.077 C 
ATOM     13  C   UNL     1      33.572 -20.174 -20.512  0.00  0.00    +0.053 C 
ATOM     14  C   UNL     1      35.953 -19.848 -20.758  0.00  0.00    +0.017 C 
ATOM     15  C   UNL     1      33.808 -21.268 -19.678  0.00  0.00    +0.140 C 
ATOM     16  C   UNL     1      36.189 -20.942 -19.925  0.00  0.00    +0.004 C 
ATOM     17  C   UNL     1      35.116 -21.652 -19.385  0.00  0.00    +0.037 C 
BRANCH  15  18
ATOM     18  O   UNL     1      32.761 -21.960 -19.151  0.00  0.00    -0.471 OA
ATOM     19  C   UNL     1      33.025 -22.755 -17.996  0.00  0.00    +0.252 C 
ENDBRANCH  15  18
ENDBRANCH   5  12
BRANCH  11  20
ATOM     20  S   UNL     1      33.445 -12.146 -24.433  0.00  0.00    +0.063 S 
ATOM     21  O   UNL     1      33.210 -12.207 -25.871  0.00  0.00    -0.153 OA
ATOM     22  O   UNL     1      32.388 -11.719 -23.526  0.00  0.00    -0.153 OA
BRANCH  20  23
ATOM     23  N   UNL     1      34.820 -11.151 -24.168  0.00  0.00    -0.203 NA
ATOM     24  H   UNL     1      34.527 -10.275 -23.736  0.00  0.00    +0.144 HD
ATOM     25  H   UNL     1      35.274 -10.955 -25.060  0.00  0.00    +0.144 HD
ENDBRANCH  20  23
ENDBRANCH  11  20
TORSDOF 4
ENDMDL
MODEL 3
REMARK VINA RESULT:      -9.7     10.127     12.178
REMARK  Name = 1514
REMARK  4 active torsions:
REMARK  status: ('A' for Active; 'I' for Inactive)
REMARK    1  A    between atoms: N_5  and  C_12
REMARK    2  A    between atoms: C_11  and  S_20
REMARK    3  A    between atoms: C_15  and  O_18
REMARK    4  A    between atoms: S_20  and  N_23
REMARK                            x       y       z     vdW  Elec       q    Type
REMARK                         _______ _______ _______ _____ _____    ______ ____
ROOT
ATOM      1  S   UNL     1      33.766 -16.433 -21.186  0.00  0.00    +0.086 S 
ATOM      2  S   UNL     1      33.464 -13.650 -22.245  0.00  0.00    -0.047 S 
ATOM      3  O   UNL     1      34.903 -16.147 -20.335  0.00  0.00    -0.149 OA
ATOM      4  O   UNL     1      32.401 -16.338 -20.707  0.00  0.00    -0.149 OA
ATOM      5  N   UNL     1      33.994 -17.920 -22.002  0.00  0.00    -0.167 N 
ATOM      6  C   UNL     1      33.884 -15.267 -22.484  0.00  0.00    +0.156 C 
ATOM      7  C   UNL     1      34.329 -15.539 -23.748  0.00  0.00    +0.028 C 
ATOM      8  C   UNL     1      34.635 -17.955 -23.292  0.00  0.00    +0.089 C 
ATOM      9  C   UNL     1      34.742 -16.866 -24.075  0.00  0.00    +0.020 C 
ATOM     10  C   UNL     1      34.326 -14.380 -24.567  0.00  0.00    +0.028 C 
ATOM     11  C   UNL     1      33.870 -13.274 -23.873  0.00  0.00    +0.152 C 
ENDROOT
BRANCH   5  12
ATOM     12  C   UNL     1      34.113 -19.094 -21.180  0.00  0.00    +0.077 C 
ATOM     13  C   UNL     1      35.374 -19.553 -20.793  0.00  0.00    +0.053 C 
ATOM     14  C   UNL     1      32.968 -19.779 -20.767  0.00  0.00    +0.017 C 
ATOM     15  C   UNL     1      35.490 -20.694 -19.997  0.00  0.00    +0.140 C 
ATOM     16  C   UNL     1      33.084 -20.919 -19.971  0.00  0.00    +0.004 C 
ATOM     17  C   UNL     1      34.345 -21.376 -19.585  0.00  0.00    +0.037 C 
BRANCH  15  18
ATOM     18  O   UNL     1      36.719 -21.139 -19.622  0.00  0.00    -0.471 OA
ATOM     19  C   UNL     1      36.846 -21.658 -18.299  0.00  0.00    +0.252 C 
ENDBRANCH  15  18
ENDBRANCH   5  12
BRANCH  11  20
ATOM     20  S   UNL     1      33.632 -11.590 -24.319  0.00  0.00    +0.063 S 
ATOM     21  O   UNL     1      33.386 -11.588 -25.756  0.00  0.00    -0.153 OA
ATOM     22  O   UNL     1      32.621 -11.094 -23.393  0.00  0.00    -0.153 OA
BRANCH  20  23
ATOM     23  N   UNL     1      35.093 -10.734 -24.035  0.00  0.00    -0.203 NA
ATOM     24  H   UNL     1      35.635 -10.692 -24.897  0.00  0.00    +0.144 HD
ATOM     25  H   UNL     1      35.634 -11.215 -23.316  0.00  0.00    +0.144 HD
ENDBRANCH  20  23
ENDBRANCH  11  20
TORSDOF 4
ENDMDL
MODEL 4
REMARK VINA RESULT:      -9.4      2.428      8.046
REMARK  Name = 1514
REMARK  4 active torsions:
REMARK  status: ('A' for Active; 'I' for Inactive)
REMARK    1  A    between atoms: N_5  and  C_12
REMARK    2  A    between atoms: C_11  and  S_20
REMARK    3  A    between atoms: C_15  and  O_18
REMARK    4  A    between atoms: S_20  and  N_23
REMARK                            x       y       z     vdW  Elec       q    Type
REMARK                         _______ _______ _______ _____ _____    ______ ____
ROOT
ATOM      1  S   UNL     1      32.651 -24.132 -13.630  0.00  0.00    +0.086 S 
ATOM      2  S   UNL     1      29.899 -23.703 -14.722  0.00  0.00    -0.047 S 
ATOM      3  O   UNL     1      32.631 -23.004 -12.721  0.00  0.00    -0.149 OA
ATOM      4  O   UNL     1      32.223 -25.457 -13.225  0.00  0.00    -0.149 OA
ATOM      5  N   UNL     1      34.165 -24.229 -14.423  0.00  0.00    -0.167 N 
ATOM      6  C   UNL     1      31.573 -23.673 -14.928  0.00  0.00    +0.156 C 
ATOM      7  C   UNL     1      31.969 -23.243 -16.163  0.00  0.00    +0.028 C 
ATOM      8  C   UNL     1      34.379 -23.551 -15.676  0.00  0.00    +0.089 C 
ATOM      9  C   UNL     1      33.362 -23.146 -16.459  0.00  0.00    +0.020 C 
ATOM     10  C   UNL     1      30.859 -22.925 -16.989  0.00  0.00    +0.028 C 
ATOM     11  C   UNL     1      29.663 -23.136 -16.329  0.00  0.00    +0.152 C 
ENDROOT
BRANCH   5  12
ATOM     12  C   UNL     1      35.317 -24.437 -13.587  0.00  0.00    +0.077 C 
ATOM     13  C   UNL     1      36.358 -25.261 -14.021  0.00  0.00    +0.053 C 
ATOM     14  C   UNL     1      35.399 -23.818 -12.338  0.00  0.00    +0.017 C 
ATOM     15  C   UNL     1      37.475 -25.465 -13.210  0.00  0.00    +0.140 C 
ATOM     16  C   UNL     1      36.515 -24.021 -11.527  0.00  0.00    +0.004 C 
ATOM     17  C   UNL     1      37.553 -24.845 -11.963  0.00  0.00    +0.037 C 
BRANCH  15  18
ATOM     18  O   UNL     1      38.487 -26.269 -13.635  0.00  0.00    -0.471 OA
ATOM     19  C   UNL     1      39.663 -25.627 -14.126  0.00  0.00    +0.252 C 
ENDBRANCH  15  18
ENDBRANCH   5  12
BRANCH  11  20
ATOM     20  S   UNL     1      27.980 -22.939 -16.797  0.00  0.00    +0.063 S 
ATOM     21  O   UNL     1      27.899 -21.642 -17.458  0.00  0.00    -0.153 OA
ATOM     22  O   UNL     1      27.643 -24.161 -17.518  0.00  0.00    -0.153 OA
BRANCH  20  23
ATOM     23  N   UNL     1      27.019 -22.866 -15.377  0.00  0.00    -0.203 NA
ATOM     24  H   UNL     1      27.583 -22.519 -14.602  0.00  0.00    +0.144 HD
ATOM     25  H   UNL     1      26.672 -23.798 -15.153  0.00  0.00    +0.144 HD
ENDBRANCH  20  23
ENDBRANCH  11  20
TORSDOF 4
ENDMDL
MODEL 5
REMARK VINA RESULT:      -9.3     10.391     12.532
REMARK  Name = 1514
REMARK  4 active torsions:
REMARK  status: ('A' for Active; 'I' for Inactive)
REMARK    1  A    between atoms: N_5  and  C_12
REMARK    2  A    between atoms: C_11  and  S_20
REMARK    3  A    between atoms: C_15  and  O_18
REMARK    4  A    between atoms: S_20  and  N_23
REMARK                            x       y       z     vdW  Elec       q    Type
REMARK                         _______ _______ _______ _____ _____    ______ ____
ROOT
ATOM      1  S   UNL     1      33.479 -15.618 -20.830  0.00  0.00    +0.086 S 
ATOM      2  S   UNL     1      32.422 -12.842 -21.192  0.00  0.00    -0.047 S 
ATOM      3  O   UNL     1      34.547 -15.255 -19.921  0.00  0.00    -0.149 OA
ATOM      4  O   UNL     1      32.161 -15.998 -20.360  0.00  0.00    -0.149 OA
ATOM      5  N   UNL     1      34.037 -16.759 -21.978  0.00  0.00    -0.167 N 
ATOM      6  C   UNL     1      33.228 -14.190 -21.808  0.00  0.00    +0.156 C 
ATOM      7  C   UNL     1      33.663 -14.031 -23.094  0.00  0.00    +0.028 C 
ATOM      8  C   UNL     1      34.599 -16.321 -23.230  0.00  0.00    +0.089 C 
ATOM      9  C   UNL     1      34.384 -15.089 -23.726  0.00  0.00    +0.020 C 
ATOM     10  C   UNL     1      33.322 -12.754 -23.610  0.00  0.00    +0.028 C 
ATOM     11  C   UNL     1      32.635 -12.000 -22.677  0.00  0.00    +0.152 C 
ENDROOT
BRANCH   5  12
ATOM     12  C   UNL     1      34.494 -18.021 -21.461  0.00  0.00    +0.077 C 
ATOM     13  C   UNL     1      33.572 -18.989 -21.060  0.00  0.00    +0.053 C 
ATOM     14  C   UNL     1      35.863 -18.281 -21.356  0.00  0.00    +0.017 C 
ATOM     15  C   UNL     1      34.015 -20.213 -20.556  0.00  0.00    +0.140 C 
ATOM     16  C   UNL     1      36.306 -19.504 -20.852  0.00  0.00    +0.004 C 
ATOM     17  C   UNL     1      35.382 -20.470 -20.453  0.00  0.00    +0.037 C 
BRANCH  15  18
ATOM     18  O   UNL     1      33.114 -21.155 -20.166  0.00  0.00    -0.471 OA
ATOM     19  C   UNL     1      33.504 -22.027 -19.107  0.00  0.00    +0.252 C 
ENDBRANCH  15  18
ENDBRANCH   5  12
BRANCH  11  20
ATOM     20  S   UNL     1      31.952 -10.381 -22.706  0.00  0.00    +0.063 S 
ATOM     21  O   UNL     1      32.544  -9.719 -23.863  0.00  0.00    -0.153 OA
ATOM     22  O   UNL     1      30.510 -10.577 -22.622  0.00  0.00    -0.153 OA
BRANCH  20  23
ATOM     23  N   UNL     1      32.467  -9.541 -21.300  0.00  0.00    -0.203 NA
ATOM     24  H   UNL     1      33.241 -10.045 -20.868  0.00  0.00    +0.144 HD
ATOM     25  H   UNL     1      31.692  -9.477 -20.640  0.00  0.00    +0.144 HD
ENDBRANCH  20  23
ENDBRANCH  11  20
TORSDOF 4
ENDMDL
MODEL 6
REMARK VINA RESULT:      -8.9      2.274      7.819
REMARK  Name = 1514
REMARK  4 active torsions:
REMARK  status: ('A' for Active; 'I' for Inactive)
REMARK    1  A    between atoms: N_5  and  C_12
REMARK    2  A    between atoms: C_11  and  S_20
REMARK    3  A    between atoms: C_15  and  O_18
REMARK    4  A    between atoms: S_20  and  N_23
REMARK                            x       y       z     vdW  Elec       q    Type
REMARK                         _______ _______ _______ _____ _____    ______ ____
ROOT
ATOM      1  S   UNL     1      32.830 -24.300 -14.046  0.00  0.00    +0.086 S 
ATOM      2  S   UNL     1      29.962 -23.892 -14.797  0.00  0.00    -0.047 S 
ATOM      3  O   UNL     1      32.865 -23.276 -13.021  0.00  0.00    -0.149 OA
ATOM      4  O   UNL     1      32.497 -25.678 -13.747  0.00  0.00    -0.149 OA
ATOM      5  N   UNL     1      34.253 -24.238 -14.995  0.00  0.00    -0.167 N 
ATOM      6  C   UNL     1      31.603 -23.759 -15.168  0.00  0.00    +0.156 C 
ATOM      7  C   UNL     1      31.848 -23.182 -16.383  0.00  0.00    +0.028 C 
ATOM      8  C   UNL     1      34.306 -23.423 -16.182  0.00  0.00    +0.089 C 
ATOM      9  C   UNL     1      33.197 -22.987 -16.807  0.00  0.00    +0.020 C 
ATOM     10  C   UNL     1      30.645 -22.834 -17.051  0.00  0.00    +0.028 C 
ATOM     11  C   UNL     1      29.535 -23.171 -16.299  0.00  0.00    +0.152 C 
ENDROOT
BRANCH   5  12
ATOM     12  C   UNL     1      35.494 -24.477 -14.310  0.00  0.00    +0.077 C 
ATOM     13  C   UNL     1      35.587 -24.263 -12.933  0.00  0.00    +0.053 C 
ATOM     14  C   UNL     1      36.613 -24.923 -15.019  0.00  0.00    +0.017 C 
ATOM     15  C   UNL     1      36.793 -24.493 -12.268  0.00  0.00    +0.140 C 
ATOM     16  C   UNL     1      37.817 -25.152 -14.355  0.00  0.00    +0.004 C 
ATOM     17  C   UNL     1      37.907 -24.938 -12.979  0.00  0.00    +0.037 C 
BRANCH  15  18
ATOM     18  O   UNL     1      36.881 -24.283 -10.927  0.00  0.00    -0.471 OA
ATOM     19  C   UNL     1      35.669 -24.356 -10.178  0.00  0.00    +0.252 C 
ENDBRANCH  15  18
ENDBRANCH   5  12
BRANCH  11  20
ATOM     20  S   UNL     1      27.805 -23.008 -16.569  0.00  0.00    +0.063 S 
ATOM     21  O   UNL     1      27.458 -24.021 -17.559  0.00  0.00    -0.153 OA
ATOM     22  O   UNL     1      27.211 -23.038 -15.238  0.00  0.00    -0.153 OA
BRANCH  20  23
ATOM     23  N   UNL     1      27.500 -21.468 -17.264  0.00  0.00    -0.203 NA
ATOM     24  H   UNL     1      27.227 -21.584 -18.239  0.00  0.00    +0.144 HD
ATOM     25  H   UNL     1      28.344 -20.899 -17.213  0.00  0.00    +0.144 HD
ENDBRANCH  20  23
ENDBRANCH  11  20
TORSDOF 4
ENDMDL
MODEL 7
REMARK VINA RESULT:      -8.7      4.663      5.886
REMARK  Name = 1514
REMARK  4 active torsions:
REMARK  status: ('A' for Active; 'I' for Inactive)
REMARK    1  A    between atoms: N_5  and  C_12
REMARK    2  A    between atoms: C_11  and  S_20
REMARK    3  A    between atoms: C_15  and  O_18
REMARK    4  A    between atoms: S_20  and  N_23
REMARK                            x       y       z     vdW  Elec       q    Type
REMARK                         _______ _______ _______ _____ _____    ______ ____
ROOT
ATOM      1  S   UNL     1      36.397 -21.968 -17.545  0.00  0.00    +0.086 S 
ATOM      2  S   UNL     1      37.735 -23.471 -15.331  0.00  0.00    -0.047 S 
ATOM      3  O   UNL     1      36.435 -20.675 -16.894  0.00  0.00    -0.149 OA
ATOM      4  O   UNL     1      37.460 -22.423 -18.420  0.00  0.00    -0.149 OA
ATOM      5  N   UNL     1      34.880 -22.208 -18.301  0.00  0.00    -0.167 N 
ATOM      6  C   UNL     1      36.352 -23.122 -16.232  0.00  0.00    +0.156 C 
ATOM      7  C   UNL     1      35.239 -23.798 -15.817  0.00  0.00    +0.028 C 
ATOM      8  C   UNL     1      33.797 -22.831 -17.584  0.00  0.00    +0.089 C 
ATOM      9  C   UNL     1      33.995 -23.573 -16.480  0.00  0.00    +0.020 C 
ATOM     10  C   UNL     1      35.521 -24.647 -14.715  0.00  0.00    +0.028 C 
ATOM     11  C   UNL     1      36.851 -24.571 -14.348  0.00  0.00    +0.152 C 
ENDROOT
BRANCH   5  12
ATOM     12  C   UNL     1      34.529 -21.285 -19.346  0.00  0.00    +0.077 C 
ATOM     13  C   UNL     1      35.527 -20.600 -20.042  0.00  0.00    +0.053 C 
ATOM     14  C   UNL     1      33.186 -21.068 -19.667  0.00  0.00    +0.017 C 
ATOM     15  C   UNL     1      35.186 -19.702 -21.054  0.00  0.00    +0.140 C 
ATOM     16  C   UNL     1      32.845 -20.171 -20.680  0.00  0.00    +0.004 C 
ATOM     17  C   UNL     1      33.845 -19.488 -21.373  0.00  0.00    +0.037 C 
BRANCH  15  18
ATOM     18  O   UNL     1      36.161 -19.037 -21.730  0.00  0.00    -0.471 OA
ATOM     19  C   UNL     1      35.764 -18.309 -22.891  0.00  0.00    +0.252 C 
ENDBRANCH  15  18
ENDBRANCH   5  12
BRANCH  11  20
ATOM     20  S   UNL     1      37.799 -25.361 -13.095  0.00  0.00    +0.063 S 
ATOM     21  O   UNL     1      38.504 -26.453 -13.756  0.00  0.00    -0.153 OA
ATOM     22  O   UNL     1      38.540 -24.285 -12.448  0.00  0.00    -0.153 OA
BRANCH  20  23
ATOM     23  N   UNL     1      36.727 -26.048 -11.945  0.00  0.00    -0.203 NA
ATOM     24  H   UNL     1      36.905 -27.049 -11.869  0.00  0.00    +0.144 HD
ATOM     25  H   UNL     1      35.764 -25.896 -12.245  0.00  0.00    +0.144 HD
ENDBRANCH  20  23
ENDBRANCH  11  20
TORSDOF 4
ENDMDL
MODEL 8
REMARK VINA RESULT:      -8.2     15.052     16.631
REMARK  Name = 1514
REMARK  4 active torsions:
REMARK  status: ('A' for Active; 'I' for Inactive)
REMARK    1  A    between atoms: N_5  and  C_12
REMARK    2  A    between atoms: C_11  and  S_20
REMARK    3  A    between atoms: C_15  and  O_18
REMARK    4  A    between atoms: S_20  and  N_23
REMARK                            x       y       z     vdW  Elec       q    Type
REMARK                         _______ _______ _______ _____ _____    ______ ____
ROOT
ATOM      1  S   UNL     1      31.840 -10.283 -22.169  0.00  0.00    +0.086 S 
ATOM      2  S   UNL     1      32.450 -13.203 -22.397  0.00  0.00    -0.047 S 
ATOM      3  O   UNL     1      30.525 -10.356 -22.772  0.00  0.00    -0.149 OA
ATOM      4  O   UNL     1      32.041 -10.410 -20.739  0.00  0.00    -0.149 OA
ATOM      5  N   UNL     1      32.687  -8.916 -22.754  0.00  0.00    -0.167 N 
ATOM      6  C   UNL     1      32.727 -11.611 -22.881  0.00  0.00    +0.156 C 
ATOM      7  C   UNL     1      33.665 -11.490 -23.869  0.00  0.00    +0.028 C 
ATOM      8  C   UNL     1      33.519  -9.017 -23.926  0.00  0.00    +0.089 C 
ATOM      9  C   UNL     1      33.974 -10.197 -24.387  0.00  0.00    +0.020 C 
ATOM     10  C   UNL     1      34.191 -12.752 -24.250  0.00  0.00    +0.028 C 
ATOM     11  C   UNL     1      33.619 -13.778 -23.521  0.00  0.00    +0.152 C 
ENDROOT
BRANCH   5  12
ATOM     12  C   UNL     1      32.106  -7.630 -22.474  0.00  0.00    +0.077 C 
ATOM     13  C   UNL     1      31.606  -6.845 -23.515  0.00  0.00    +0.053 C 
ATOM     14  C   UNL     1      32.042  -7.161 -21.160  0.00  0.00    +0.017 C 
ATOM     15  C   UNL     1      31.045  -5.596 -23.244  0.00  0.00    +0.140 C 
ATOM     16  C   UNL     1      31.480  -5.913 -20.889  0.00  0.00    +0.004 C 
ATOM     17  C   UNL     1      30.981  -5.131 -21.930  0.00  0.00    +0.037 C 
BRANCH  15  18
ATOM     18  O   UNL     1      30.559  -4.834 -24.260  0.00  0.00    -0.471 OA
ATOM     19  C   UNL     1      31.269  -3.636 -24.570  0.00  0.00    +0.252 C 
ENDBRANCH  15  18
ENDBRANCH   5  12
BRANCH  11  20
ATOM     20  S   UNL     1      33.844 -15.521 -23.518  0.00  0.00    +0.063 S 
ATOM     21  O   UNL     1      33.180 -16.008 -22.314  0.00  0.00    -0.153 OA
ATOM     22  O   UNL     1      33.404 -15.961 -24.836  0.00  0.00    -0.153 OA
BRANCH  20  23
ATOM     23  N   UNL     1      35.520 -15.860 -23.366  0.00  0.00    -0.203 NA
ATOM     24  H   UNL     1      36.012 -15.520 -24.192  0.00  0.00    +0.144 HD
ATOM     25  H   UNL     1      35.657 -16.866 -23.279  0.00  0.00    +0.144 HD
ENDBRANCH  20  23
ENDBRANCH  11  20
TORSDOF 4
ENDMDL
MODEL 9
REMARK VINA RESULT:      -8.2      2.209      2.513
REMARK  Name = 1514
REMARK  4 active torsions:
REMARK  status: ('A' for Active; 'I' for Inactive)
REMARK    1  A    between atoms: N_5  and  C_12
REMARK    2  A    between atoms: C_11  and  S_20
REMARK    3  A    between atoms: C_15  and  O_18
REMARK    4  A    between atoms: S_20  and  N_23
REMARK                            x       y       z     vdW  Elec       q    Type
REMARK                         _______ _______ _______ _____ _____    ______ ____
ROOT
ATOM      1  S   UNL     1      34.352 -24.668 -14.127  0.00  0.00    +0.086 S 
ATOM      2  S   UNL     1      37.217 -25.462 -13.787  0.00  0.00    -0.047 S 
ATOM      3  O   UNL     1      33.925 -25.907 -14.745  0.00  0.00    -0.149 OA
ATOM      4  O   UNL     1      34.297 -24.464 -12.693  0.00  0.00    -0.149 OA
ATOM      5  N   UNL     1      33.651 -23.330 -14.932  0.00  0.00    -0.167 N 
ATOM      6  C   UNL     1      36.042 -24.523 -14.552  0.00  0.00    +0.156 C 
ATOM      7  C   UNL     1      36.542 -23.692 -15.516  0.00  0.00    +0.028 C 
ATOM      8  C   UNL     1      34.330 -22.705 -16.038  0.00  0.00    +0.089 C 
ATOM      9  C   UNL     1      35.648 -22.862 -16.257  0.00  0.00    +0.020 C 
ATOM     10  C   UNL     1      37.950 -23.818 -15.638  0.00  0.00    +0.028 C 
ATOM     11  C   UNL     1      38.453 -24.748 -14.748  0.00  0.00    +0.152 C 
ENDROOT
BRANCH   5  12
ATOM     12  C   UNL     1      32.215 -23.248 -14.914  0.00  0.00    +0.077 C 
ATOM     13  C   UNL     1      31.518 -22.929 -16.081  0.00  0.00    +0.053 C 
ATOM     14  C   UNL     1      31.514 -23.486 -13.729  0.00  0.00    +0.017 C 
ATOM     15  C   UNL     1      30.124 -22.847 -16.063  0.00  0.00    +0.140 C 
ATOM     16  C   UNL     1      30.122 -23.404 -13.712  0.00  0.00    +0.004 C 
ATOM     17  C   UNL     1      29.427 -23.085 -14.879  0.00  0.00    +0.037 C 
BRANCH  15  18
ATOM     18  O   UNL     1      29.447 -22.536 -17.201  0.00  0.00    -0.471 OA
ATOM     19  C   UNL     1      28.036 -22.748 -17.195  0.00  0.00    +0.252 C 
ENDBRANCH  15  18
ENDBRANCH   5  12
BRANCH  11  20
ATOM     20  S   UNL     1      40.074 -25.338 -14.413  0.00  0.00    +0.063 S 
ATOM     21  O   UNL     1      40.887 -24.153 -14.164  0.00  0.00    -0.153 OA
ATOM     22  O   UNL     1      39.902 -26.350 -13.378  0.00  0.00    -0.153 OA
BRANCH  20  23
ATOM     23  N   UNL     1      40.683 -26.104 -15.824  0.00  0.00    -0.203 NA
ATOM     24  H   UNL     1      41.664 -26.345 -15.684  0.00  0.00    +0.144 HD
ATOM     25  H   UNL     1      40.599 -25.470 -16.618  0.00  0.00    +0.144 HD
ENDBRANCH  20  23
ENDBRANCH  11  20
TORSDOF 4
ENDMDL
