MODEL 1
REMARK VINA RESULT:     -11.9      0.000      0.000
REMARK  Name = 5288712
REMARK  5 active torsions:
REMARK  status: ('A' for Active; 'I' for Inactive)
REMARK    1  A    between atoms: C_1  and  N_18
REMARK    2  A    between atoms: C_2  and  S_7
REMARK    3  A    between atoms: S_7  and  N_10
REMARK    4  A    between atoms: N_10  and  C_13
REMARK    5  A    between atoms: N_18  and  C_26
REMARK                            x       y       z     vdW  Elec       q    Type
REMARK                         _______ _______ _______ _____ _____    ______ ____
ROOT
ATOM      1  C   UNL     1      35.417 -19.544 -20.952  0.00  0.00    +0.048 C 
ATOM      2  C   UNL     1      34.351 -21.619 -19.412  0.00  0.00    +0.129 C 
ATOM      3  C   UNL     1      34.033 -19.708 -20.856  0.00  0.00    +0.016 C 
ATOM      4  C   UNL     1      36.266 -20.423 -20.273  0.00  0.00    +0.016 C 
ATOM      5  C   UNL     1      33.501 -20.743 -20.087  0.00  0.00    +0.022 C 
ATOM      6  C   UNL     1      35.734 -21.459 -19.505  0.00  0.00    +0.022 C 
ENDROOT
BRANCH   2   7
ATOM      7  S   UNL     1      33.686 -22.915 -18.450  0.00  0.00    +0.103 S 
ATOM      8  O   UNL     1      33.825 -24.152 -19.212  0.00  0.00    -0.146 OA
ATOM      9  O   UNL     1      32.359 -22.475 -18.036  0.00  0.00    -0.146 OA
BRANCH   7  10
ATOM     10  N   UNL     1      34.679 -22.993 -17.151  0.00  0.00    -0.093 NA
BRANCH  10  13
ATOM     11  N   UNL     1      33.007 -23.637 -15.548  0.00  0.00    -0.369 N 
ATOM     12  N   UNL     1      34.969 -22.698 -14.858  0.00  0.00    -0.369 N 
ATOM     13  C   UNL     1      34.221 -23.114 -15.933  0.00  0.00    +0.212 C 
ATOM     14  H   UNL     1      32.377 -23.971 -16.227  0.00  0.00    +0.159 HD
ATOM     15  H   UNL     1      32.769 -23.676 -14.594  0.00  0.00    +0.159 HD
ATOM     16  H   UNL     1      35.861 -22.305 -15.002  0.00  0.00    +0.159 HD
ATOM     17  H   UNL     1      34.615 -22.794 -13.945  0.00  0.00    +0.159 HD
ENDBRANCH  10  13
ENDBRANCH   7  10
ENDBRANCH   2   7
BRANCH   1  18
ATOM     18  N   UNL     1      35.953 -18.501 -21.726  0.00  0.00    -0.311 N 
ATOM     19  H   UNL     1      36.854 -18.199 -21.468  0.00  0.00    +0.152 HD
BRANCH  18  26
ATOM     20  O   UNL     1      35.039 -16.067 -20.442  0.00  0.00    -0.270 OA
ATOM     21  N   UNL     1      33.989 -14.663 -22.025  0.00  0.00    -0.280 N 
ATOM     22  C   UNL     1      34.200 -15.954 -23.917  0.00  0.00    +0.019 C 
ATOM     23  C   UNL     1      34.803 -16.660 -22.791  0.00  0.00    +0.069 C 
ATOM     24  C   UNL     1      33.722 -14.748 -23.397  0.00  0.00    +0.051 C 
ATOM     25  C   UNL     1      34.656 -15.803 -21.567  0.00  0.00    +0.251 C 
ATOM     26  C   UNL     1      35.396 -17.855 -22.781  0.00  0.00    +0.066 C 
ATOM     27  C   UNL     1      34.045 -16.256 -25.257  0.00  0.00    +0.001 C 
ATOM     28  C   UNL     1      33.080 -13.808 -24.179  0.00  0.00    +0.015 C 
ATOM     29  C   UNL     1      33.398 -15.317 -26.068  0.00  0.00    +0.000 C 
ATOM     30  C   UNL     1      32.920 -14.106 -25.534  0.00  0.00    +0.001 C 
ATOM     31  H   UNL     1      33.740 -13.898 -21.457  0.00  0.00    +0.155 HD
ENDBRANCH  18  26
ENDBRANCH   1  18
TORSDOF 5
ENDMDL
MODEL 2
REMARK VINA RESULT:     -11.8      1.093      1.436
REMARK  Name = 5288712
REMARK  5 active torsions:
REMARK  status: ('A' for Active; 'I' for Inactive)
REMARK    1  A    between atoms: C_1  and  N_18
REMARK    2  A    between atoms: C_2  and  S_7
REMARK    3  A    between atoms: S_7  and  N_10
REMARK    4  A    between atoms: N_10  and  C_13
REMARK    5  A    between atoms: N_18  and  C_26
REMARK                            x       y       z     vdW  Elec       q    Type
REMARK                         _______ _______ _______ _____ _____    ______ ____
ROOT
ATOM      1  C   UNL     1      35.516 -19.475 -20.943  0.00  0.00    +0.048 C 
ATOM      2  C   UNL     1      34.517 -21.574 -19.391  0.00  0.00    +0.129 C 
ATOM      3  C   UNL     1      34.138 -19.687 -20.851  0.00  0.00    +0.016 C 
ATOM      4  C   UNL     1      36.392 -20.318 -20.253  0.00  0.00    +0.016 C 
ATOM      5  C   UNL     1      33.639 -20.734 -20.077  0.00  0.00    +0.022 C 
ATOM      6  C   UNL     1      35.893 -21.366 -19.479  0.00  0.00    +0.022 C 
ENDROOT
BRANCH   2   7
ATOM      7  S   UNL     1      33.893 -22.886 -18.423  0.00  0.00    +0.103 S 
ATOM      8  O   UNL     1      34.706 -22.974 -17.215  0.00  0.00    -0.146 OA
ATOM      9  O   UNL     1      33.803 -24.039 -19.311  0.00  0.00    -0.146 OA
BRANCH   7  10
ATOM     10  N   UNL     1      32.392 -22.388 -18.001  0.00  0.00    -0.093 NA
BRANCH  10  13
ATOM     11  N   UNL     1      32.301 -23.594 -15.924  0.00  0.00    -0.369 N 
ATOM     12  N   UNL     1      30.399 -22.730 -16.844  0.00  0.00    -0.369 N 
ATOM     13  C   UNL     1      31.758 -22.886 -16.972  0.00  0.00    +0.212 C 
ATOM     14  H   UNL     1      33.268 -23.773 -15.899  0.00  0.00    +0.159 HD
ATOM     15  H   UNL     1      31.720 -23.921 -15.200  0.00  0.00    +0.159 HD
ATOM     16  H   UNL     1      29.893 -22.239 -17.532  0.00  0.00    +0.159 HD
ATOM     17  H   UNL     1      29.932 -23.108 -16.065  0.00  0.00    +0.159 HD
ENDBRANCH  10  13
ENDBRANCH   7  10
ENDBRANCH   2   7
BRANCH   1  18
ATOM     18  N   UNL     1      36.019 -18.419 -21.722  0.00  0.00    -0.311 N 
ATOM     19  H   UNL     1      36.910 -18.087 -21.466  0.00  0.00    +0.152 HD
BRANCH  18  26
ATOM     20  O   UNL     1      35.045 -16.000 -20.452  0.00  0.00    -0.270 OA
ATOM     21  N   UNL     1      33.953 -14.637 -22.042  0.00  0.00    -0.280 N 
ATOM     22  C   UNL     1      34.191 -15.936 -23.925  0.00  0.00    +0.019 C 
ATOM     23  C   UNL     1      34.817 -16.617 -22.797  0.00  0.00    +0.069 C 
ATOM     24  C   UNL     1      33.683 -14.739 -23.412  0.00  0.00    +0.051 C 
ATOM     25  C   UNL     1      34.651 -15.756 -21.578  0.00  0.00    +0.251 C 
ATOM     26  C   UNL     1      35.441 -17.796 -22.779  0.00  0.00    +0.066 C 
ATOM     27  C   UNL     1      34.040 -16.252 -25.262  0.00  0.00    +0.001 C 
ATOM     28  C   UNL     1      33.014 -13.823 -24.199  0.00  0.00    +0.015 C 
ATOM     29  C   UNL     1      33.365 -15.336 -26.077  0.00  0.00    +0.000 C 
ATOM     30  C   UNL     1      32.857 -14.134 -25.551  0.00  0.00    +0.001 C 
ATOM     31  H   UNL     1      33.685 -13.875 -21.479  0.00  0.00    +0.155 HD
ENDBRANCH  18  26
ENDBRANCH   1  18
TORSDOF 5
ENDMDL
MODEL 3
REMARK VINA RESULT:     -11.7      1.429      2.060
REMARK  Name = 5288712
REMARK  5 active torsions:
REMARK  status: ('A' for Active; 'I' for Inactive)
REMARK    1  A    between atoms: C_1  and  N_18
REMARK    2  A    between atoms: C_2  and  S_7
REMARK    3  A    between atoms: S_7  and  N_10
REMARK    4  A    between atoms: N_10  and  C_13
REMARK    5  A    between atoms: N_18  and  C_26
REMARK                            x       y       z     vdW  Elec       q    Type
REMARK                         _______ _______ _______ _____ _____    ______ ____
ROOT
ATOM      1  C   UNL     1      35.590 -19.607 -20.894  0.00  0.00    +0.048 C 
ATOM      2  C   UNL     1      34.407 -21.638 -19.381  0.00  0.00    +0.129 C 
ATOM      3  C   UNL     1      36.387 -20.514 -20.192  0.00  0.00    +0.016 C 
ATOM      4  C   UNL     1      34.198 -19.721 -20.836  0.00  0.00    +0.016 C 
ATOM      5  C   UNL     1      35.797 -21.528 -19.437  0.00  0.00    +0.022 C 
ATOM      6  C   UNL     1      33.607 -20.734 -20.081  0.00  0.00    +0.022 C 
ENDROOT
BRANCH   2   7
ATOM      7  S   UNL     1      33.668 -22.907 -18.436  0.00  0.00    +0.103 S 
ATOM      8  O   UNL     1      33.795 -24.152 -19.185  0.00  0.00    -0.146 OA
ATOM      9  O   UNL     1      32.342 -22.422 -18.073  0.00  0.00    -0.146 OA
BRANCH   7  10
ATOM     10  N   UNL     1      34.611 -23.006 -17.102  0.00  0.00    -0.093 NA
BRANCH  10  13
ATOM     11  N   UNL     1      32.887 -23.688 -15.572  0.00  0.00    -0.369 N 
ATOM     12  N   UNL     1      34.805 -22.723 -14.798  0.00  0.00    -0.369 N 
ATOM     13  C   UNL     1      34.107 -23.143 -15.904  0.00  0.00    +0.212 C 
ATOM     14  H   UNL     1      32.290 -24.027 -16.277  0.00  0.00    +0.159 HD
ATOM     15  H   UNL     1      32.612 -23.738 -14.628  0.00  0.00    +0.159 HD
ATOM     16  H   UNL     1      35.695 -22.315 -14.903  0.00  0.00    +0.159 HD
ATOM     17  H   UNL     1      34.417 -22.831 -13.900  0.00  0.00    +0.159 HD
ENDBRANCH  10  13
ENDBRANCH   7  10
ENDBRANCH   2   7
BRANCH   1  18
ATOM     18  N   UNL     1      36.184 -18.586 -21.655  0.00  0.00    -0.311 N 
ATOM     19  H   UNL     1      37.114 -18.747 -21.932  0.00  0.00    +0.152 HD
BRANCH  18  26
ATOM     20  O   UNL     1      35.190 -19.323 -24.277  0.00  0.00    -0.270 OA
ATOM     21  N   UNL     1      34.158 -17.461 -25.303  0.00  0.00    -0.280 N 
ATOM     22  C   UNL     1      34.448 -15.879 -23.659  0.00  0.00    +0.019 C 
ATOM     23  C   UNL     1      35.030 -17.139 -23.212  0.00  0.00    +0.069 C 
ATOM     24  C   UNL     1      33.932 -16.130 -24.934  0.00  0.00    +0.051 C 
ATOM     25  C   UNL     1      34.833 -18.159 -24.296  0.00  0.00    +0.251 C 
ATOM     26  C   UNL     1      35.645 -17.407 -22.059  0.00  0.00    +0.066 C 
ATOM     27  C   UNL     1      34.339 -14.625 -23.089  0.00  0.00    +0.001 C 
ATOM     28  C   UNL     1      33.297 -15.157 -25.680  0.00  0.00    +0.015 C 
ATOM     29  C   UNL     1      33.699 -13.623 -23.827  0.00  0.00    +0.000 C 
ATOM     30  C   UNL     1      33.183 -13.887 -25.110  0.00  0.00    +0.001 C 
ATOM     31  H   UNL     1      33.878 -17.855 -26.161  0.00  0.00    +0.155 HD
ENDBRANCH  18  26
ENDBRANCH   1  18
TORSDOF 5
ENDMDL
MODEL 4
REMARK VINA RESULT:     -10.9      3.685      6.352
REMARK  Name = 5288712
REMARK  5 active torsions:
REMARK  status: ('A' for Active; 'I' for Inactive)
REMARK    1  A    between atoms: C_1  and  N_18
REMARK    2  A    between atoms: C_2  and  S_7
REMARK    3  A    between atoms: S_7  and  N_10
REMARK    4  A    between atoms: N_10  and  C_13
REMARK    5  A    between atoms: N_18  and  C_26
REMARK                            x       y       z     vdW  Elec       q    Type
REMARK                         _______ _______ _______ _____ _____    ______ ____
ROOT
ATOM      1  C   UNL     1      35.192 -23.183 -16.146  0.00  0.00    +0.048 C 
ATOM      2  C   UNL     1      35.907 -23.769 -13.509  0.00  0.00    +0.129 C 
ATOM      3  C   UNL     1      34.276 -23.798 -15.291  0.00  0.00    +0.016 C 
ATOM      4  C   UNL     1      36.469 -22.861 -15.676  0.00  0.00    +0.016 C 
ATOM      5  C   UNL     1      34.632 -24.091 -13.974  0.00  0.00    +0.022 C 
ATOM      6  C   UNL     1      36.826 -23.155 -14.360  0.00  0.00    +0.022 C 
ENDROOT
BRANCH   2   7
ATOM      7  S   UNL     1      36.354 -24.136 -11.861  0.00  0.00    +0.103 S 
ATOM      8  O   UNL     1      35.168 -23.967 -11.029  0.00  0.00    -0.146 OA
ATOM      9  O   UNL     1      37.546 -23.344 -11.578  0.00  0.00    -0.146 OA
BRANCH   7  10
ATOM     10  N   UNL     1      36.738 -25.727 -11.900  0.00  0.00    -0.093 NA
BRANCH  10  13
ATOM     11  N   UNL     1      37.052 -27.142 -13.817  0.00  0.00    -0.369 N 
ATOM     12  N   UNL     1      38.786 -25.908 -12.995  0.00  0.00    -0.369 N 
ATOM     13  C   UNL     1      37.461 -26.244 -12.858  0.00  0.00    +0.212 C 
ATOM     14  H   UNL     1      36.121 -27.463 -13.827  0.00  0.00    +0.159 HD
ATOM     15  H   UNL     1      37.691 -27.464 -14.493  0.00  0.00    +0.159 HD
ATOM     16  H   UNL     1      39.200 -25.271 -12.367  0.00  0.00    +0.159 HD
ATOM     17  H   UNL     1      39.322 -26.303 -13.719  0.00  0.00    +0.159 HD
ENDBRANCH  10  13
ENDBRANCH   7  10
ENDBRANCH   2   7
BRANCH   1  18
ATOM     18  N   UNL     1      34.833 -22.887 -17.472  0.00  0.00    -0.311 N 
ATOM     19  H   UNL     1      34.056 -23.380 -17.823  0.00  0.00    +0.152 HD
BRANCH  18  26
ATOM     20  O   UNL     1      32.520 -22.009 -18.985  0.00  0.00    -0.270 OA
ATOM     21  N   UNL     1      33.175 -20.435 -20.621  0.00  0.00    -0.280 N 
ATOM     22  C   UNL     1      35.437 -20.345 -20.216  0.00  0.00    +0.019 C 
ATOM     23  C   UNL     1      34.826 -21.287 -19.285  0.00  0.00    +0.069 C 
ATOM     24  C   UNL     1      34.390 -19.856 -21.004  0.00  0.00    +0.051 C 
ATOM     25  C   UNL     1      33.351 -21.333 -19.564  0.00  0.00    +0.251 C 
ATOM     26  C   UNL     1      35.413 -22.013 -18.333  0.00  0.00    +0.066 C 
ATOM     27  C   UNL     1      36.734 -19.912 -20.419  0.00  0.00    +0.001 C 
ATOM     28  C   UNL     1      34.591 -18.931 -22.009  0.00  0.00    +0.015 C 
ATOM     29  C   UNL     1      36.959 -18.973 -21.432  0.00  0.00    +0.000 C 
ATOM     30  C   UNL     1      35.898 -18.488 -22.219  0.00  0.00    +0.001 C 
ATOM     31  H   UNL     1      32.307 -20.235 -21.042  0.00  0.00    +0.155 HD
ENDBRANCH  18  26
ENDBRANCH   1  18
TORSDOF 5
ENDMDL
MODEL 5
REMARK VINA RESULT:     -10.8      6.271     10.425
REMARK  Name = 5288712
REMARK  5 active torsions:
REMARK  status: ('A' for Active; 'I' for Inactive)
REMARK    1  A    between atoms: C_1  and  N_18
REMARK    2  A    between atoms: C_2  and  S_7
REMARK    3  A    between atoms: S_7  and  N_10
REMARK    4  A    between atoms: N_10  and  C_13
REMARK    5  A    between atoms: N_18  and  C_26
REMARK                            x       y       z     vdW  Elec       q    Type
REMARK                         _______ _______ _______ _____ _____    ______ ____
ROOT
ATOM      1  C   UNL     1      33.579 -12.244 -23.907  0.00  0.00    +0.048 C 
ATOM      2  C   UNL     1      32.839  -9.648 -23.185  0.00  0.00    +0.129 C 
ATOM      3  C   UNL     1      32.548 -12.038 -22.988  0.00  0.00    +0.016 C 
ATOM      4  C   UNL     1      34.239 -11.145 -24.464  0.00  0.00    +0.016 C 
ATOM      5  C   UNL     1      32.178 -10.742 -22.628  0.00  0.00    +0.022 C 
ATOM      6  C   UNL     1      33.870  -9.849 -24.103  0.00  0.00    +0.022 C 
ENDROOT
BRANCH   2   7
ATOM      7  S   UNL     1      32.378  -8.025 -22.734  0.00  0.00    +0.103 S 
ATOM      8  O   UNL     1      31.353  -7.576 -23.670  0.00  0.00    -0.146 OA
ATOM      9  O   UNL     1      33.619  -7.269 -22.614  0.00  0.00    -0.146 OA
BRANCH   7  10
ATOM     10  N   UNL     1      31.690  -8.205 -21.260  0.00  0.00    -0.093 NA
BRANCH  10  13
ATOM     11  N   UNL     1      33.064  -7.080 -19.640  0.00  0.00    -0.369 N 
ATOM     12  N   UNL     1      32.518  -9.278 -19.365  0.00  0.00    -0.369 N 
ATOM     13  C   UNL     1      32.389  -8.163 -20.157  0.00  0.00    +0.212 C 
ATOM     14  H   UNL     1      33.050  -6.218 -20.115  0.00  0.00    +0.159 HD
ATOM     15  H   UNL     1      33.561  -7.168 -18.795  0.00  0.00    +0.159 HD
ATOM     16  H   UNL     1      32.079 -10.121 -19.627  0.00  0.00    +0.159 HD
ATOM     17  H   UNL     1      33.046  -9.236 -18.536  0.00  0.00    +0.159 HD
ENDBRANCH  10  13
ENDBRANCH   7  10
ENDBRANCH   2   7
BRANCH   1  18
ATOM     18  N   UNL     1      33.951 -13.550 -24.271  0.00  0.00    -0.311 N 
ATOM     19  H   UNL     1      34.006 -13.723 -25.239  0.00  0.00    +0.152 HD
BRANCH  18  26
ATOM     20  O   UNL     1      33.921 -15.718 -26.196  0.00  0.00    -0.270 OA
ATOM     21  N   UNL     1      34.409 -17.763 -25.118  0.00  0.00    -0.280 N 
ATOM     22  C   UNL     1      34.687 -17.026 -22.957  0.00  0.00    +0.019 C 
ATOM     23  C   UNL     1      34.371 -15.885 -23.809  0.00  0.00    +0.069 C 
ATOM     24  C   UNL     1      34.698 -18.141 -23.801  0.00  0.00    +0.051 C 
ATOM     25  C   UNL     1      34.193 -16.384 -25.214  0.00  0.00    +0.251 C 
ATOM     26  C   UNL     1      34.246 -14.602 -23.468  0.00  0.00    +0.066 C 
ATOM     27  C   UNL     1      34.946 -17.162 -21.606  0.00  0.00    +0.001 C 
ATOM     28  C   UNL     1      34.964 -19.415 -23.341  0.00  0.00    +0.015 C 
ATOM     29  C   UNL     1      35.218 -18.445 -21.118  0.00  0.00    +0.000 C 
ATOM     30  C   UNL     1      35.227 -19.560 -21.977  0.00  0.00    +0.001 C 
ATOM     31  H   UNL     1      34.364 -18.387 -25.878  0.00  0.00    +0.155 HD
ENDBRANCH  18  26
ENDBRANCH   1  18
TORSDOF 5
ENDMDL
MODEL 6
REMARK VINA RESULT:     -10.8      2.770      9.544
REMARK  Name = 5288712
REMARK  5 active torsions:
REMARK  status: ('A' for Active; 'I' for Inactive)
REMARK    1  A    between atoms: C_1  and  N_18
REMARK    2  A    between atoms: C_2  and  S_7
REMARK    3  A    between atoms: S_7  and  N_10
REMARK    4  A    between atoms: N_10  and  C_13
REMARK    5  A    between atoms: N_18  and  C_26
REMARK                            x       y       z     vdW  Elec       q    Type
REMARK                         _______ _______ _______ _____ _____    ______ ____
ROOT
ATOM      1  C   UNL     1      34.574 -21.724 -19.352  0.00  0.00    +0.048 C 
ATOM      2  C   UNL     1      35.202 -19.485 -20.902  0.00  0.00    +0.129 C 
ATOM      3  C   UNL     1      35.908 -21.366 -19.561  0.00  0.00    +0.016 C 
ATOM      4  C   UNL     1      33.555 -20.956 -19.923  0.00  0.00    +0.016 C 
ATOM      5  C   UNL     1      36.221 -20.249 -20.335  0.00  0.00    +0.022 C 
ATOM      6  C   UNL     1      33.868 -19.839 -20.697  0.00  0.00    +0.022 C 
ENDROOT
BRANCH   2   7
ATOM      7  S   UNL     1      35.593 -18.086 -21.871  0.00  0.00    +0.103 S 
ATOM      8  O   UNL     1      36.974 -18.227 -22.320  0.00  0.00    -0.146 OA
ATOM      9  O   UNL     1      35.214 -16.923 -21.078  0.00  0.00    -0.146 OA
BRANCH   7  10
ATOM     10  N   UNL     1      34.609 -18.218 -23.173  0.00  0.00    -0.093 NA
BRANCH  10  13
ATOM     11  N   UNL     1      34.208 -17.628 -25.468  0.00  0.00    -0.369 N 
ATOM     12  N   UNL     1      35.366 -16.218 -24.097  0.00  0.00    -0.369 N 
ATOM     13  C   UNL     1      34.708 -17.420 -24.202  0.00  0.00    +0.212 C 
ATOM     14  H   UNL     1      33.715 -18.455 -25.673  0.00  0.00    +0.159 HD
ATOM     15  H   UNL     1      34.346 -16.950 -26.168  0.00  0.00    +0.159 HD
ATOM     16  H   UNL     1      35.769 -15.951 -23.238  0.00  0.00    +0.159 HD
ATOM     17  H   UNL     1      35.434 -15.624 -24.878  0.00  0.00    +0.159 HD
ENDBRANCH  10  13
ENDBRANCH   7  10
ENDBRANCH   2   7
BRANCH   1  18
ATOM     18  N   UNL     1      34.257 -22.850 -18.572  0.00  0.00    -0.311 N 
ATOM     19  H   UNL     1      34.906 -23.589 -18.609  0.00  0.00    +0.152 HD
BRANCH  18  26
ATOM     20  O   UNL     1      35.547 -23.804 -16.157  0.00  0.00    -0.270 OA
ATOM     21  N   UNL     1      33.925 -24.268 -14.504  0.00  0.00    -0.280 N 
ATOM     22  C   UNL     1      32.008 -23.719 -15.650  0.00  0.00    +0.019 C 
ATOM     23  C   UNL     1      33.159 -23.496 -16.518  0.00  0.00    +0.069 C 
ATOM     24  C   UNL     1      32.529 -24.187 -14.440  0.00  0.00    +0.051 C 
ATOM     25  C   UNL     1      34.400 -23.860 -15.754  0.00  0.00    +0.251 C 
ATOM     26  C   UNL     1      33.178 -23.052 -17.775  0.00  0.00    +0.066 C 
ATOM     27  C   UNL     1      30.645 -23.559 -15.816  0.00  0.00    +0.001 C 
ATOM     28  C   UNL     1      31.725 -24.509 -13.364  0.00  0.00    +0.015 C 
ATOM     29  C   UNL     1      29.812 -23.879 -14.739  0.00  0.00    +0.000 C 
ATOM     30  C   UNL     1      30.347 -24.350 -13.525  0.00  0.00    +0.001 C 
ATOM     31  H   UNL     1      34.498 -24.574 -13.763  0.00  0.00    +0.155 HD
ENDBRANCH  18  26
ENDBRANCH   1  18
TORSDOF 5
ENDMDL
MODEL 7
REMARK VINA RESULT:     -10.6      1.635      2.307
REMARK  Name = 5288712
REMARK  5 active torsions:
REMARK  status: ('A' for Active; 'I' for Inactive)
REMARK    1  A    between atoms: C_1  and  N_18
REMARK    2  A    between atoms: C_2  and  S_7
REMARK    3  A    between atoms: S_7  and  N_10
REMARK    4  A    between atoms: N_10  and  C_13
REMARK    5  A    between atoms: N_18  and  C_26
REMARK                            x       y       z     vdW  Elec       q    Type
REMARK                         _______ _______ _______ _____ _____    ______ ____
ROOT
ATOM      1  C   UNL     1      34.236 -19.005 -21.036  0.00  0.00    +0.048 C 
ATOM      2  C   UNL     1      33.961 -21.375 -19.579  0.00  0.00    +0.129 C 
ATOM      3  C   UNL     1      32.968 -19.457 -20.662  0.00  0.00    +0.016 C 
ATOM      4  C   UNL     1      35.367 -19.744 -20.676  0.00  0.00    +0.016 C 
ATOM      5  C   UNL     1      32.831 -20.640 -19.935  0.00  0.00    +0.022 C 
ATOM      6  C   UNL     1      35.230 -20.927 -19.949  0.00  0.00    +0.022 C 
ENDROOT
BRANCH   2   7
ATOM      7  S   UNL     1      33.790 -22.855 -18.669  0.00  0.00    +0.103 S 
ATOM      8  O   UNL     1      34.036 -23.969 -19.579  0.00  0.00    -0.146 OA
ATOM      9  O   UNL     1      32.508 -22.763 -17.981  0.00  0.00    -0.146 OA
BRANCH   7  10
ATOM     10  N   UNL     1      35.012 -22.795 -17.582  0.00  0.00    -0.093 NA
BRANCH  10  13
ATOM     11  N   UNL     1      33.824 -23.842 -15.774  0.00  0.00    -0.369 N 
ATOM     12  N   UNL     1      35.703 -22.615 -15.364  0.00  0.00    -0.369 N 
ATOM     13  C   UNL     1      34.834 -23.082 -16.319  0.00  0.00    +0.212 C 
ATOM     14  H   UNL     1      33.134 -24.235 -16.355  0.00  0.00    +0.159 HD
ATOM     15  H   UNL     1      33.792 -23.991 -14.801  0.00  0.00    +0.159 HD
ATOM     16  H   UNL     1      36.472 -22.057 -15.629  0.00  0.00    +0.159 HD
ATOM     17  H   UNL     1      35.560 -22.837 -14.417  0.00  0.00    +0.159 HD
ENDBRANCH  10  13
ENDBRANCH   7  10
ENDBRANCH   2   7
BRANCH   1  18
ATOM     18  N   UNL     1      34.375 -17.814 -21.767  0.00  0.00    -0.311 N 
ATOM     19  H   UNL     1      34.980 -17.858 -22.543  0.00  0.00    +0.152 HD
BRANCH  18  26
ATOM     20  O   UNL     1      34.999 -16.452 -24.250  0.00  0.00    -0.270 OA
ATOM     21  N   UNL     1      34.102 -14.267 -24.221  0.00  0.00    -0.280 N 
ATOM     22  C   UNL     1      33.116 -14.260 -22.143  0.00  0.00    +0.019 C 
ATOM     23  C   UNL     1      33.745 -15.557 -22.365  0.00  0.00    +0.069 C 
ATOM     24  C   UNL     1      33.362 -13.515 -23.301  0.00  0.00    +0.051 C 
ATOM     25  C   UNL     1      34.383 -15.543 -23.724  0.00  0.00    +0.251 C 
ATOM     26  C   UNL     1      33.785 -16.611 -21.549  0.00  0.00    +0.066 C 
ATOM     27  C   UNL     1      32.401 -13.715 -21.093  0.00  0.00    +0.001 C 
ATOM     28  C   UNL     1      32.912 -12.219 -23.456  0.00  0.00    +0.015 C 
ATOM     29  C   UNL     1      31.935 -12.403 -21.230  0.00  0.00    +0.000 C 
ATOM     30  C   UNL     1      32.189 -11.662 -22.399  0.00  0.00    +0.001 C 
ATOM     31  H   UNL     1      34.387 -13.938 -25.105  0.00  0.00    +0.155 HD
ENDBRANCH  18  26
ENDBRANCH   1  18
TORSDOF 5
ENDMDL
MODEL 8
REMARK VINA RESULT:     -10.3      4.613      7.030
REMARK  Name = 5288712
REMARK  5 active torsions:
REMARK  status: ('A' for Active; 'I' for Inactive)
REMARK    1  A    between atoms: C_1  and  N_18
REMARK    2  A    between atoms: C_2  and  S_7
REMARK    3  A    between atoms: S_7  and  N_10
REMARK    4  A    between atoms: N_10  and  C_13
REMARK    5  A    between atoms: N_18  and  C_26
REMARK                            x       y       z     vdW  Elec       q    Type
REMARK                         _______ _______ _______ _____ _____    ______ ____
ROOT
ATOM      1  C   UNL     1      32.286 -13.795 -21.591  0.00  0.00    +0.048 C 
ATOM      2  C   UNL     1      33.963 -16.030 -21.669  0.00  0.00    +0.129 C 
ATOM      3  C   UNL     1      32.534 -14.528 -20.428  0.00  0.00    +0.016 C 
ATOM      4  C   UNL     1      32.881 -14.186 -22.794  0.00  0.00    +0.016 C 
ATOM      5  C   UNL     1      33.371 -15.643 -20.467  0.00  0.00    +0.022 C 
ATOM      6  C   UNL     1      33.718 -15.301 -22.834  0.00  0.00    +0.022 C 
ENDROOT
BRANCH   2   7
ATOM      7  S   UNL     1      35.011 -17.426 -21.719  0.00  0.00    +0.103 S 
ATOM      8  O   UNL     1      35.724 -17.494 -20.448  0.00  0.00    -0.146 OA
ATOM      9  O   UNL     1      35.769 -17.321 -22.960  0.00  0.00    -0.146 OA
BRANCH   7  10
ATOM     10  N   UNL     1      33.977 -18.693 -21.802  0.00  0.00    -0.093 NA
BRANCH  10  13
ATOM     11  N   UNL     1      35.024 -20.202 -20.251  0.00  0.00    -0.369 N 
ATOM     12  N   UNL     1      32.752 -20.147 -20.456  0.00  0.00    -0.369 N 
ATOM     13  C   UNL     1      33.948 -19.626 -20.888  0.00  0.00    +0.212 C 
ATOM     14  H   UNL     1      35.939 -19.915 -20.473  0.00  0.00    +0.159 HD
ATOM     15  H   UNL     1      34.878 -20.902 -19.575  0.00  0.00    +0.159 HD
ATOM     16  H   UNL     1      31.905 -19.816 -20.835  0.00  0.00    +0.159 HD
ATOM     17  H   UNL     1      32.741 -20.849 -19.767  0.00  0.00    +0.159 HD
ENDBRANCH  10  13
ENDBRANCH   7  10
ENDBRANCH   2   7
BRANCH   1  18
ATOM     18  N   UNL     1      31.443 -12.671 -21.552  0.00  0.00    -0.311 N 
ATOM     19  H   UNL     1      30.582 -12.800 -21.094  0.00  0.00    +0.152 HD
BRANCH  18  26
ATOM     20  O   UNL     1      31.550 -11.103 -19.116  0.00  0.00    -0.270 OA
ATOM     21  N   UNL     1      31.925  -8.829 -19.635  0.00  0.00    -0.280 N 
ATOM     22  C   UNL     1      32.031  -8.947 -21.929  0.00  0.00    +0.019 C 
ATOM     23  C   UNL     1      31.799 -10.285 -21.396  0.00  0.00    +0.069 C 
ATOM     24  C   UNL     1      32.100  -8.101 -20.818  0.00  0.00    +0.051 C 
ATOM     25  C   UNL     1      31.732 -10.188 -19.899  0.00  0.00    +0.251 C 
ATOM     26  C   UNL     1      31.659 -11.432 -22.061  0.00  0.00    +0.066 C 
ATOM     27  C   UNL     1      32.175  -8.444 -23.208  0.00  0.00    +0.001 C 
ATOM     28  C   UNL     1      32.313  -6.742 -20.935  0.00  0.00    +0.015 C 
ATOM     29  C   UNL     1      32.392  -7.069 -23.350  0.00  0.00    +0.000 C 
ATOM     30  C   UNL     1      32.460  -6.227 -22.225  0.00  0.00    +0.001 C 
ATOM     31  H   UNL     1      31.937  -8.433 -18.732  0.00  0.00    +0.155 HD
ENDBRANCH  18  26
ENDBRANCH   1  18
TORSDOF 5
ENDMDL
MODEL 9
REMARK VINA RESULT:     -10.2      4.011      6.144
REMARK  Name = 5288712
REMARK  5 active torsions:
REMARK  status: ('A' for Active; 'I' for Inactive)
REMARK    1  A    between atoms: C_1  and  N_18
REMARK    2  A    between atoms: C_2  and  S_7
REMARK    3  A    between atoms: S_7  and  N_10
REMARK    4  A    between atoms: N_10  and  C_13
REMARK    5  A    between atoms: N_18  and  C_26
REMARK                            x       y       z     vdW  Elec       q    Type
REMARK                         _______ _______ _______ _____ _____    ______ ____
ROOT
ATOM      1  C   UNL     1      33.013 -14.529 -22.674  0.00  0.00    +0.048 C 
ATOM      2  C   UNL     1      34.170 -16.975 -21.973  0.00  0.00    +0.129 C 
ATOM      3  C   UNL     1      33.876 -15.177 -23.560  0.00  0.00    +0.016 C 
ATOM      4  C   UNL     1      32.730 -15.111 -21.434  0.00  0.00    +0.016 C 
ATOM      5  C   UNL     1      34.454 -16.398 -23.210  0.00  0.00    +0.022 C 
ATOM      6  C   UNL     1      33.308 -16.331 -21.084  0.00  0.00    +0.022 C 
ENDROOT
BRANCH   2   7
ATOM      7  S   UNL     1      34.893 -18.502 -21.534  0.00  0.00    +0.103 S 
ATOM      8  O   UNL     1      35.892 -18.243 -20.504  0.00  0.00    -0.146 OA
ATOM      9  O   UNL     1      35.301 -19.132 -22.785  0.00  0.00    -0.146 OA
BRANCH   7  10
ATOM     10  N   UNL     1      33.661 -19.345 -20.862  0.00  0.00    -0.093 NA
BRANCH  10  13
ATOM     11  N   UNL     1      35.046 -21.131 -20.045  0.00  0.00    -0.369 N 
ATOM     12  N   UNL     1      32.818 -21.079 -19.555  0.00  0.00    -0.369 N 
ATOM     13  C   UNL     1      33.858 -20.454 -20.199  0.00  0.00    +0.212 C 
ATOM     14  H   UNL     1      35.869 -20.785 -20.460  0.00  0.00    +0.159 HD
ATOM     15  H   UNL     1      35.073 -21.963 -19.520  0.00  0.00    +0.159 HD
ATOM     16  H   UNL     1      31.913 -20.691 -19.590  0.00  0.00    +0.159 HD
ATOM     17  H   UNL     1      32.977 -21.914 -19.059  0.00  0.00    +0.159 HD
ENDBRANCH  10  13
ENDBRANCH   7  10
ENDBRANCH   2   7
BRANCH   1  18
ATOM     18  N   UNL     1      32.430 -13.300 -23.026  0.00  0.00    -0.311 N 
ATOM     19  H   UNL     1      31.446 -13.279 -23.025  0.00  0.00    +0.152 HD
BRANCH  18  26
ATOM     20  O   UNL     1      30.768 -11.386 -21.617  0.00  0.00    -0.270 OA
ATOM     21  N   UNL     1      31.564  -9.194 -21.992  0.00  0.00    -0.280 N 
ATOM     22  C   UNL     1      33.360  -9.641 -23.358  0.00  0.00    +0.019 C 
ATOM     23  C   UNL     1      32.711 -10.898 -23.000  0.00  0.00    +0.069 C 
ATOM     24  C   UNL     1      32.624  -8.639 -22.718  0.00  0.00    +0.051 C 
ATOM     25  C   UNL     1      31.543 -10.587 -22.110  0.00  0.00    +0.251 C 
ATOM     26  C   UNL     1      33.043 -12.138 -23.365  0.00  0.00    +0.066 C 
ATOM     27  C   UNL     1      34.457  -9.324 -24.136  0.00  0.00    +0.001 C 
ATOM     28  C   UNL     1      32.947  -7.301 -22.828  0.00  0.00    +0.015 C 
ATOM     29  C   UNL     1      34.802  -7.974 -24.260  0.00  0.00    +0.000 C 
ATOM     30  C   UNL     1      34.054  -6.972 -23.613  0.00  0.00    +0.001 C 
ATOM     31  H   UNL     1      30.917  -8.670 -21.465  0.00  0.00    +0.155 HD
ENDBRANCH  18  26
ENDBRANCH   1  18
TORSDOF 5
ENDMDL
