MODEL 1
REMARK VINA RESULT:      -7.8      0.000      0.000
REMARK  Name = 6420119
REMARK  6 active torsions:
REMARK  status: ('A' for Active; 'I' for Inactive)
REMARK    1  A    between atoms: N_2  and  C_7
REMARK    2  A    between atoms: N_3  and  C_13
REMARK    3  A    between atoms: C_13  and  C_14
REMARK    4  A    between atoms: C_14  and  C_15
REMARK    5  A    between atoms: C_15  and  C_17
REMARK    6  A    between atoms: C_17  and  O_18
REMARK                            x       y       z     vdW  Elec       q    Type
REMARK                         _______ _______ _______ _____ _____    ______ ____
ROOT
ATOM      1  O   UNL     1      34.579 -24.065 -12.316  0.00  0.00    -0.253 OA
ATOM      2  N   UNL     1      33.302 -24.421 -14.222  0.00  0.00    -0.291 N 
ATOM      3  N   UNL     1      35.463 -25.199 -14.137  0.00  0.00    -0.289 N 
ATOM      4  C   UNL     1      34.458 -24.519 -13.453  0.00  0.00    +0.301 C 
ATOM      5  H   UNL     1      33.303 -24.818 -15.122  0.00  0.00    +0.151 HD
ATOM      6  H   UNL     1      35.274 -25.528 -15.045  0.00  0.00    +0.151 HD
ENDROOT
BRANCH   2   7
ATOM      7  C   UNL     1      32.098 -23.764 -13.760  0.00  0.00    +0.073 C 
ATOM      8  C   UNL     1      31.650 -22.681 -14.746  0.00  0.00    +0.020 C 
ATOM      9  C   UNL     1      30.980 -24.780 -13.503  0.00  0.00    +0.020 C 
ATOM     10  C   UNL     1      31.079 -23.266 -16.038  0.00  0.00    +0.002 C 
ATOM     11  C   UNL     1      30.410 -25.362 -14.796  0.00  0.00    +0.002 C 
ATOM     12  C   UNL     1      29.961 -24.265 -15.757  0.00  0.00    +0.000 C 
ENDBRANCH   2   7
BRANCH   3  13
ATOM     13  C   UNL     1      36.769 -25.442 -13.571  0.00  0.00    +0.091 C 
BRANCH  13  14
ATOM     14  C   UNL     1      37.886 -25.391 -14.614  0.00  0.00    +0.033 C 
BRANCH  14  15
ATOM     15  C   UNL     1      39.279 -25.158 -14.025  0.00  0.00    +0.111 C 
BRANCH  15  17
ATOM     16  O   UNL     1      41.182 -26.676 -14.131  0.00  0.00    -0.250 OA
ATOM     17  C   UNL     1      40.358 -25.976 -14.702  0.00  0.00    +0.314 C 
BRANCH  17  18
ATOM     18  O   UNL     1      40.293 -25.862 -16.054  0.00  0.00    -0.480 OA
ATOM     19  H   UNL     1      41.081 -25.814 -16.559  0.00  0.00    +0.295 HD
ENDBRANCH  17  18
ENDBRANCH  15  17
ENDBRANCH  14  15
ENDBRANCH  13  14
ENDBRANCH   3  13
TORSDOF 6
ENDMDL
MODEL 2
REMARK VINA RESULT:      -7.6      2.066      2.330
REMARK  Name = 6420119
REMARK  6 active torsions:
REMARK  status: ('A' for Active; 'I' for Inactive)
REMARK    1  A    between atoms: N_2  and  C_7
REMARK    2  A    between atoms: N_3  and  C_13
REMARK    3  A    between atoms: C_13  and  C_14
REMARK    4  A    between atoms: C_14  and  C_15
REMARK    5  A    between atoms: C_15  and  C_17
REMARK    6  A    between atoms: C_17  and  O_18
REMARK                            x       y       z     vdW  Elec       q    Type
REMARK                         _______ _______ _______ _____ _____    ______ ____
ROOT
ATOM      1  O   UNL     1      34.928 -23.614 -13.293  0.00  0.00    -0.253 OA
ATOM      2  N   UNL     1      33.195 -24.797 -14.287  0.00  0.00    -0.291 N 
ATOM      3  N   UNL     1      35.373 -25.400 -14.707  0.00  0.00    -0.289 N 
ATOM      4  C   UNL     1      34.534 -24.519 -14.028  0.00  0.00    +0.301 C 
ATOM      5  H   UNL     1      32.980 -25.545 -14.889  0.00  0.00    +0.151 HD
ATOM      6  H   UNL     1      34.966 -26.096 -15.272  0.00  0.00    +0.151 HD
ENDROOT
BRANCH   2   7
ATOM      7  C   UNL     1      32.104 -24.039 -13.713  0.00  0.00    +0.073 C 
ATOM      8  C   UNL     1      31.767 -22.820 -14.576  0.00  0.00    +0.020 C 
ATOM      9  C   UNL     1      30.873 -24.924 -13.494  0.00  0.00    +0.020 C 
ATOM     10  C   UNL     1      31.080 -23.203 -15.887  0.00  0.00    +0.002 C 
ATOM     11  C   UNL     1      30.187 -25.305 -14.806  0.00  0.00    +0.002 C 
ATOM     12  C   UNL     1      29.851 -24.075 -15.643  0.00  0.00    +0.000 C 
ENDBRANCH   2   7
BRANCH   3  13
ATOM     13  C   UNL     1      36.812 -25.337 -14.616  0.00  0.00    +0.091 C 
BRANCH  13  14
ATOM     14  C   UNL     1      37.363 -26.075 -13.396  0.00  0.00    +0.033 C 
BRANCH  14  15
ATOM     15  C   UNL     1      38.521 -25.356 -12.701  0.00  0.00    +0.111 C 
BRANCH  15  17
ATOM     16  O   UNL     1      38.625 -23.118 -11.743  0.00  0.00    -0.250 OA
ATOM     17  C   UNL     1      38.073 -24.206 -11.826  0.00  0.00    +0.314 C 
BRANCH  17  18
ATOM     18  O   UNL     1      36.941 -24.516 -11.140  0.00  0.00    -0.480 OA
ATOM     19  H   UNL     1      36.958 -25.187 -10.486  0.00  0.00    +0.295 HD
ENDBRANCH  17  18
ENDBRANCH  15  17
ENDBRANCH  14  15
ENDBRANCH  13  14
ENDBRANCH   3  13
TORSDOF 6
ENDMDL
MODEL 3
REMARK VINA RESULT:      -7.3      8.595     10.271
REMARK  Name = 6420119
REMARK  6 active torsions:
REMARK  status: ('A' for Active; 'I' for Inactive)
REMARK    1  A    between atoms: N_2  and  C_7
REMARK    2  A    between atoms: N_3  and  C_13
REMARK    3  A    between atoms: C_13  and  C_14
REMARK    4  A    between atoms: C_14  and  C_15
REMARK    5  A    between atoms: C_15  and  C_17
REMARK    6  A    between atoms: C_17  and  O_18
REMARK                            x       y       z     vdW  Elec       q    Type
REMARK                         _______ _______ _______ _____ _____    ______ ____
ROOT
ATOM      1  O   UNL     1      35.953 -18.173 -20.630  0.00  0.00    -0.253 OA
ATOM      2  N   UNL     1      34.155 -17.099 -21.633  0.00  0.00    -0.291 N 
ATOM      3  N   UNL     1      34.007 -19.337 -21.127  0.00  0.00    -0.289 N 
ATOM      4  C   UNL     1      34.810 -18.200 -21.088  0.00  0.00    +0.301 C 
ATOM      5  H   UNL     1      33.239 -17.221 -21.973  0.00  0.00    +0.151 HD
ATOM      6  H   UNL     1      33.104 -19.262 -21.512  0.00  0.00    +0.151 HD
ENDROOT
BRANCH   2   7
ATOM      7  C   UNL     1      34.753 -15.785 -21.722  0.00  0.00    +0.073 C 
ATOM      8  C   UNL     1      34.457 -15.136 -23.077  0.00  0.00    +0.020 C 
ATOM      9  C   UNL     1      34.294 -14.891 -20.565  0.00  0.00    +0.020 C 
ATOM     10  C   UNL     1      32.996 -14.704 -23.212  0.00  0.00    +0.002 C 
ATOM     11  C   UNL     1      32.834 -14.460 -20.703  0.00  0.00    +0.002 C 
ATOM     12  C   UNL     1      32.567 -13.806 -22.055  0.00  0.00    +0.000 C 
ENDBRANCH   2   7
BRANCH   3  13
ATOM     13  C   UNL     1      34.442 -20.619 -20.626  0.00  0.00    +0.091 C 
BRANCH  13  14
ATOM     14  C   UNL     1      33.464 -21.225 -19.619  0.00  0.00    +0.033 C 
BRANCH  14  15
ATOM     15  C   UNL     1      33.777 -22.673 -19.237  0.00  0.00    +0.111 C 
BRANCH  15  17
ATOM     16  O   UNL     1      34.128 -23.517 -16.978  0.00  0.00    -0.250 OA
ATOM     17  C   UNL     1      33.391 -23.014 -17.814  0.00  0.00    +0.314 C 
BRANCH  17  18
ATOM     18  O   UNL     1      32.103 -22.666 -17.553  0.00  0.00    -0.480 OA
ATOM     19  H   UNL     1      31.439 -23.326 -17.511  0.00  0.00    +0.295 HD
ENDBRANCH  17  18
ENDBRANCH  15  17
ENDBRANCH  14  15
ENDBRANCH  13  14
ENDBRANCH   3  13
TORSDOF 6
ENDMDL
MODEL 4
REMARK VINA RESULT:      -7.3      3.305      7.765
REMARK  Name = 6420119
REMARK  6 active torsions:
REMARK  status: ('A' for Active; 'I' for Inactive)
REMARK    1  A    between atoms: N_2  and  C_7
REMARK    2  A    between atoms: N_3  and  C_13
REMARK    3  A    between atoms: C_13  and  C_14
REMARK    4  A    between atoms: C_14  and  C_15
REMARK    5  A    between atoms: C_15  and  C_17
REMARK    6  A    between atoms: C_17  and  O_18
REMARK                            x       y       z     vdW  Elec       q    Type
REMARK                         _______ _______ _______ _____ _____    ______ ____
ROOT
ATOM      1  O   UNL     1      33.294 -23.239 -14.710  0.00  0.00    -0.253 OA
ATOM      2  N   UNL     1      34.536 -25.112 -14.128  0.00  0.00    -0.291 N 
ATOM      3  N   UNL     1      32.252 -25.134 -13.869  0.00  0.00    -0.289 N 
ATOM      4  C   UNL     1      33.356 -24.389 -14.276  0.00  0.00    +0.301 C 
ATOM      5  H   UNL     1      34.481 -26.029 -13.772  0.00  0.00    +0.151 HD
ATOM      6  H   UNL     1      32.398 -26.048 -13.536  0.00  0.00    +0.151 HD
ENDROOT
BRANCH   2   7
ATOM      7  C   UNL     1      35.837 -24.584 -14.473  0.00  0.00    +0.073 C 
ATOM      8  C   UNL     1      36.439 -23.797 -13.305  0.00  0.00    +0.020 C 
ATOM      9  C   UNL     1      36.779 -25.699 -14.938  0.00  0.00    +0.020 C 
ATOM     10  C   UNL     1      36.887 -24.704 -12.158  0.00  0.00    +0.002 C 
ATOM     11  C   UNL     1      37.226 -26.603 -13.789  0.00  0.00    +0.002 C 
ATOM     12  C   UNL     1      37.832 -25.799 -12.643  0.00  0.00    +0.000 C 
ENDBRANCH   2   7
BRANCH   3  13
ATOM     13  C   UNL     1      30.902 -24.623 -13.916  0.00  0.00    +0.091 C 
BRANCH  13  14
ATOM     14  C   UNL     1      30.261 -24.768 -15.297  0.00  0.00    +0.033 C 
BRANCH  14  15
ATOM     15  C   UNL     1      28.844 -24.198 -15.391  0.00  0.00    +0.111 C 
BRANCH  15  17
ATOM     16  O   UNL     1      27.737 -24.126 -17.560  0.00  0.00    -0.250 OA
ATOM     17  C   UNL     1      28.516 -23.634 -16.756  0.00  0.00    +0.314 C 
BRANCH  17  18
ATOM     18  O   UNL     1      29.182 -22.472 -16.986  0.00  0.00    -0.480 OA
ATOM     19  H   UNL     1      29.618 -22.336 -17.804  0.00  0.00    +0.295 HD
ENDBRANCH  17  18
ENDBRANCH  15  17
ENDBRANCH  14  15
ENDBRANCH  13  14
ENDBRANCH   3  13
TORSDOF 6
ENDMDL
MODEL 5
REMARK VINA RESULT:      -7.2      7.133      8.065
REMARK  Name = 6420119
REMARK  6 active torsions:
REMARK  status: ('A' for Active; 'I' for Inactive)
REMARK    1  A    between atoms: N_2  and  C_7
REMARK    2  A    between atoms: N_3  and  C_13
REMARK    3  A    between atoms: C_13  and  C_14
REMARK    4  A    between atoms: C_14  and  C_15
REMARK    5  A    between atoms: C_15  and  C_17
REMARK    6  A    between atoms: C_17  and  O_18
REMARK                            x       y       z     vdW  Elec       q    Type
REMARK                         _______ _______ _______ _____ _____    ______ ____
ROOT
ATOM      1  O   UNL     1      34.250 -21.308 -19.769  0.00  0.00    -0.253 OA
ATOM      2  N   UNL     1      35.334 -19.476 -20.697  0.00  0.00    -0.291 N 
ATOM      3  N   UNL     1      36.431 -20.795 -19.166  0.00  0.00    -0.289 N 
ATOM      4  C   UNL     1      35.246 -20.592 -19.869  0.00  0.00    +0.301 C 
ATOM      5  H   UNL     1      36.177 -18.967 -20.708  0.00  0.00    +0.151 HD
ATOM      6  H   UNL     1      37.177 -20.169 -19.312  0.00  0.00    +0.151 HD
ENDROOT
BRANCH   2   7
ATOM      7  C   UNL     1      34.249 -19.031 -21.543  0.00  0.00    +0.073 C 
ATOM      8  C   UNL     1      33.858 -17.585 -21.221  0.00  0.00    +0.020 C 
ATOM      9  C   UNL     1      34.603 -19.194 -23.025  0.00  0.00    +0.020 C 
ATOM     10  C   UNL     1      34.907 -16.577 -21.689  0.00  0.00    +0.002 C 
ATOM     11  C   UNL     1      35.651 -18.184 -23.491  0.00  0.00    +0.002 C 
ATOM     12  C   UNL     1      35.234 -16.752 -23.169  0.00  0.00    +0.000 C 
ENDBRANCH   2   7
BRANCH   3  13
ATOM     13  C   UNL     1      36.613 -21.882 -18.235  0.00  0.00    +0.091 C 
BRANCH  13  14
ATOM     14  C   UNL     1      37.140 -21.419 -16.877  0.00  0.00    +0.033 C 
BRANCH  14  15
ATOM     15  C   UNL     1      36.644 -22.254 -15.695  0.00  0.00    +0.111 C 
BRANCH  15  17
ATOM     16  O   UNL     1      36.718 -24.677 -15.442  0.00  0.00    -0.250 OA
ATOM     17  C   UNL     1      37.302 -23.614 -15.606  0.00  0.00    +0.314 C 
BRANCH  17  18
ATOM     18  O   UNL     1      38.649 -23.525 -15.758  0.00  0.00    -0.480 OA
ATOM     19  H   UNL     1      39.138 -24.270 -16.049  0.00  0.00    +0.295 HD
ENDBRANCH  17  18
ENDBRANCH  15  17
ENDBRANCH  14  15
ENDBRANCH  13  14
ENDBRANCH   3  13
TORSDOF 6
ENDMDL
MODEL 6
REMARK VINA RESULT:      -7.1     10.103     11.945
REMARK  Name = 6420119
REMARK  6 active torsions:
REMARK  status: ('A' for Active; 'I' for Inactive)
REMARK    1  A    between atoms: N_2  and  C_7
REMARK    2  A    between atoms: N_3  and  C_13
REMARK    3  A    between atoms: C_13  and  C_14
REMARK    4  A    between atoms: C_14  and  C_15
REMARK    5  A    between atoms: C_15  and  C_17
REMARK    6  A    between atoms: C_17  and  O_18
REMARK                            x       y       z     vdW  Elec       q    Type
REMARK                         _______ _______ _______ _____ _____    ______ ____
ROOT
ATOM      1  O   UNL     1      34.308 -17.025 -22.568  0.00  0.00    -0.253 OA
ATOM      2  N   UNL     1      34.871 -18.334 -20.735  0.00  0.00    -0.291 N 
ATOM      3  N   UNL     1      34.801 -16.046 -20.522  0.00  0.00    -0.289 N 
ATOM      4  C   UNL     1      34.631 -17.126 -21.385  0.00  0.00    +0.301 C 
ATOM      5  H   UNL     1      35.124 -18.312 -19.784  0.00  0.00    +0.151 HD
ATOM      6  H   UNL     1      35.060 -16.225 -19.590  0.00  0.00    +0.151 HD
ENDROOT
BRANCH   2   7
ATOM      7  C   UNL     1      34.767 -19.620 -21.390  0.00  0.00    +0.073 C 
ATOM      8  C   UNL     1      35.827 -20.592 -20.865  0.00  0.00    +0.020 C 
ATOM      9  C   UNL     1      33.357 -20.201 -21.243  0.00  0.00    +0.020 C 
ATOM     10  C   UNL     1      35.533 -21.065 -19.441  0.00  0.00    +0.002 C 
ATOM     11  C   UNL     1      33.066 -20.674 -19.819  0.00  0.00    +0.002 C 
ATOM     12  C   UNL     1      34.129 -21.650 -19.322  0.00  0.00    +0.000 C 
ENDBRANCH   2   7
BRANCH   3  13
ATOM     13  C   UNL     1      34.615 -14.676 -20.938  0.00  0.00    +0.091 C 
BRANCH  13  14
ATOM     14  C   UNL     1      33.177 -14.191 -20.754  0.00  0.00    +0.033 C 
BRANCH  14  15
ATOM     15  C   UNL     1      32.356 -14.166 -22.045  0.00  0.00    +0.111 C 
BRANCH  15  17
ATOM     16  O   UNL     1      33.591 -12.590 -23.434  0.00  0.00    -0.250 OA
ATOM     17  C   UNL     1      33.152 -13.717 -23.251  0.00  0.00    +0.314 C 
BRANCH  17  18
ATOM     18  O   UNL     1      33.353 -14.740 -24.123  0.00  0.00    -0.480 OA
ATOM     19  H   UNL     1      33.408 -15.620 -23.807  0.00  0.00    +0.295 HD
ENDBRANCH  17  18
ENDBRANCH  15  17
ENDBRANCH  14  15
ENDBRANCH  13  14
ENDBRANCH   3  13
TORSDOF 6
ENDMDL
MODEL 7
REMARK VINA RESULT:      -7.1     12.599     14.883
REMARK  Name = 6420119
REMARK  6 active torsions:
REMARK  status: ('A' for Active; 'I' for Inactive)
REMARK    1  A    between atoms: N_2  and  C_7
REMARK    2  A    between atoms: N_3  and  C_13
REMARK    3  A    between atoms: C_13  and  C_14
REMARK    4  A    between atoms: C_14  and  C_15
REMARK    5  A    between atoms: C_15  and  C_17
REMARK    6  A    between atoms: C_17  and  O_18
REMARK                            x       y       z     vdW  Elec       q    Type
REMARK                         _______ _______ _______ _____ _____    ______ ____
ROOT
ATOM      1  O   UNL     1      34.365 -13.538 -23.207  0.00  0.00    -0.253 OA
ATOM      2  N   UNL     1      33.917 -15.786 -22.838  0.00  0.00    -0.291 N 
ATOM      3  N   UNL     1      32.417 -14.195 -22.130  0.00  0.00    -0.289 N 
ATOM      4  C   UNL     1      33.634 -14.425 -22.766  0.00  0.00    +0.301 C 
ATOM      5  H   UNL     1      33.268 -16.420 -22.456  0.00  0.00    +0.151 HD
ATOM      6  H   UNL     1      31.900 -14.969 -21.810  0.00  0.00    +0.151 HD
ENDROOT
BRANCH   2   7
ATOM      7  C   UNL     1      35.118 -16.314 -23.448  0.00  0.00    +0.073 C 
ATOM      8  C   UNL     1      35.639 -17.529 -22.675  0.00  0.00    +0.020 C 
ATOM      9  C   UNL     1      34.883 -16.652 -24.924  0.00  0.00    +0.020 C 
ATOM     10  C   UNL     1      34.757 -18.764 -22.862  0.00  0.00    +0.002 C 
ATOM     11  C   UNL     1      34.002 -17.887 -25.108  0.00  0.00    +0.002 C 
ATOM     12  C   UNL     1      34.547 -19.086 -24.339  0.00  0.00    +0.000 C 
ENDBRANCH   2   7
BRANCH   3  13
ATOM     13  C   UNL     1      31.881 -12.871 -21.920  0.00  0.00    +0.091 C 
BRANCH  13  14
ATOM     14  C   UNL     1      32.009 -12.402 -20.471  0.00  0.00    +0.033 C 
BRANCH  14  15
ATOM     15  C   UNL     1      31.164 -11.172 -20.135  0.00  0.00    +0.111 C 
BRANCH  15  17
ATOM     16  O   UNL     1      31.951  -9.186 -21.307  0.00  0.00    -0.250 OA
ATOM     17  C   UNL     1      31.916  -9.868 -20.293  0.00  0.00    +0.314 C 
BRANCH  17  18
ATOM     18  O   UNL     1      32.546  -9.516 -19.142  0.00  0.00    -0.480 OA
ATOM     19  H   UNL     1      32.069  -9.092 -18.456  0.00  0.00    +0.295 HD
ENDBRANCH  17  18
ENDBRANCH  15  17
ENDBRANCH  14  15
ENDBRANCH  13  14
ENDBRANCH   3  13
TORSDOF 6
ENDMDL
MODEL 8
REMARK VINA RESULT:      -7.0      5.314      6.722
REMARK  Name = 6420119
REMARK  6 active torsions:
REMARK  status: ('A' for Active; 'I' for Inactive)
REMARK    1  A    between atoms: N_2  and  C_7
REMARK    2  A    between atoms: N_3  and  C_13
REMARK    3  A    between atoms: C_13  and  C_14
REMARK    4  A    between atoms: C_14  and  C_15
REMARK    5  A    between atoms: C_15  and  C_17
REMARK    6  A    between atoms: C_17  and  O_18
REMARK                            x       y       z     vdW  Elec       q    Type
REMARK                         _______ _______ _______ _____ _____    ______ ____
ROOT
ATOM      1  O   UNL     1      33.762 -23.837 -16.981  0.00  0.00    -0.253 OA
ATOM      2  N   UNL     1      31.601 -22.988 -16.918  0.00  0.00    -0.291 N 
ATOM      3  N   UNL     1      32.989 -22.442 -18.668  0.00  0.00    -0.289 N 
ATOM      4  C   UNL     1      32.866 -23.152 -17.476  0.00  0.00    +0.301 C 
ATOM      5  H   UNL     1      30.951 -22.420 -17.391  0.00  0.00    +0.151 HD
ATOM      6  H   UNL     1      32.217 -21.922 -18.987  0.00  0.00    +0.151 HD
ENDROOT
BRANCH   2   7
ATOM      7  C   UNL     1      31.196 -23.613 -15.678  0.00  0.00    +0.073 C 
ATOM      8  C   UNL     1      30.509 -22.604 -14.753  0.00  0.00    +0.020 C 
ATOM      9  C   UNL     1      30.299 -24.827 -15.940  0.00  0.00    +0.020 C 
ATOM     10  C   UNL     1      29.117 -22.210 -15.246  0.00  0.00    +0.002 C 
ATOM     11  C   UNL     1      28.907 -24.431 -16.433  0.00  0.00    +0.002 C 
ATOM     12  C   UNL     1      28.239 -23.435 -15.489  0.00  0.00    +0.000 C 
ENDBRANCH   2   7
BRANCH   3  13
ATOM     13  C   UNL     1      34.199 -22.437 -19.454  0.00  0.00    +0.091 C 
BRANCH  13  14
ATOM     14  C   UNL     1      34.726 -21.027 -19.723  0.00  0.00    +0.033 C 
BRANCH  14  15
ATOM     15  C   UNL     1      33.815 -20.179 -20.613  0.00  0.00    +0.111 C 
BRANCH  15  17
ATOM     16  O   UNL     1      34.435 -19.061 -22.687  0.00  0.00    -0.250 OA
ATOM     17  C   UNL     1      34.573 -19.197 -21.480  0.00  0.00    +0.314 C 
BRANCH  17  18
ATOM     18  O   UNL     1      35.431 -18.443 -20.743  0.00  0.00    -0.480 OA
ATOM     19  H   UNL     1      35.625 -17.564 -21.003  0.00  0.00    +0.295 HD
ENDBRANCH  17  18
ENDBRANCH  15  17
ENDBRANCH  14  15
ENDBRANCH  13  14
ENDBRANCH   3  13
TORSDOF 6
ENDMDL
MODEL 9
REMARK VINA RESULT:      -6.8      2.788      6.546
REMARK  Name = 6420119
REMARK  6 active torsions:
REMARK  status: ('A' for Active; 'I' for Inactive)
REMARK    1  A    between atoms: N_2  and  C_7
REMARK    2  A    between atoms: N_3  and  C_13
REMARK    3  A    between atoms: C_13  and  C_14
REMARK    4  A    between atoms: C_14  and  C_15
REMARK    5  A    between atoms: C_15  and  C_17
REMARK    6  A    between atoms: C_17  and  O_18
REMARK                            x       y       z     vdW  Elec       q    Type
REMARK                         _______ _______ _______ _____ _____    ______ ____
ROOT
ATOM      1  O   UNL     1      34.188 -23.614 -12.297  0.00  0.00    -0.253 OA
ATOM      2  N   UNL     1      35.370 -25.136 -13.592  0.00  0.00    -0.291 N 
ATOM      3  N   UNL     1      33.179 -24.664 -14.104  0.00  0.00    -0.289 N 
ATOM      4  C   UNL     1      34.241 -24.399 -13.243  0.00  0.00    +0.301 C 
ATOM      5  H   UNL     1      35.314 -25.739 -14.369  0.00  0.00    +0.151 HD
ATOM      6  H   UNL     1      33.316 -25.308 -14.836  0.00  0.00    +0.151 HD
ENDROOT
BRANCH   2   7
ATOM      7  C   UNL     1      36.621 -25.059 -12.870  0.00  0.00    +0.073 C 
ATOM      8  C   UNL     1      37.366 -26.396 -12.914  0.00  0.00    +0.020 C 
ATOM      9  C   UNL     1      37.494 -23.917 -13.400  0.00  0.00    +0.020 C 
ATOM     10  C   UNL     1      37.948 -26.695 -14.296  0.00  0.00    +0.002 C 
ATOM     11  C   UNL     1      38.076 -24.219 -14.781  0.00  0.00    +0.002 C 
ATOM     12  C   UNL     1      38.822 -25.550 -14.798  0.00  0.00    +0.000 C 
ENDBRANCH   2   7
BRANCH   3  13
ATOM     13  C   UNL     1      31.887 -24.034 -13.970  0.00  0.00    +0.091 C 
BRANCH  13  14
ATOM     14  C   UNL     1      31.654 -22.932 -15.003  0.00  0.00    +0.033 C 
BRANCH  14  15
ATOM     15  C   UNL     1      31.576 -23.434 -16.446  0.00  0.00    +0.111 C 
BRANCH  15  17
ATOM     16  O   UNL     1      33.949 -23.636 -16.958  0.00  0.00    -0.250 OA
ATOM     17  C   UNL     1      32.844 -23.190 -17.234  0.00  0.00    +0.314 C 
BRANCH  17  18
ATOM     18  O   UNL     1      32.609 -22.418 -18.327  0.00  0.00    -0.480 OA
ATOM     19  H   UNL     1      33.239 -22.383 -19.020  0.00  0.00    +0.295 HD
ENDBRANCH  17  18
ENDBRANCH  15  17
ENDBRANCH  14  15
ENDBRANCH  13  14
ENDBRANCH   3  13
TORSDOF 6
ENDMDL
