MODEL 1
REMARK VINA RESULT:      -8.3      0.000      0.000
REMARK  Name = 17134
REMARK  5 active torsions:
REMARK  status: ('A' for Active; 'I' for Inactive)
REMARK    1  A    between atoms: S_1  and  C_4
REMARK    2  A    between atoms: S_1  and  N_13
REMARK    3  A    between atoms: C_9  and  N_10
REMARK    4  A    between atoms: C_18  and  O_21
REMARK    5  A    between atoms: C_19  and  O_23
REMARK                            x       y       z     vdW  Elec       q    Type
REMARK                         _______ _______ _______ _____ _____    ______ ____
ROOT
ATOM      1  S   UNL     1      33.176 -13.190 -23.936  0.00  0.00    +0.075 S 
ATOM      2  O   UNL     1      33.091 -13.606 -25.331  0.00  0.00    -0.150 OA
ATOM      3  O   UNL     1      32.025 -13.406 -23.068  0.00  0.00    -0.150 OA
ENDROOT
BRANCH   1   4
ATOM      4  N   UNL     1      34.568 -13.930 -23.241  0.00  0.00    -0.200 N 
ATOM      5  H   UNL     1      35.298 -13.386 -22.866  0.00  0.00    +0.175 HD
ATOM      6  N   UNL     1      34.752 -15.951 -24.430  0.00  0.00    -0.230 NA
ATOM      7  N   UNL     1      34.766 -18.083 -23.307  0.00  0.00    -0.212 NA
ATOM      8  C   UNL     1      34.634 -15.366 -23.224  0.00  0.00    +0.157 C 
ATOM      9  C   UNL     1      34.576 -16.050 -22.033  0.00  0.00    +0.245 C 
ATOM     10  C   UNL     1      34.647 -17.425 -22.136  0.00  0.00    +0.233 C 
ATOM     11  C   UNL     1      34.813 -17.295 -24.400  0.00  0.00    +0.254 C 
BRANCH   9  12
ATOM     12  O   UNL     1      34.456 -15.427 -20.837  0.00  0.00    -0.338 OA
ATOM     13  C   UNL     1      33.133 -15.153 -20.369  0.00  0.00    +0.175 C 
ENDBRANCH   9  12
BRANCH  10  14
ATOM     14  O   UNL     1      34.597 -18.193 -21.003  0.00  0.00    -0.457 OA
ATOM     15  C   UNL     1      33.764 -19.346 -21.048  0.00  0.00    +0.254 C 
ENDBRANCH  10  14
ENDBRANCH   1   4
BRANCH   1  16
ATOM     16  C   UNL     1      33.586 -11.493 -23.910  0.00  0.00    +0.125 C 
ATOM     17  C   UNL     1      34.672 -11.026 -24.651  0.00  0.00    +0.021 C 
ATOM     18  C   UNL     1      32.828 -10.604 -23.149  0.00  0.00    +0.021 C 
ATOM     19  C   UNL     1      35.000  -9.671 -24.630  0.00  0.00    +0.015 C 
ATOM     20  C   UNL     1      33.156  -9.248 -23.128  0.00  0.00    +0.015 C 
ATOM     21  C   UNL     1      34.241  -8.782 -23.869  0.00  0.00    +0.042 C 
BRANCH  21  22
ATOM     22  N   UNL     1      34.573  -7.411 -23.848  0.00  0.00    -0.357 N 
ATOM     23  H   UNL     1      33.927  -6.753 -23.501  0.00  0.00    +0.142 HD
ATOM     24  H   UNL     1      35.450  -7.111 -24.179  0.00  0.00    +0.142 HD
ENDBRANCH  21  22
ENDBRANCH   1  16
TORSDOF 5
ENDMDL
MODEL 2
REMARK VINA RESULT:      -8.2      3.686      8.130
REMARK  Name = 17134
REMARK  5 active torsions:
REMARK  status: ('A' for Active; 'I' for Inactive)
REMARK    1  A    between atoms: S_1  and  C_4
REMARK    2  A    between atoms: S_1  and  N_13
REMARK    3  A    between atoms: C_9  and  N_10
REMARK    4  A    between atoms: C_18  and  O_21
REMARK    5  A    between atoms: C_19  and  O_23
REMARK                            x       y       z     vdW  Elec       q    Type
REMARK                         _______ _______ _______ _____ _____    ______ ____
ROOT
ATOM      1  S   UNL     1      35.341 -18.217 -21.345  0.00  0.00    +0.075 S 
ATOM      2  O   UNL     1      36.348 -18.524 -22.355  0.00  0.00    -0.150 OA
ATOM      3  O   UNL     1      35.665 -17.251 -20.302  0.00  0.00    -0.150 OA
ENDROOT
BRANCH   1   4
ATOM      4  N   UNL     1      33.902 -17.729 -22.155  0.00  0.00    -0.200 N 
ATOM      5  H   UNL     1      33.018 -17.861 -21.743  0.00  0.00    +0.175 HD
ATOM      6  N   UNL     1      34.468 -17.938 -24.429  0.00  0.00    -0.230 NA
ATOM      7  N   UNL     1      34.305 -16.076 -25.949  0.00  0.00    -0.212 NA
ATOM      8  C   UNL     1      34.028 -17.123 -23.453  0.00  0.00    +0.157 C 
ATOM      9  C   UNL     1      33.709 -15.797 -23.634  0.00  0.00    +0.245 C 
ATOM     10  C   UNL     1      33.869 -15.321 -24.920  0.00  0.00    +0.233 C 
ATOM     11  C   UNL     1      34.582 -17.357 -25.638  0.00  0.00    +0.254 C 
BRANCH   9  12
ATOM     12  O   UNL     1      33.268 -15.007 -22.627  0.00  0.00    -0.338 OA
ATOM     13  C   UNL     1      34.256 -14.351 -21.827  0.00  0.00    +0.175 C 
ENDBRANCH   9  12
BRANCH  10  14
ATOM     14  O   UNL     1      33.576 -14.012 -25.199  0.00  0.00    -0.457 OA
ATOM     15  C   UNL     1      33.124 -13.725 -26.518  0.00  0.00    +0.254 C 
ENDBRANCH  10  14
ENDBRANCH   1   4
BRANCH   1  16
ATOM     16  C   UNL     1      34.870 -19.718 -20.589  0.00  0.00    +0.125 C 
ATOM     17  C   UNL     1      33.519 -20.040 -20.457  0.00  0.00    +0.021 C 
ATOM     18  C   UNL     1      35.844 -20.598 -20.117  0.00  0.00    +0.021 C 
ATOM     19  C   UNL     1      33.142 -21.239 -19.853  0.00  0.00    +0.015 C 
ATOM     20  C   UNL     1      35.468 -21.798 -19.513  0.00  0.00    +0.015 C 
ATOM     21  C   UNL     1      34.117 -22.117 -19.381  0.00  0.00    +0.042 C 
BRANCH  21  22
ATOM     22  N   UNL     1      33.736 -23.331 -18.770  0.00  0.00    -0.357 N 
ATOM     23  H   UNL     1      34.237 -23.670 -17.993  0.00  0.00    +0.142 HD
ATOM     24  H   UNL     1      32.968 -23.839 -19.119  0.00  0.00    +0.142 HD
ENDBRANCH  21  22
ENDBRANCH   1  16
TORSDOF 5
ENDMDL
MODEL 3
REMARK VINA RESULT:      -8.2     11.443     14.053
REMARK  Name = 17134
REMARK  5 active torsions:
REMARK  status: ('A' for Active; 'I' for Inactive)
REMARK    1  A    between atoms: S_1  and  C_4
REMARK    2  A    between atoms: S_1  and  N_13
REMARK    3  A    between atoms: C_9  and  N_10
REMARK    4  A    between atoms: C_18  and  O_21
REMARK    5  A    between atoms: C_19  and  O_23
REMARK                            x       y       z     vdW  Elec       q    Type
REMARK                         _______ _______ _______ _____ _____    ______ ____
ROOT
ATOM      1  S   UNL     1      32.865 -24.332 -13.876  0.00  0.00    +0.075 S 
ATOM      2  O   UNL     1      31.942 -25.462 -13.885  0.00  0.00    -0.150 OA
ATOM      3  O   UNL     1      32.663 -23.270 -12.897  0.00  0.00    -0.150 OA
ENDROOT
BRANCH   1   4
ATOM      4  N   UNL     1      34.466 -24.949 -13.734  0.00  0.00    -0.200 N 
ATOM      5  H   UNL     1      34.818 -25.600 -14.385  0.00  0.00    +0.175 HD
ATOM      6  N   UNL     1      34.867 -24.879 -11.417  0.00  0.00    -0.230 NA
ATOM      7  N   UNL     1      36.735 -23.671 -10.493  0.00  0.00    -0.212 NA
ATOM      8  C   UNL     1      35.275 -24.489 -12.639  0.00  0.00    +0.157 C 
ATOM      9  C   UNL     1      36.381 -23.705 -12.873  0.00  0.00    +0.245 C 
ATOM     10  C   UNL     1      37.082 -23.320 -11.748  0.00  0.00    +0.233 C 
ATOM     11  C   UNL     1      35.633 -24.441 -10.402  0.00  0.00    +0.254 C 
BRANCH   9  12
ATOM     12  O   UNL     1      36.762 -23.331 -14.117  0.00  0.00    -0.338 OA
ATOM     13  C   UNL     1      37.555 -24.256 -14.867  0.00  0.00    +0.175 C 
ENDBRANCH   9  12
BRANCH  10  14
ATOM     14  O   UNL     1      38.199 -22.537 -11.880  0.00  0.00    -0.457 OA
ATOM     15  C   UNL     1      39.447 -23.214 -11.963  0.00  0.00    +0.254 C 
ENDBRANCH  10  14
ENDBRANCH   1   4
BRANCH   1  16
ATOM     16  C   UNL     1      32.860 -23.628 -15.473  0.00  0.00    +0.125 C 
ATOM     17  C   UNL     1      34.052 -23.521 -16.192  0.00  0.00    +0.021 C 
ATOM     18  C   UNL     1      31.666 -23.173 -16.033  0.00  0.00    +0.021 C 
ATOM     19  C   UNL     1      34.049 -22.958 -17.468  0.00  0.00    +0.015 C 
ATOM     20  C   UNL     1      31.663 -22.611 -17.309  0.00  0.00    +0.015 C 
ATOM     21  C   UNL     1      32.855 -22.504 -18.026  0.00  0.00    +0.042 C 
BRANCH  21  22
ATOM     22  N   UNL     1      32.851 -21.935 -19.318  0.00  0.00    -0.357 N 
ATOM     23  H   UNL     1      32.425 -22.413 -20.065  0.00  0.00    +0.142 HD
ATOM     24  H   UNL     1      33.274 -21.059 -19.471  0.00  0.00    +0.142 HD
ENDBRANCH  21  22
ENDBRANCH   1  16
TORSDOF 5
ENDMDL
MODEL 4
REMARK VINA RESULT:      -8.1      4.245      5.893
REMARK  Name = 17134
REMARK  5 active torsions:
REMARK  status: ('A' for Active; 'I' for Inactive)
REMARK    1  A    between atoms: S_1  and  C_4
REMARK    2  A    between atoms: S_1  and  N_13
REMARK    3  A    between atoms: C_9  and  N_10
REMARK    4  A    between atoms: C_18  and  O_21
REMARK    5  A    between atoms: C_19  and  O_23
REMARK                            x       y       z     vdW  Elec       q    Type
REMARK                         _______ _______ _______ _____ _____    ______ ____
ROOT
ATOM      1  S   UNL     1      35.476 -18.634 -22.820  0.00  0.00    +0.075 S 
ATOM      2  O   UNL     1      36.904 -18.400 -22.638  0.00  0.00    -0.150 OA
ATOM      3  O   UNL     1      35.048 -19.775 -23.620  0.00  0.00    -0.150 OA
ENDROOT
BRANCH   1   4
ATOM      4  N   UNL     1      34.744 -18.716 -21.263  0.00  0.00    -0.200 N 
ATOM      5  H   UNL     1      34.196 -17.974 -20.920  0.00  0.00    +0.175 HD
ATOM      6  N   UNL     1      36.217 -20.090 -20.048  0.00  0.00    -0.230 NA
ATOM      7  N   UNL     1      35.468 -22.116 -18.981  0.00  0.00    -0.212 NA
ATOM      8  C   UNL     1      34.956 -19.902 -20.477  0.00  0.00    +0.157 C 
ATOM      9  C   UNL     1      33.910 -20.753 -20.209  0.00  0.00    +0.245 C 
ATOM     10  C   UNL     1      34.228 -21.859 -19.447  0.00  0.00    +0.233 C 
ATOM     11  C   UNL     1      36.401 -21.203 -19.314  0.00  0.00    +0.254 C 
BRANCH   9  12
ATOM     12  O   UNL     1      32.652 -20.531 -20.658  0.00  0.00    -0.338 OA
ATOM     13  C   UNL     1      32.120 -19.213 -20.496  0.00  0.00    +0.175 C 
ENDBRANCH   9  12
BRANCH  10  14
ATOM     14  O   UNL     1      33.252 -22.766 -19.127  0.00  0.00    -0.457 OA
ATOM     15  C   UNL     1      33.172 -23.165 -17.764  0.00  0.00    +0.254 C 
ENDBRANCH  10  14
ENDBRANCH   1   4
BRANCH   1  16
ATOM     16  C   UNL     1      34.781 -17.184 -23.499  0.00  0.00    +0.125 C 
ATOM     17  C   UNL     1      34.576 -16.064 -22.691  0.00  0.00    +0.021 C 
ATOM     18  C   UNL     1      34.431 -17.143 -24.848  0.00  0.00    +0.021 C 
ATOM     19  C   UNL     1      34.021 -14.906 -23.233  0.00  0.00    +0.015 C 
ATOM     20  C   UNL     1      33.875 -15.983 -25.390  0.00  0.00    +0.015 C 
ATOM     21  C   UNL     1      33.671 -14.865 -24.582  0.00  0.00    +0.042 C 
BRANCH  21  22
ATOM     22  N   UNL     1      33.109 -13.692 -25.130  0.00  0.00    -0.357 N 
ATOM     23  H   UNL     1      33.253 -12.825 -24.689  0.00  0.00    +0.142 HD
ATOM     24  H   UNL     1      32.574 -13.742 -25.955  0.00  0.00    +0.142 HD
ENDBRANCH  21  22
ENDBRANCH   1  16
TORSDOF 5
ENDMDL
MODEL 5
REMARK VINA RESULT:      -8.0     13.162     14.863
REMARK  Name = 17134
REMARK  5 active torsions:
REMARK  status: ('A' for Active; 'I' for Inactive)
REMARK    1  A    between atoms: S_1  and  C_4
REMARK    2  A    between atoms: S_1  and  N_13
REMARK    3  A    between atoms: C_9  and  N_10
REMARK    4  A    between atoms: C_18  and  O_21
REMARK    5  A    between atoms: C_19  and  O_23
REMARK                            x       y       z     vdW  Elec       q    Type
REMARK                         _______ _______ _______ _____ _____    ______ ____
ROOT
ATOM      1  S   UNL     1      34.353 -23.765 -15.036  0.00  0.00    +0.075 S 
ATOM      2  O   UNL     1      34.578 -22.364 -14.698  0.00  0.00    -0.150 OA
ATOM      3  O   UNL     1      34.896 -24.280 -16.287  0.00  0.00    -0.150 OA
ENDROOT
BRANCH   1   4
ATOM      4  N   UNL     1      34.914 -24.729 -13.724  0.00  0.00    -0.200 N 
ATOM      5  H   UNL     1      34.328 -25.394 -13.297  0.00  0.00    +0.175 HD
ATOM      6  N   UNL     1      36.510 -23.347 -12.686  0.00  0.00    -0.230 NA
ATOM      7  N   UNL     1      38.790 -24.061 -12.375  0.00  0.00    -0.212 NA
ATOM      8  C   UNL     1      36.265 -24.534 -13.270  0.00  0.00    +0.157 C 
ATOM      9  C   UNL     1      37.205 -25.523 -13.444  0.00  0.00    +0.245 C 
ATOM     10  C   UNL     1      38.468 -25.227 -12.971  0.00  0.00    +0.233 C 
ATOM     11  C   UNL     1      37.778 -23.179 -12.266  0.00  0.00    +0.254 C 
BRANCH   9  12
ATOM     12  O   UNL     1      36.922 -26.706 -14.037  0.00  0.00    -0.338 OA
ATOM     13  C   UNL     1      37.024 -26.767 -15.463  0.00  0.00    +0.175 C 
ENDBRANCH   9  12
BRANCH  10  14
ATOM     14  O   UNL     1      39.473 -26.149 -13.098  0.00  0.00    -0.457 OA
ATOM     15  C   UNL     1      40.406 -25.936 -14.151  0.00  0.00    +0.254 C 
ENDBRANCH  10  14
ENDBRANCH   1   4
BRANCH   1  16
ATOM     16  C   UNL     1      32.631 -24.047 -15.016  0.00  0.00    +0.125 C 
ATOM     17  C   UNL     1      32.069 -24.859 -14.030  0.00  0.00    +0.021 C 
ATOM     18  C   UNL     1      31.815 -23.461 -15.984  0.00  0.00    +0.021 C 
ATOM     19  C   UNL     1      30.693 -25.086 -14.014  0.00  0.00    +0.015 C 
ATOM     20  C   UNL     1      30.439 -23.688 -15.967  0.00  0.00    +0.015 C 
ATOM     21  C   UNL     1      29.878 -24.500 -14.982  0.00  0.00    +0.042 C 
BRANCH  21  22
ATOM     22  N   UNL     1      28.486 -24.728 -14.966  0.00  0.00    -0.357 N 
ATOM     23  H   UNL     1      27.895 -24.129 -14.455  0.00  0.00    +0.142 HD
ATOM     24  H   UNL     1      28.105 -25.486 -15.466  0.00  0.00    +0.142 HD
ENDBRANCH  21  22
ENDBRANCH   1  16
TORSDOF 5
ENDMDL
MODEL 6
REMARK VINA RESULT:      -8.0      2.602      6.863
REMARK  Name = 17134
REMARK  5 active torsions:
REMARK  status: ('A' for Active; 'I' for Inactive)
REMARK    1  A    between atoms: S_1  and  C_4
REMARK    2  A    between atoms: S_1  and  N_13
REMARK    3  A    between atoms: C_9  and  N_10
REMARK    4  A    between atoms: C_18  and  O_21
REMARK    5  A    between atoms: C_19  and  O_23
REMARK                            x       y       z     vdW  Elec       q    Type
REMARK                         _______ _______ _______ _____ _____    ______ ____
ROOT
ATOM      1  S   UNL     1      34.225 -16.895 -25.199  0.00  0.00    +0.075 S 
ATOM      2  O   UNL     1      33.454 -17.867 -25.967  0.00  0.00    -0.150 OA
ATOM      3  O   UNL     1      35.389 -16.275 -25.819  0.00  0.00    -0.150 OA
ENDROOT
BRANCH   1   4
ATOM      4  N   UNL     1      33.146 -15.672 -24.647  0.00  0.00    -0.200 N 
ATOM      5  H   UNL     1      32.414 -15.885 -24.024  0.00  0.00    +0.175 HD
ATOM      6  N   UNL     1      33.110 -14.141 -26.433  0.00  0.00    -0.230 NA
ATOM      7  N   UNL     1      33.693 -11.824 -26.125  0.00  0.00    -0.212 NA
ATOM      8  C   UNL     1      33.345 -14.329 -25.122  0.00  0.00    +0.157 C 
ATOM      9  C   UNL     1      33.748 -13.339 -24.256  0.00  0.00    +0.245 C 
ATOM     10  C   UNL     1      33.909 -12.090 -24.821  0.00  0.00    +0.233 C 
ATOM     11  C   UNL     1      33.300 -12.880 -26.863  0.00  0.00    +0.254 C 
BRANCH   9  12
ATOM     12  O   UNL     1      33.976 -13.566 -22.941  0.00  0.00    -0.338 OA
ATOM     13  C   UNL     1      32.839 -13.603 -22.075  0.00  0.00    +0.175 C 
ENDBRANCH   9  12
BRANCH  10  14
ATOM     14  O   UNL     1      34.309 -11.039 -24.038  0.00  0.00    -0.457 OA
ATOM     15  C   UNL     1      33.295 -10.134 -23.616  0.00  0.00    +0.254 C 
ENDBRANCH  10  14
ENDBRANCH   1   4
BRANCH   1  16
ATOM     16  C   UNL     1      34.726 -17.668 -23.716  0.00  0.00    +0.125 C 
ATOM     17  C   UNL     1      34.988 -16.898 -22.582  0.00  0.00    +0.021 C 
ATOM     18  C   UNL     1      34.865 -19.055 -23.663  0.00  0.00    +0.021 C 
ATOM     19  C   UNL     1      35.389 -17.514 -21.397  0.00  0.00    +0.015 C 
ATOM     20  C   UNL     1      35.265 -19.671 -22.477  0.00  0.00    +0.015 C 
ATOM     21  C   UNL     1      35.527 -18.901 -21.345  0.00  0.00    +0.042 C 
BRANCH  21  22
ATOM     22  N   UNL     1      35.933 -19.525 -20.146  0.00  0.00    -0.357 N 
ATOM     23  H   UNL     1      36.881 -19.746 -20.002  0.00  0.00    +0.142 HD
ATOM     24  H   UNL     1      35.267 -19.738 -19.452  0.00  0.00    +0.142 HD
ENDBRANCH  21  22
ENDBRANCH   1  16
TORSDOF 5
ENDMDL
MODEL 7
REMARK VINA RESULT:      -8.0      1.161      1.737
REMARK  Name = 17134
REMARK  5 active torsions:
REMARK  status: ('A' for Active; 'I' for Inactive)
REMARK    1  A    between atoms: S_1  and  C_4
REMARK    2  A    between atoms: S_1  and  N_13
REMARK    3  A    between atoms: C_9  and  N_10
REMARK    4  A    between atoms: C_18  and  O_21
REMARK    5  A    between atoms: C_19  and  O_23
REMARK                            x       y       z     vdW  Elec       q    Type
REMARK                         _______ _______ _______ _____ _____    ______ ____
ROOT
ATOM      1  S   UNL     1      33.098 -13.295 -24.002  0.00  0.00    +0.075 S 
ATOM      2  O   UNL     1      33.502 -12.996 -25.371  0.00  0.00    -0.150 OA
ATOM      3  O   UNL     1      31.974 -14.196 -23.782  0.00  0.00    -0.150 OA
ENDROOT
BRANCH   1   4
ATOM      4  N   UNL     1      34.478 -13.879 -23.153  0.00  0.00    -0.200 N 
ATOM      5  H   UNL     1      35.115 -13.257 -22.731  0.00  0.00    +0.175 HD
ATOM      6  N   UNL     1      34.963 -15.906 -24.244  0.00  0.00    -0.230 NA
ATOM      7  N   UNL     1      35.065 -17.994 -23.047  0.00  0.00    -0.212 NA
ATOM      8  C   UNL     1      34.675 -15.301 -23.077  0.00  0.00    +0.157 C 
ATOM      9  C   UNL     1      34.565 -15.954 -21.872  0.00  0.00    +0.245 C 
ATOM     10  C   UNL     1      34.772 -17.318 -21.917  0.00  0.00    +0.233 C 
ATOM     11  C   UNL     1      35.144 -17.237 -24.158  0.00  0.00    +0.254 C 
BRANCH   9  12
ATOM     12  O   UNL     1      34.273 -15.313 -20.716  0.00  0.00    -0.338 OA
ATOM     13  C   UNL     1      32.891 -15.126 -20.399  0.00  0.00    +0.175 C 
ENDBRANCH   9  12
BRANCH  10  14
ATOM     14  O   UNL     1      34.684 -18.056 -20.766  0.00  0.00    -0.457 OA
ATOM     15  C   UNL     1      34.216 -19.393 -20.898  0.00  0.00    +0.254 C 
ENDBRANCH  10  14
ENDBRANCH   1   4
BRANCH   1  16
ATOM     16  C   UNL     1      32.765 -11.779 -23.203  0.00  0.00    +0.125 C 
ATOM     17  C   UNL     1      31.909 -11.744 -22.101  0.00  0.00    +0.021 C 
ATOM     18  C   UNL     1      33.354 -10.602 -23.664  0.00  0.00    +0.021 C 
ATOM     19  C   UNL     1      31.641 -10.533 -21.464  0.00  0.00    +0.015 C 
ATOM     20  C   UNL     1      33.087  -9.391 -23.026  0.00  0.00    +0.015 C 
ATOM     21  C   UNL     1      32.231  -9.357 -21.926  0.00  0.00    +0.042 C 
BRANCH  21  22
ATOM     22  N   UNL     1      31.961  -8.132 -21.280  0.00  0.00    -0.357 N 
ATOM     23  H   UNL     1      32.316  -7.291 -21.650  0.00  0.00    +0.142 HD
ATOM     24  H   UNL     1      31.417  -8.117 -20.459  0.00  0.00    +0.142 HD
ENDBRANCH  21  22
ENDBRANCH   1  16
TORSDOF 5
ENDMDL
MODEL 8
REMARK VINA RESULT:      -7.9      2.624      7.806
REMARK  Name = 17134
REMARK  5 active torsions:
REMARK  status: ('A' for Active; 'I' for Inactive)
REMARK    1  A    between atoms: S_1  and  C_4
REMARK    2  A    between atoms: S_1  and  N_13
REMARK    3  A    between atoms: C_9  and  N_10
REMARK    4  A    between atoms: C_18  and  O_21
REMARK    5  A    between atoms: C_19  and  O_23
REMARK                            x       y       z     vdW  Elec       q    Type
REMARK                         _______ _______ _______ _____ _____    ______ ____
ROOT
ATOM      1  S   UNL     1      35.269 -18.296 -22.490  0.00  0.00    +0.075 S 
ATOM      2  O   UNL     1      35.298 -18.926 -23.806  0.00  0.00    -0.150 OA
ATOM      3  O   UNL     1      36.458 -17.593 -22.023  0.00  0.00    -0.150 OA
ENDROOT
BRANCH   1   4
ATOM      4  N   UNL     1      33.914 -17.235 -22.435  0.00  0.00    -0.200 N 
ATOM      5  H   UNL     1      33.190 -17.370 -21.781  0.00  0.00    +0.175 HD
ATOM      6  N   UNL     1      33.717 -16.497 -24.660  0.00  0.00    -0.230 NA
ATOM      7  N   UNL     1      33.773 -14.155 -25.225  0.00  0.00    -0.212 NA
ATOM      8  C   UNL     1      33.869 -16.143 -23.370  0.00  0.00    +0.157 C 
ATOM      9  C   UNL     1      33.979 -14.846 -22.929  0.00  0.00    +0.245 C 
ATOM     10  C   UNL     1      33.924 -13.880 -23.914  0.00  0.00    +0.233 C 
ATOM     11  C   UNL     1      33.677 -15.465 -25.524  0.00  0.00    +0.254 C 
BRANCH   9  12
ATOM     12  O   UNL     1      34.131 -14.528 -21.622  0.00  0.00    -0.338 OA
ATOM     13  C   UNL     1      32.944 -14.292 -20.860  0.00  0.00    +0.175 C 
ENDBRANCH   9  12
BRANCH  10  14
ATOM     14  O   UNL     1      34.025 -12.557 -23.572  0.00  0.00    -0.457 OA
ATOM     15  C   UNL     1      33.902 -11.612 -24.629  0.00  0.00    +0.254 C 
ENDBRANCH  10  14
ENDBRANCH   1   4
BRANCH   1  16
ATOM     16  C   UNL     1      34.849 -19.522 -21.322  0.00  0.00    +0.125 C 
ATOM     17  C   UNL     1      35.852 -20.276 -20.710  0.00  0.00    +0.021 C 
ATOM     18  C   UNL     1      33.512 -19.750 -20.999  0.00  0.00    +0.021 C 
ATOM     19  C   UNL     1      35.517 -21.257 -19.777  0.00  0.00    +0.015 C 
ATOM     20  C   UNL     1      33.177 -20.731 -20.065  0.00  0.00    +0.015 C 
ATOM     21  C   UNL     1      34.179 -21.484 -19.455  0.00  0.00    +0.042 C 
BRANCH  21  22
ATOM     22  N   UNL     1      33.840 -22.476 -18.510  0.00  0.00    -0.357 N 
ATOM     23  H   UNL     1      33.883 -23.427 -18.758  0.00  0.00    +0.142 HD
ATOM     24  H   UNL     1      33.562 -22.216 -17.602  0.00  0.00    +0.142 HD
ENDBRANCH  21  22
ENDBRANCH   1  16
TORSDOF 5
ENDMDL
MODEL 9
REMARK VINA RESULT:      -7.8      8.528     11.599
REMARK  Name = 17134
REMARK  5 active torsions:
REMARK  status: ('A' for Active; 'I' for Inactive)
REMARK    1  A    between atoms: S_1  and  C_4
REMARK    2  A    between atoms: S_1  and  N_13
REMARK    3  A    between atoms: C_9  and  N_10
REMARK    4  A    between atoms: C_18  and  O_21
REMARK    5  A    between atoms: C_19  and  O_23
REMARK                            x       y       z     vdW  Elec       q    Type
REMARK                         _______ _______ _______ _____ _____    ______ ____
ROOT
ATOM      1  S   UNL     1      33.350 -23.116 -17.609  0.00  0.00    +0.075 S 
ATOM      2  O   UNL     1      33.979 -24.411 -17.849  0.00  0.00    -0.150 OA
ATOM      3  O   UNL     1      31.895 -23.032 -17.611  0.00  0.00    -0.150 OA
ENDROOT
BRANCH   1   4
ATOM      4  N   UNL     1      33.960 -22.493 -16.124  0.00  0.00    -0.200 N 
ATOM      5  H   UNL     1      33.656 -21.624 -15.775  0.00  0.00    +0.175 HD
ATOM      6  N   UNL     1      36.125 -23.406 -16.006  0.00  0.00    -0.230 NA
ATOM      7  N   UNL     1      36.832 -24.747 -14.133  0.00  0.00    -0.212 NA
ATOM      8  C   UNL     1      34.928 -23.279 -15.406  0.00  0.00    +0.157 C 
ATOM      9  C   UNL     1      34.604 -23.840 -14.193  0.00  0.00    +0.245 C 
ATOM     10  C   UNL     1      35.608 -24.575 -13.594  0.00  0.00    +0.233 C 
ATOM     11  C   UNL     1      37.020 -24.144 -15.323  0.00  0.00    +0.254 C 
BRANCH   9  12
ATOM     12  O   UNL     1      33.387 -23.691 -13.619  0.00  0.00    -0.338 OA
ATOM     13  C   UNL     1      32.387 -24.663 -13.937  0.00  0.00    +0.175 C 
ENDBRANCH   9  12
BRANCH  10  14
ATOM     14  O   UNL     1      35.380 -25.174 -12.383  0.00  0.00    -0.457 OA
ATOM     15  C   UNL     1      35.811 -24.463 -11.228  0.00  0.00    +0.254 C 
ENDBRANCH  10  14
ENDBRANCH   1   4
BRANCH   1  16
ATOM     16  C   UNL     1      33.978 -21.993 -18.788  0.00  0.00    +0.125 C 
ATOM     17  C   UNL     1      33.104 -21.185 -19.516  0.00  0.00    +0.021 C 
ATOM     18  C   UNL     1      35.354 -21.902 -19.002  0.00  0.00    +0.021 C 
ATOM     19  C   UNL     1      33.606 -20.288 -20.459  0.00  0.00    +0.015 C 
ATOM     20  C   UNL     1      35.855 -21.004 -19.945  0.00  0.00    +0.015 C 
ATOM     21  C   UNL     1      34.981 -20.197 -20.672  0.00  0.00    +0.042 C 
BRANCH  21  22
ATOM     22  N   UNL     1      35.488 -19.289 -21.626  0.00  0.00    -0.357 N 
ATOM     23  H   UNL     1      36.233 -18.690 -21.388  0.00  0.00    +0.142 HD
ATOM     24  H   UNL     1      35.099 -19.255 -22.529  0.00  0.00    +0.142 HD
ENDBRANCH  21  22
ENDBRANCH   1  16
TORSDOF 5
ENDMDL
