MODEL 1
REMARK VINA RESULT:      -7.5      0.000      0.000
REMARK  Name = 68463
REMARK  2 active torsions:
REMARK  status: ('A' for Active; 'I' for Inactive)
REMARK    1  A    between atoms: C_3  and  O_11
REMARK    2  A    between atoms: C_7  and  O_13
REMARK                            x       y       z     vdW  Elec       q    Type
REMARK                         _______ _______ _______ _____ _____    ______ ____
ROOT
ATOM      1  C   UNL     1      34.599 -16.408 -22.744  0.00  0.00    +0.034 C 
ATOM      2  C   UNL     1      34.718 -17.382 -23.765  0.00  0.00    +0.006 C 
ATOM      3  C   UNL     1      34.993 -16.734 -21.436  0.00  0.00    +0.134 C 
ATOM      4  C   UNL     1      34.324 -17.055 -25.074  0.00  0.00    +0.037 C 
ATOM      5  C   UNL     1      34.092 -15.137 -23.062  0.00  0.00    +0.006 C 
ATOM      6  C   UNL     1      35.226 -18.651 -23.448  0.00  0.00    +0.000 C 
ATOM      7  C   UNL     1      33.822 -15.789 -25.371  0.00  0.00    +0.134 C 
ATOM      8  C   UNL     1      33.706 -14.831 -24.368  0.00  0.00    +0.037 C 
ATOM      9  C   UNL     1      35.495 -18.001 -21.138  0.00  0.00    +0.037 C 
ATOM     10  C   UNL     1      35.612 -18.958 -22.142  0.00  0.00    +0.003 C 
ENDROOT
BRANCH   3  11
ATOM     11  O   UNL     1      34.896 -15.829 -20.418  0.00  0.00    -0.506 OA
ATOM     12  H   UNL     1      34.665 -14.939 -20.603  0.00  0.00    +0.292 HD
ENDBRANCH   3  11
BRANCH   7  13
ATOM     13  O   UNL     1      33.444 -15.488 -26.644  0.00  0.00    -0.506 OA
ATOM     14  H   UNL     1      33.807 -15.964 -27.365  0.00  0.00    +0.292 HD
ENDBRANCH   7  13
TORSDOF 2
ENDMDL
MODEL 2
REMARK VINA RESULT:      -7.5      3.388      4.880
REMARK  Name = 68463
REMARK  2 active torsions:
REMARK  status: ('A' for Active; 'I' for Inactive)
REMARK    1  A    between atoms: C_3  and  O_11
REMARK    2  A    between atoms: C_7  and  O_13
REMARK                            x       y       z     vdW  Elec       q    Type
REMARK                         _______ _______ _______ _____ _____    ______ ____
ROOT
ATOM      1  C   UNL     1      34.564 -20.387 -20.459  0.00  0.00    +0.034 C 
ATOM      2  C   UNL     1      35.939 -20.062 -20.381  0.00  0.00    +0.006 C 
ATOM      3  C   UNL     1      34.049 -21.399 -19.633  0.00  0.00    +0.134 C 
ATOM      4  C   UNL     1      36.453 -19.049 -21.208  0.00  0.00    +0.037 C 
ATOM      5  C   UNL     1      33.742 -19.688 -21.359  0.00  0.00    +0.006 C 
ATOM      6  C   UNL     1      36.760 -20.759 -19.480  0.00  0.00    +0.000 C 
ATOM      7  C   UNL     1      35.623 -18.367 -22.097  0.00  0.00    +0.134 C 
ATOM      8  C   UNL     1      34.271 -18.685 -22.173  0.00  0.00    +0.037 C 
ATOM      9  C   UNL     1      34.879 -22.082 -18.743  0.00  0.00    +0.037 C 
ATOM     10  C   UNL     1      36.232 -21.763 -18.667  0.00  0.00    +0.003 C 
ENDROOT
BRANCH   3  11
ATOM     11  O   UNL     1      32.729 -21.748 -19.673  0.00  0.00    -0.506 OA
ATOM     12  H   UNL     1      32.149 -21.462 -18.994  0.00  0.00    +0.292 HD
ENDBRANCH   3  11
BRANCH   7  13
ATOM     13  O   UNL     1      36.137 -17.388 -22.892  0.00  0.00    -0.506 OA
ATOM     14  H   UNL     1      36.717 -17.611 -23.593  0.00  0.00    +0.292 HD
ENDBRANCH   7  13
TORSDOF 2
ENDMDL
MODEL 3
REMARK VINA RESULT:      -7.4      3.313      4.819
REMARK  Name = 68463
REMARK  2 active torsions:
REMARK  status: ('A' for Active; 'I' for Inactive)
REMARK    1  A    between atoms: C_3  and  O_11
REMARK    2  A    between atoms: C_7  and  O_13
REMARK                            x       y       z     vdW  Elec       q    Type
REMARK                         _______ _______ _______ _____ _____    ______ ____
ROOT
ATOM      1  C   UNL     1      35.590 -20.289 -20.307  0.00  0.00    +0.034 C 
ATOM      2  C   UNL     1      34.384 -19.830 -20.889  0.00  0.00    +0.006 C 
ATOM      3  C   UNL     1      35.544 -21.322 -19.356  0.00  0.00    +0.134 C 
ATOM      4  C   UNL     1      34.432 -18.797 -21.840  0.00  0.00    +0.037 C 
ATOM      5  C   UNL     1      36.807 -19.704 -20.694  0.00  0.00    +0.006 C 
ATOM      6  C   UNL     1      33.169 -20.415 -20.503  0.00  0.00    +0.000 C 
ATOM      7  C   UNL     1      35.649 -18.227 -22.212  0.00  0.00    +0.134 C 
ATOM      8  C   UNL     1      36.835 -18.679 -21.641  0.00  0.00    +0.037 C 
ATOM      9  C   UNL     1      34.326 -21.892 -18.983  0.00  0.00    +0.037 C 
ATOM     10  C   UNL     1      33.140 -21.440 -19.556  0.00  0.00    +0.003 C 
ENDROOT
BRANCH   3  11
ATOM     11  O   UNL     1      36.680 -21.797 -18.766  0.00  0.00    -0.506 OA
ATOM     12  H   UNL     1      36.666 -22.623 -18.322  0.00  0.00    +0.292 HD
ENDBRANCH   3  11
BRANCH   7  13
ATOM     13  O   UNL     1      35.678 -17.226 -23.135  0.00  0.00    -0.506 OA
ATOM     14  H   UNL     1      35.569 -17.424 -24.044  0.00  0.00    +0.292 HD
ENDBRANCH   7  13
TORSDOF 2
ENDMDL
MODEL 4
REMARK VINA RESULT:      -7.4      3.625      6.057
REMARK  Name = 68463
REMARK  2 active torsions:
REMARK  status: ('A' for Active; 'I' for Inactive)
REMARK    1  A    between atoms: C_3  and  O_11
REMARK    2  A    between atoms: C_7  and  O_13
REMARK                            x       y       z     vdW  Elec       q    Type
REMARK                         _______ _______ _______ _____ _____    ______ ____
ROOT
ATOM      1  C   UNL     1      35.504 -20.069 -20.449  0.00  0.00    +0.034 C 
ATOM      2  C   UNL     1      34.108 -19.892 -20.601  0.00  0.00    +0.006 C 
ATOM      3  C   UNL     1      36.383 -19.170 -21.074  0.00  0.00    +0.134 C 
ATOM      4  C   UNL     1      33.230 -20.793 -19.975  0.00  0.00    +0.037 C 
ATOM      5  C   UNL     1      35.981 -21.140 -19.674  0.00  0.00    +0.006 C 
ATOM      6  C   UNL     1      33.632 -18.822 -21.374  0.00  0.00    +0.000 C 
ATOM      7  C   UNL     1      33.721 -21.851 -19.211  0.00  0.00    +0.134 C 
ATOM      8  C   UNL     1      35.093 -22.025 -19.060  0.00  0.00    +0.037 C 
ATOM      9  C   UNL     1      35.893 -18.111 -21.838  0.00  0.00    +0.037 C 
ATOM     10  C   UNL     1      34.519 -17.937 -21.988  0.00  0.00    +0.003 C 
ENDROOT
BRANCH   3  11
ATOM     11  O   UNL     1      37.737 -19.300 -20.956  0.00  0.00    -0.506 OA
ATOM     12  H   UNL     1      38.306 -18.712 -21.414  0.00  0.00    +0.292 HD
ENDBRANCH   3  11
BRANCH   7  13
ATOM     13  O   UNL     1      32.856 -22.716 -18.612  0.00  0.00    -0.506 OA
ATOM     14  H   UNL     1      33.177 -23.507 -18.227  0.00  0.00    +0.292 HD
ENDBRANCH   7  13
TORSDOF 2
ENDMDL
MODEL 5
REMARK VINA RESULT:      -7.3      0.947      3.651
REMARK  Name = 68463
REMARK  2 active torsions:
REMARK  status: ('A' for Active; 'I' for Inactive)
REMARK    1  A    between atoms: C_3  and  O_11
REMARK    2  A    between atoms: C_7  and  O_13
REMARK                            x       y       z     vdW  Elec       q    Type
REMARK                         _______ _______ _______ _____ _____    ______ ____
ROOT
ATOM      1  C   UNL     1      34.500 -16.606 -23.718  0.00  0.00    +0.034 C 
ATOM      2  C   UNL     1      34.779 -17.494 -22.652  0.00  0.00    +0.006 C 
ATOM      3  C   UNL     1      34.377 -17.116 -25.021  0.00  0.00    +0.134 C 
ATOM      4  C   UNL     1      34.901 -16.984 -21.348  0.00  0.00    +0.037 C 
ATOM      5  C   UNL     1      34.350 -15.235 -23.450  0.00  0.00    +0.006 C 
ATOM      6  C   UNL     1      34.927 -18.864 -22.919  0.00  0.00    +0.000 C 
ATOM      7  C   UNL     1      34.750 -15.620 -21.101  0.00  0.00    +0.134 C 
ATOM      8  C   UNL     1      34.475 -14.747 -22.149  0.00  0.00    +0.037 C 
ATOM      9  C   UNL     1      34.528 -18.480 -25.269  0.00  0.00    +0.037 C 
ATOM     10  C   UNL     1      34.802 -19.353 -24.220  0.00  0.00    +0.003 C 
ENDROOT
BRANCH   3  11
ATOM     11  O   UNL     1      34.110 -16.298 -26.082  0.00  0.00    -0.506 OA
ATOM     12  H   UNL     1      33.352 -16.453 -26.613  0.00  0.00    +0.292 HD
ENDBRANCH   3  11
BRANCH   7  13
ATOM     13  O   UNL     1      34.873 -15.141 -19.832  0.00  0.00    -0.506 OA
ATOM     14  H   UNL     1      35.008 -15.734 -19.119  0.00  0.00    +0.292 HD
ENDBRANCH   7  13
TORSDOF 2
ENDMDL
MODEL 6
REMARK VINA RESULT:      -7.3      1.743      2.409
REMARK  Name = 68463
REMARK  2 active torsions:
REMARK  status: ('A' for Active; 'I' for Inactive)
REMARK    1  A    between atoms: C_3  and  O_11
REMARK    2  A    between atoms: C_7  and  O_13
REMARK                            x       y       z     vdW  Elec       q    Type
REMARK                         _______ _______ _______ _____ _____    ______ ____
ROOT
ATOM      1  C   UNL     1      34.709 -17.061 -22.249  0.00  0.00    +0.034 C 
ATOM      2  C   UNL     1      34.564 -16.689 -23.607  0.00  0.00    +0.006 C 
ATOM      3  C   UNL     1      34.896 -18.415 -21.924  0.00  0.00    +0.134 C 
ATOM      4  C   UNL     1      34.377 -15.334 -23.931  0.00  0.00    +0.037 C 
ATOM      5  C   UNL     1      34.664 -16.069 -21.255  0.00  0.00    +0.006 C 
ATOM      6  C   UNL     1      34.610 -17.680 -24.600  0.00  0.00    +0.000 C 
ATOM      7  C   UNL     1      34.334 -14.363 -22.931  0.00  0.00    +0.134 C 
ATOM      8  C   UNL     1      34.478 -14.728 -21.597  0.00  0.00    +0.037 C 
ATOM      9  C   UNL     1      34.939 -19.387 -22.924  0.00  0.00    +0.037 C 
ATOM     10  C   UNL     1      34.796 -19.021 -24.259  0.00  0.00    +0.003 C 
ENDROOT
BRANCH   3  11
ATOM     11  O   UNL     1      35.040 -18.822 -20.629  0.00  0.00    -0.506 OA
ATOM     12  H   UNL     1      35.894 -18.999 -20.285  0.00  0.00    +0.292 HD
ENDBRANCH   3  11
BRANCH   7  13
ATOM     13  O   UNL     1      34.151 -13.054 -23.262  0.00  0.00    -0.506 OA
ATOM     14  H   UNL     1      33.839 -12.448 -22.620  0.00  0.00    +0.292 HD
ENDBRANCH   7  13
TORSDOF 2
ENDMDL
MODEL 7
REMARK VINA RESULT:      -7.2      1.145      2.613
REMARK  Name = 68463
REMARK  2 active torsions:
REMARK  status: ('A' for Active; 'I' for Inactive)
REMARK    1  A    between atoms: C_3  and  O_11
REMARK    2  A    between atoms: C_7  and  O_13
REMARK                            x       y       z     vdW  Elec       q    Type
REMARK                         _______ _______ _______ _____ _____    ______ ____
ROOT
ATOM      1  C   UNL     1      34.575 -16.466 -22.654  0.00  0.00    +0.034 C 
ATOM      2  C   UNL     1      33.868 -15.287 -22.990  0.00  0.00    +0.006 C 
ATOM      3  C   UNL     1      34.909 -16.708 -21.312  0.00  0.00    +0.134 C 
ATOM      4  C   UNL     1      33.534 -15.046 -24.333  0.00  0.00    +0.037 C 
ATOM      5  C   UNL     1      34.926 -17.370 -23.671  0.00  0.00    +0.006 C 
ATOM      6  C   UNL     1      33.517 -14.384 -21.974  0.00  0.00    +0.000 C 
ATOM      7  C   UNL     1      33.891 -15.953 -25.330  0.00  0.00    +0.134 C 
ATOM      8  C   UNL     1      34.585 -17.113 -25.000  0.00  0.00    +0.037 C 
ATOM      9  C   UNL     1      34.552 -15.800 -20.315  0.00  0.00    +0.037 C 
ATOM     10  C   UNL     1      33.857 -14.640 -20.645  0.00  0.00    +0.003 C 
ENDROOT
BRANCH   3  11
ATOM     11  O   UNL     1      35.591 -17.831 -20.940  0.00  0.00    -0.506 OA
ATOM     12  H   UNL     1      35.525 -18.612 -21.456  0.00  0.00    +0.292 HD
ENDBRANCH   3  11
BRANCH   7  13
ATOM     13  O   UNL     1      33.560 -15.704 -26.627  0.00  0.00    -0.506 OA
ATOM     14  H   UNL     1      32.682 -15.465 -26.849  0.00  0.00    +0.292 HD
ENDBRANCH   7  13
TORSDOF 2
ENDMDL
MODEL 8
REMARK VINA RESULT:      -7.2      1.268      4.540
REMARK  Name = 68463
REMARK  2 active torsions:
REMARK  status: ('A' for Active; 'I' for Inactive)
REMARK    1  A    between atoms: C_3  and  O_11
REMARK    2  A    between atoms: C_7  and  O_13
REMARK                            x       y       z     vdW  Elec       q    Type
REMARK                         _______ _______ _______ _____ _____    ______ ____
ROOT
ATOM      1  C   UNL     1      34.643 -16.752 -23.587  0.00  0.00    +0.034 C 
ATOM      2  C   UNL     1      34.676 -16.233 -22.270  0.00  0.00    +0.006 C 
ATOM      3  C   UNL     1      34.195 -15.933 -24.636  0.00  0.00    +0.134 C 
ATOM      4  C   UNL     1      35.124 -17.053 -21.221  0.00  0.00    +0.037 C 
ATOM      5  C   UNL     1      35.059 -18.074 -23.815  0.00  0.00    +0.006 C 
ATOM      6  C   UNL     1      34.261 -14.912 -22.042  0.00  0.00    +0.000 C 
ATOM      7  C   UNL     1      35.532 -18.364 -21.466  0.00  0.00    +0.134 C 
ATOM      8  C   UNL     1      35.501 -18.874 -22.759  0.00  0.00    +0.037 C 
ATOM      9  C   UNL     1      33.786 -14.622 -24.392  0.00  0.00    +0.037 C 
ATOM     10  C   UNL     1      33.819 -14.112 -23.097  0.00  0.00    +0.003 C 
ENDROOT
BRANCH   3  11
ATOM     11  O   UNL     1      34.145 -16.390 -25.922  0.00  0.00    -0.506 OA
ATOM     12  H   UNL     1      33.330 -16.685 -26.283  0.00  0.00    +0.292 HD
ENDBRANCH   3  11
BRANCH   7  13
ATOM     13  O   UNL     1      35.962 -19.145 -20.437  0.00  0.00    -0.506 OA
ATOM     14  H   UNL     1      36.860 -19.116 -20.170  0.00  0.00    +0.292 HD
ENDBRANCH   7  13
TORSDOF 2
ENDMDL
MODEL 9
REMARK VINA RESULT:      -7.0      2.002      3.109
REMARK  Name = 68463
REMARK  2 active torsions:
REMARK  status: ('A' for Active; 'I' for Inactive)
REMARK    1  A    between atoms: C_3  and  O_11
REMARK    2  A    between atoms: C_7  and  O_13
REMARK                            x       y       z     vdW  Elec       q    Type
REMARK                         _______ _______ _______ _____ _____    ______ ____
ROOT
ATOM      1  C   UNL     1      34.529 -16.067 -23.307  0.00  0.00    +0.034 C 
ATOM      2  C   UNL     1      34.683 -17.158 -22.418  0.00  0.00    +0.006 C 
ATOM      3  C   UNL     1      34.421 -14.767 -22.787  0.00  0.00    +0.134 C 
ATOM      4  C   UNL     1      34.790 -18.458 -22.940  0.00  0.00    +0.037 C 
ATOM      5  C   UNL     1      34.488 -16.308 -24.690  0.00  0.00    +0.006 C 
ATOM      6  C   UNL     1      34.724 -16.917 -21.036  0.00  0.00    +0.000 C 
ATOM      7  C   UNL     1      34.747 -18.679 -24.316  0.00  0.00    +0.134 C 
ATOM      8  C   UNL     1      34.597 -17.607 -25.190  0.00  0.00    +0.037 C 
ATOM      9  C   UNL     1      34.464 -14.545 -21.410  0.00  0.00    +0.037 C 
ATOM     10  C   UNL     1      34.615 -15.618 -20.536  0.00  0.00    +0.003 C 
ENDROOT
BRANCH   3  11
ATOM     11  O   UNL     1      34.270 -13.684 -23.605  0.00  0.00    -0.506 OA
ATOM     12  H   UNL     1      33.491 -13.590 -24.119  0.00  0.00    +0.292 HD
ENDBRANCH   3  11
BRANCH   7  13
ATOM     13  O   UNL     1      34.852 -19.946 -24.805  0.00  0.00    -0.506 OA
ATOM     14  H   UNL     1      35.155 -20.638 -24.251  0.00  0.00    +0.292 HD
ENDBRANCH   7  13
TORSDOF 2
ENDMDL
