MODEL 1
REMARK VINA RESULT:      -8.1      0.000      0.000
REMARK  Name = 446916
REMARK  6 active torsions:
REMARK  status: ('A' for Active; 'I' for Inactive)
REMARK    1  A    between atoms: C_4  and  C_17
REMARK    2  A    between atoms: CA_7  and  C_14
REMARK    3  A    between atoms: C_14  and  O_15
REMARK    4  A    between atoms: C_17  and  C_18
REMARK    5  A    between atoms: C_18  and  C_20
REMARK    6  A    between atoms: C_20  and  O_21
REMARK                            x       y       z     vdW  Elec       q    Type
REMARK                         _______ _______ _______ _____ _____    ______ ____
ROOT
ATOM      1 CL   UNL     1      33.734 -14.563 -20.687  0.00  0.00    -0.082 Cl
ATOM      2 CL   UNL     1      36.393 -19.267 -20.857  0.00  0.00    -0.082 Cl
ATOM      3  N   UNL     1      34.395 -16.808 -24.998  0.00  0.00    -0.348 N 
ATOM      4  C   UNL     1      33.558 -15.066 -23.905  0.00  0.00    +0.003 A 
ATOM      5  C   UNL     1      34.184 -15.926 -22.959  0.00  0.00    +0.024 A 
ATOM      6  C   UNL     1      34.701 -17.010 -23.671  0.00  0.00    +0.058 A 
ATOM      7  CA  UNL     1      33.703 -15.636 -25.149  0.00  0.00    +0.129 A 
ATOM      8  C   UNL     1      34.361 -15.884 -21.562  0.00  0.00    +0.060 C 
ATOM      9  C   UNL     1      35.389 -18.061 -23.053  0.00  0.00    +0.028 C 
ATOM     10  C   UNL     1      35.048 -16.928 -20.930  0.00  0.00    +0.023 C 
ATOM     11  C   UNL     1      35.553 -17.998 -21.666  0.00  0.00    +0.060 C 
ATOM     12  H   UNL     1      34.637 -17.417 -25.731  0.00  0.00    +0.166 HD
ENDROOT
BRANCH   7  14
ATOM     13  OXT UNL     1      33.749 -14.221 -27.078  0.00  0.00    -0.243 OA
ATOM     14  C   UNL     1      33.246 -15.154 -26.415  0.00  0.00    +0.354 C 
BRANCH  14  15
ATOM     15  O   UNL     1      32.148 -15.824 -26.889  0.00  0.00    -0.476 OA
ATOM     16  H   UNL     1      31.880 -15.712 -27.781  0.00  0.00    +0.295 HD
ENDBRANCH  14  15
ENDBRANCH   7  14
BRANCH   4  17
ATOM     17  C   UNL     1      32.865 -13.786 -23.639  0.00  0.00    +0.040 C 
BRANCH  17  18
ATOM     18  C   UNL     1      33.806 -12.587 -23.407  0.00  0.00    +0.114 C 
BRANCH  18  20
ATOM     19  O   UNL     1      33.093 -10.347 -24.052  0.00  0.00    -0.250 OA
ATOM     20  C   UNL     1      33.556 -11.436 -24.358  0.00  0.00    +0.314 C 
BRANCH  20  21
ATOM     21  O   UNL     1      33.883 -11.768 -25.636  0.00  0.00    -0.480 OA
ATOM     22  H   UNL     1      33.559 -12.564 -26.010  0.00  0.00    +0.295 HD
ENDBRANCH  20  21
ENDBRANCH  18  20
ENDBRANCH  17  18
ENDBRANCH   4  17
TORSDOF 6
ENDMDL
MODEL 2
REMARK VINA RESULT:      -8.1     12.488     14.423
REMARK  Name = 446916
REMARK  6 active torsions:
REMARK  status: ('A' for Active; 'I' for Inactive)
REMARK    1  A    between atoms: C_4  and  C_17
REMARK    2  A    between atoms: CA_7  and  C_14
REMARK    3  A    between atoms: C_14  and  O_15
REMARK    4  A    between atoms: C_17  and  C_18
REMARK    5  A    between atoms: C_18  and  C_20
REMARK    6  A    between atoms: C_20  and  O_21
REMARK                            x       y       z     vdW  Elec       q    Type
REMARK                         _______ _______ _______ _____ _____    ______ ____
ROOT
ATOM      1 CL   UNL     1      35.977 -22.544 -16.959  0.00  0.00    -0.082 Cl
ATOM      2 CL   UNL     1      30.677 -23.409 -16.340  0.00  0.00    -0.082 Cl
ATOM      3  N   UNL     1      34.340 -24.660 -12.848  0.00  0.00    -0.348 N 
ATOM      4  C   UNL     1      36.086 -23.925 -14.006  0.00  0.00    +0.003 A 
ATOM      5  C   UNL     1      34.911 -23.689 -14.774  0.00  0.00    +0.024 A 
ATOM      6  C   UNL     1      33.831 -24.159 -14.024  0.00  0.00    +0.058 A 
ATOM      7  CA  UNL     1      35.703 -24.522 -12.827  0.00  0.00    +0.129 A 
ATOM      8  C   UNL     1      34.663 -23.120 -16.039  0.00  0.00    +0.060 C 
ATOM      9  C   UNL     1      32.508 -24.088 -14.478  0.00  0.00    +0.028 C 
ATOM     10  C   UNL     1      33.346 -23.042 -16.505  0.00  0.00    +0.023 C 
ATOM     11  C   UNL     1      32.287 -23.519 -15.736  0.00  0.00    +0.060 C 
ATOM     12  H   UNL     1      33.804 -25.058 -12.125  0.00  0.00    +0.166 HD
ENDROOT
BRANCH   7  14
ATOM     13  OXT UNL     1      36.912 -24.243 -10.782  0.00  0.00    -0.243 OA
ATOM     14  C   UNL     1      36.517 -24.951 -11.733  0.00  0.00    +0.354 C 
BRANCH  14  15
ATOM     15  O   UNL     1      36.860 -26.277 -11.795  0.00  0.00    -0.476 OA
ATOM     16  H   UNL     1      36.675 -26.773 -12.569  0.00  0.00    +0.295 HD
ENDBRANCH  14  15
ENDBRANCH   7  14
BRANCH   4  17
ATOM     17  C   UNL     1      37.483 -23.602 -14.372  0.00  0.00    +0.040 C 
BRANCH  17  18
ATOM     18  C   UNL     1      38.248 -24.756 -15.049  0.00  0.00    +0.114 C 
BRANCH  18  20
ATOM     19  O   UNL     1      39.332 -26.097 -13.326  0.00  0.00    -0.250 OA
ATOM     20  C   UNL     1      39.408 -25.270 -14.224  0.00  0.00    +0.314 C 
BRANCH  20  21
ATOM     21  O   UNL     1      40.575 -24.671 -14.580  0.00  0.00    -0.480 OA
ATOM     22  H   UNL     1      41.223 -24.482 -13.929  0.00  0.00    +0.295 HD
ENDBRANCH  20  21
ENDBRANCH  18  20
ENDBRANCH  17  18
ENDBRANCH   4  17
TORSDOF 6
ENDMDL
MODEL 3
REMARK VINA RESULT:      -7.7     10.588     12.690
REMARK  Name = 446916
REMARK  6 active torsions:
REMARK  status: ('A' for Active; 'I' for Inactive)
REMARK    1  A    between atoms: C_4  and  C_17
REMARK    2  A    between atoms: CA_7  and  C_14
REMARK    3  A    between atoms: C_14  and  O_15
REMARK    4  A    between atoms: C_17  and  C_18
REMARK    5  A    between atoms: C_18  and  C_20
REMARK    6  A    between atoms: C_20  and  O_21
REMARK                            x       y       z     vdW  Elec       q    Type
REMARK                         _______ _______ _______ _____ _____    ______ ____
ROOT
ATOM      1 CL   UNL     1      33.377 -22.985 -18.061  0.00  0.00    -0.082 Cl
ATOM      2 CL   UNL     1      28.618 -22.685 -15.513  0.00  0.00    -0.082 Cl
ATOM      3  N   UNL     1      33.187 -23.685 -13.210  0.00  0.00    -0.348 N 
ATOM      4  C   UNL     1      34.443 -23.592 -15.039  0.00  0.00    +0.003 A 
ATOM      5  C   UNL     1      33.092 -23.342 -15.412  0.00  0.00    +0.024 A 
ATOM      6  C   UNL     1      32.326 -23.406 -14.247  0.00  0.00    +0.058 A 
ATOM      7  CA  UNL     1      34.469 -23.800 -13.679  0.00  0.00    +0.129 A 
ATOM      8  C   UNL     1      32.447 -23.066 -16.634  0.00  0.00    +0.060 C 
ATOM      9  C   UNL     1      30.940 -23.208 -14.242  0.00  0.00    +0.028 C 
ATOM     10  C   UNL     1      31.062 -22.865 -16.644  0.00  0.00    +0.023 C 
ATOM     11  C   UNL     1      30.322 -22.936 -15.466  0.00  0.00    +0.060 C 
ATOM     12  H   UNL     1      32.921 -23.788 -12.268  0.00  0.00    +0.166 HD
ENDROOT
BRANCH   7  14
ATOM     13  OXT UNL     1      36.328 -23.250 -12.277  0.00  0.00    -0.243 OA
ATOM     14  C   UNL     1      35.588 -24.087 -12.837  0.00  0.00    +0.354 C 
BRANCH  14  15
ATOM     15  O   UNL     1      35.814 -25.429 -12.669  0.00  0.00    -0.476 OA
ATOM     16  H   UNL     1      35.988 -25.771 -11.814  0.00  0.00    +0.295 HD
ENDBRANCH  14  15
ENDBRANCH   7  14
BRANCH   4  17
ATOM     17  C   UNL     1      35.630 -23.630 -15.921  0.00  0.00    +0.040 C 
BRANCH  17  18
ATOM     18  C   UNL     1      36.557 -22.405 -15.797  0.00  0.00    +0.114 C 
BRANCH  18  20
ATOM     19  O   UNL     1      36.572 -22.183 -18.224  0.00  0.00    -0.250 OA
ATOM     20  C   UNL     1      36.833 -21.726 -17.121  0.00  0.00    +0.314 C 
BRANCH  20  21
ATOM     21  O   UNL     1      37.450 -20.527 -16.944  0.00  0.00    -0.480 OA
ATOM     22  H   UNL     1      37.212 -19.794 -17.478  0.00  0.00    +0.295 HD
ENDBRANCH  20  21
ENDBRANCH  18  20
ENDBRANCH  17  18
ENDBRANCH   4  17
TORSDOF 6
ENDMDL
MODEL 4
REMARK VINA RESULT:      -7.7     10.878     13.182
REMARK  Name = 446916
REMARK  6 active torsions:
REMARK  status: ('A' for Active; 'I' for Inactive)
REMARK    1  A    between atoms: C_4  and  C_17
REMARK    2  A    between atoms: CA_7  and  C_14
REMARK    3  A    between atoms: C_14  and  O_15
REMARK    4  A    between atoms: C_17  and  C_18
REMARK    5  A    between atoms: C_18  and  C_20
REMARK    6  A    between atoms: C_20  and  O_21
REMARK                            x       y       z     vdW  Elec       q    Type
REMARK                         _______ _______ _______ _____ _____    ______ ____
ROOT
ATOM      1 CL   UNL     1      37.694 -22.423 -15.521  0.00  0.00    -0.082 Cl
ATOM      2 CL   UNL     1      35.457 -21.459 -20.348  0.00  0.00    -0.082 Cl
ATOM      3  N   UNL     1      32.940 -23.412 -16.221  0.00  0.00    -0.348 N 
ATOM      4  C   UNL     1      34.666 -23.417 -14.824  0.00  0.00    +0.003 A 
ATOM      5  C   UNL     1      35.108 -22.906 -16.076  0.00  0.00    +0.024 A 
ATOM      6  C   UNL     1      34.006 -22.913 -16.934  0.00  0.00    +0.058 A 
ATOM      7  CA  UNL     1      33.329 -23.720 -14.944  0.00  0.00    +0.129 A 
ATOM      8  C   UNL     1      36.344 -22.436 -16.563  0.00  0.00    +0.060 C 
ATOM      9  C   UNL     1      34.079 -22.473 -18.261  0.00  0.00    +0.028 C 
ATOM     10  C   UNL     1      36.431 -21.992 -17.888  0.00  0.00    +0.023 C 
ATOM     11  C   UNL     1      35.316 -22.012 -18.721  0.00  0.00    +0.060 C 
ATOM     12  H   UNL     1      32.030 -23.531 -16.576  0.00  0.00    +0.166 HD
ENDROOT
BRANCH   7  14
ATOM     13  OXT UNL     1      31.737 -23.606 -13.161  0.00  0.00    -0.243 OA
ATOM     14  C   UNL     1      32.440 -24.259 -13.962  0.00  0.00    +0.354 C 
BRANCH  14  15
ATOM     15  O   UNL     1      32.403 -25.630 -13.955  0.00  0.00    -0.476 OA
ATOM     16  H   UNL     1      33.173 -26.120 -14.167  0.00  0.00    +0.295 HD
ENDBRANCH  14  15
ENDBRANCH   7  14
BRANCH   4  17
ATOM     17  C   UNL     1      35.466 -23.605 -13.593  0.00  0.00    +0.040 C 
BRANCH  17  18
ATOM     18  C   UNL     1      36.240 -24.936 -13.533  0.00  0.00    +0.114 C 
BRANCH  18  20
ATOM     19  O   UNL     1      37.165 -24.419 -11.337  0.00  0.00    -0.250 OA
ATOM     20  C   UNL     1      36.795 -25.246 -12.159  0.00  0.00    +0.314 C 
BRANCH  20  21
ATOM     21  O   UNL     1      36.868 -26.587 -11.944  0.00  0.00    -0.480 OA
ATOM     22  H   UNL     1      36.087 -27.076 -11.773  0.00  0.00    +0.295 HD
ENDBRANCH  20  21
ENDBRANCH  18  20
ENDBRANCH  17  18
ENDBRANCH   4  17
TORSDOF 6
ENDMDL
MODEL 5
REMARK VINA RESULT:      -7.7      3.600      6.030
REMARK  Name = 446916
REMARK  6 active torsions:
REMARK  status: ('A' for Active; 'I' for Inactive)
REMARK    1  A    between atoms: C_4  and  C_17
REMARK    2  A    between atoms: CA_7  and  C_14
REMARK    3  A    between atoms: C_14  and  O_15
REMARK    4  A    between atoms: C_17  and  C_18
REMARK    5  A    between atoms: C_18  and  C_20
REMARK    6  A    between atoms: C_20  and  O_21
REMARK                            x       y       z     vdW  Elec       q    Type
REMARK                         _______ _______ _______ _____ _____    ______ ____
ROOT
ATOM      1 CL   UNL     1      30.901 -11.317 -20.881  0.00  0.00    -0.082 Cl
ATOM      2 CL   UNL     1      33.038  -7.320 -23.828  0.00  0.00    -0.082 Cl
ATOM      3  N   UNL     1      34.176 -12.378 -24.376  0.00  0.00    -0.348 N 
ATOM      4  C   UNL     1      32.836 -13.136 -22.775  0.00  0.00    +0.003 A 
ATOM      5  C   UNL     1      32.706 -11.720 -22.833  0.00  0.00    +0.024 A 
ATOM      6  C   UNL     1      33.557 -11.270 -23.844  0.00  0.00    +0.058 A 
ATOM      7  CA  UNL     1      33.747 -13.511 -23.736  0.00  0.00    +0.129 A 
ATOM      8  C   UNL     1      31.943 -10.776 -22.117  0.00  0.00    +0.060 C 
ATOM      9  C   UNL     1      33.684  -9.917 -24.178  0.00  0.00    +0.028 C 
ATOM     10  C   UNL     1      32.059  -9.419 -22.441  0.00  0.00    +0.023 C 
ATOM     11  C   UNL     1      32.917  -8.998 -23.455  0.00  0.00    +0.060 C 
ATOM     12  H   UNL     1      34.832 -12.360 -25.109  0.00  0.00    +0.166 HD
ENDROOT
BRANCH   7  14
ATOM     13  OXT UNL     1      35.168 -15.425 -23.532  0.00  0.00    -0.243 OA
ATOM     14  C   UNL     1      34.213 -14.822 -24.067  0.00  0.00    +0.354 C 
BRANCH  14  15
ATOM     15  O   UNL     1      33.498 -15.417 -25.073  0.00  0.00    -0.476 OA
ATOM     16  H   UNL     1      33.000 -16.192 -24.899  0.00  0.00    +0.295 HD
ENDBRANCH  14  15
ENDBRANCH   7  14
BRANCH   4  17
ATOM     17  C   UNL     1      32.138 -14.071 -21.865  0.00  0.00    +0.040 C 
BRANCH  17  18
ATOM     18  C   UNL     1      32.836 -14.277 -20.506  0.00  0.00    +0.114 C 
BRANCH  18  20
ATOM     19  O   UNL     1      34.990 -15.333 -20.073  0.00  0.00    -0.250 OA
ATOM     20  C   UNL     1      33.854 -15.397 -20.519  0.00  0.00    +0.314 C 
BRANCH  20  21
ATOM     21  O   UNL     1      33.361 -16.508 -21.129  0.00  0.00    -0.480 OA
ATOM     22  H   UNL     1      32.674 -16.429 -21.762  0.00  0.00    +0.295 HD
ENDBRANCH  20  21
ENDBRANCH  18  20
ENDBRANCH  17  18
ENDBRANCH   4  17
TORSDOF 6
ENDMDL
MODEL 6
REMARK VINA RESULT:      -7.6      3.086      5.175
REMARK  Name = 446916
REMARK  6 active torsions:
REMARK  status: ('A' for Active; 'I' for Inactive)
REMARK    1  A    between atoms: C_4  and  C_17
REMARK    2  A    between atoms: CA_7  and  C_14
REMARK    3  A    between atoms: C_14  and  O_15
REMARK    4  A    between atoms: C_17  and  C_18
REMARK    5  A    between atoms: C_18  and  C_20
REMARK    6  A    between atoms: C_20  and  O_21
REMARK                            x       y       z     vdW  Elec       q    Type
REMARK                         _______ _______ _______ _____ _____    ______ ____
ROOT
ATOM      1 CL   UNL     1      34.589 -15.528 -19.979  0.00  0.00    -0.082 Cl
ATOM      2 CL   UNL     1      31.071 -11.446 -20.405  0.00  0.00    -0.082 Cl
ATOM      3  N   UNL     1      32.861 -14.281 -24.397  0.00  0.00    -0.348 N 
ATOM      4  C   UNL     1      34.177 -15.622 -23.213  0.00  0.00    +0.003 A 
ATOM      5  C   UNL     1      33.544 -14.714 -22.318  0.00  0.00    +0.024 A 
ATOM      6  C   UNL     1      32.725 -13.885 -23.086  0.00  0.00    +0.058 A 
ATOM      7  CA  UNL     1      33.737 -15.331 -24.484  0.00  0.00    +0.129 A 
ATOM      8  C   UNL     1      33.591 -14.519 -20.924  0.00  0.00    +0.060 C 
ATOM      9  C   UNL     1      31.947 -12.864 -22.527  0.00  0.00    +0.028 C 
ATOM     10  C   UNL     1      32.818 -13.502 -20.351  0.00  0.00    +0.023 C 
ATOM     11  C   UNL     1      32.010 -12.689 -21.142  0.00  0.00    +0.060 C 
ATOM     12  H   UNL     1      32.397 -13.871 -25.161  0.00  0.00    +0.166 HD
ENDROOT
BRANCH   7  14
ATOM     13  OXT UNL     1      34.897 -16.899 -25.870  0.00  0.00    -0.243 OA
ATOM     14  C   UNL     1      34.083 -15.962 -25.720  0.00  0.00    +0.354 C 
BRANCH  14  15
ATOM     15  O   UNL     1      33.422 -15.442 -26.802  0.00  0.00    -0.476 OA
ATOM     16  H   UNL     1      33.896 -15.224 -27.581  0.00  0.00    +0.295 HD
ENDBRANCH  14  15
ENDBRANCH   7  14
BRANCH   4  17
ATOM     17  C   UNL     1      35.137 -16.697 -22.879  0.00  0.00    +0.040 C 
BRANCH  17  18
ATOM     18  C   UNL     1      34.498 -18.084 -22.677  0.00  0.00    +0.114 C 
BRANCH  18  20
ATOM     19  O   UNL     1      35.844 -18.641 -20.722  0.00  0.00    -0.250 OA
ATOM     20  C   UNL     1      34.773 -18.678 -21.312  0.00  0.00    +0.314 C 
BRANCH  20  21
ATOM     21  O   UNL     1      33.674 -19.304 -20.812  0.00  0.00    -0.480 OA
ATOM     22  H   UNL     1      32.854 -19.239 -21.261  0.00  0.00    +0.295 HD
ENDBRANCH  20  21
ENDBRANCH  18  20
ENDBRANCH  17  18
ENDBRANCH   4  17
TORSDOF 6
ENDMDL
MODEL 7
REMARK VINA RESULT:      -7.5      3.906      5.856
REMARK  Name = 446916
REMARK  6 active torsions:
REMARK  status: ('A' for Active; 'I' for Inactive)
REMARK    1  A    between atoms: C_4  and  C_17
REMARK    2  A    between atoms: CA_7  and  C_14
REMARK    3  A    between atoms: C_14  and  O_15
REMARK    4  A    between atoms: C_17  and  C_18
REMARK    5  A    between atoms: C_18  and  C_20
REMARK    6  A    between atoms: C_20  and  O_21
REMARK                            x       y       z     vdW  Elec       q    Type
REMARK                         _______ _______ _______ _____ _____    ______ ____
ROOT
ATOM      1 CL   UNL     1      33.844 -12.934 -24.631  0.00  0.00    -0.082 Cl
ATOM      2 CL   UNL     1      30.735 -10.901 -20.704  0.00  0.00    -0.082 Cl
ATOM      3  N   UNL     1      33.210 -15.484 -20.489  0.00  0.00    -0.348 N 
ATOM      4  C   UNL     1      34.155 -15.380 -22.496  0.00  0.00    +0.003 A 
ATOM      5  C   UNL     1      33.390 -14.195 -22.302  0.00  0.00    +0.024 A 
ATOM      6  C   UNL     1      32.809 -14.286 -21.035  0.00  0.00    +0.058 A 
ATOM      7  CA  UNL     1      34.024 -16.153 -21.365  0.00  0.00    +0.129 A 
ATOM      8  C   UNL     1      33.137 -13.052 -23.085  0.00  0.00    +0.060 C 
ATOM      9  C   UNL     1      31.983 -13.286 -20.510  0.00  0.00    +0.028 C 
ATOM     10  C   UNL     1      32.313 -12.043 -22.572  0.00  0.00    +0.023 C 
ATOM     11  C   UNL     1      31.746 -12.160 -21.305  0.00  0.00    +0.060 C 
ATOM     12  H   UNL     1      32.951 -15.813 -19.599  0.00  0.00    +0.166 HD
ENDROOT
BRANCH   7  14
ATOM     13  OXT UNL     1      35.765 -17.645 -20.681  0.00  0.00    -0.243 OA
ATOM     14  C   UNL     1      34.600 -17.430 -21.080  0.00  0.00    +0.354 C 
BRANCH  14  15
ATOM     15  O   UNL     1      33.737 -18.475 -21.283  0.00  0.00    -0.476 OA
ATOM     16  H   UNL     1      34.069 -19.349 -21.358  0.00  0.00    +0.295 HD
ENDBRANCH  14  15
ENDBRANCH   7  14
BRANCH   4  17
ATOM     17  C   UNL     1      34.957 -15.752 -23.683  0.00  0.00    +0.040 C 
BRANCH  17  18
ATOM     18  C   UNL     1      34.230 -16.676 -24.680  0.00  0.00    +0.114 C 
BRANCH  18  20
ATOM     19  O   UNL     1      34.102 -19.074 -25.102  0.00  0.00    -0.250 OA
ATOM     20  C   UNL     1      34.670 -18.121 -24.587  0.00  0.00    +0.314 C 
BRANCH  20  21
ATOM     21  O   UNL     1      35.784 -18.253 -23.817  0.00  0.00    -0.480 OA
ATOM     22  H   UNL     1      35.933 -17.660 -23.106  0.00  0.00    +0.295 HD
ENDBRANCH  20  21
ENDBRANCH  18  20
ENDBRANCH  17  18
ENDBRANCH   4  17
TORSDOF 6
ENDMDL
MODEL 8
REMARK VINA RESULT:      -7.4      2.171      3.516
REMARK  Name = 446916
REMARK  6 active torsions:
REMARK  status: ('A' for Active; 'I' for Inactive)
REMARK    1  A    between atoms: C_4  and  C_17
REMARK    2  A    between atoms: CA_7  and  C_14
REMARK    3  A    between atoms: C_14  and  O_15
REMARK    4  A    between atoms: C_17  and  C_18
REMARK    5  A    between atoms: C_18  and  C_20
REMARK    6  A    between atoms: C_20  and  O_21
REMARK                            x       y       z     vdW  Elec       q    Type
REMARK                         _______ _______ _______ _____ _____    ______ ____
ROOT
ATOM      1 CL   UNL     1      34.118 -16.845 -25.570  0.00  0.00    -0.082 Cl
ATOM      2 CL   UNL     1      36.244 -18.687 -20.953  0.00  0.00    -0.082 Cl
ATOM      3  N   UNL     1      33.594 -14.226 -21.456  0.00  0.00    -0.348 N 
ATOM      4  C   UNL     1      33.181 -14.395 -23.631  0.00  0.00    +0.003 A 
ATOM      5  C   UNL     1      33.925 -15.540 -23.228  0.00  0.00    +0.024 A 
ATOM      6  C   UNL     1      34.170 -15.409 -21.860  0.00  0.00    +0.058 A 
ATOM      7  CA  UNL     1      32.994 -13.606 -22.520  0.00  0.00    +0.129 A 
ATOM      8  C   UNL     1      34.414 -16.678 -23.900  0.00  0.00    +0.060 C 
ATOM      9  C   UNL     1      34.884 -16.363 -21.125  0.00  0.00    +0.028 C 
ATOM     10  C   UNL     1      35.129 -17.641 -23.178  0.00  0.00    +0.023 C 
ATOM     11  C   UNL     1      35.360 -17.483 -21.813  0.00  0.00    +0.060 C 
ATOM     12  H   UNL     1      33.610 -13.876 -20.537  0.00  0.00    +0.166 HD
ENDROOT
BRANCH   7  14
ATOM     13  OXT UNL     1      32.653 -11.275 -22.941  0.00  0.00    -0.243 OA
ATOM     14  C   UNL     1      32.309 -12.355 -22.414  0.00  0.00    +0.354 C 
BRANCH  14  15
ATOM     15  O   UNL     1      31.174 -12.418 -21.647  0.00  0.00    -0.476 OA
ATOM     16  H   UNL     1      30.337 -12.515 -22.058  0.00  0.00    +0.295 HD
ENDBRANCH  14  15
ENDBRANCH   7  14
BRANCH   4  17
ATOM     17  C   UNL     1      32.683 -14.075 -24.987  0.00  0.00    +0.040 C 
BRANCH  17  18
ATOM     18  C   UNL     1      33.571 -13.095 -25.778  0.00  0.00    +0.114 C 
BRANCH  18  20
ATOM     19  O   UNL     1      34.352 -13.603 -28.031  0.00  0.00    -0.250 OA
ATOM     20  C   UNL     1      33.453 -13.257 -27.279  0.00  0.00    +0.314 C 
BRANCH  20  21
ATOM     21  O   UNL     1      32.206 -12.934 -27.716  0.00  0.00    -0.480 OA
ATOM     22  H   UNL     1      32.101 -12.342 -28.434  0.00  0.00    +0.295 HD
ENDBRANCH  20  21
ENDBRANCH  18  20
ENDBRANCH  17  18
ENDBRANCH   4  17
TORSDOF 6
ENDMDL
MODEL 9
REMARK VINA RESULT:      -7.3      2.692      3.548
REMARK  Name = 446916
REMARK  6 active torsions:
REMARK  status: ('A' for Active; 'I' for Inactive)
REMARK    1  A    between atoms: C_4  and  C_17
REMARK    2  A    between atoms: CA_7  and  C_14
REMARK    3  A    between atoms: C_14  and  O_15
REMARK    4  A    between atoms: C_17  and  C_18
REMARK    5  A    between atoms: C_18  and  C_20
REMARK    6  A    between atoms: C_20  and  O_21
REMARK                            x       y       z     vdW  Elec       q    Type
REMARK                         _______ _______ _______ _____ _____    ______ ____
ROOT
ATOM      1 CL   UNL     1      34.324 -15.715 -25.221  0.00  0.00    -0.082 Cl
ATOM      2 CL   UNL     1      36.099 -18.843 -21.184  0.00  0.00    -0.082 Cl
ATOM      3  N   UNL     1      33.191 -14.557 -20.592  0.00  0.00    -0.348 N 
ATOM      4  C   UNL     1      33.016 -14.044 -22.745  0.00  0.00    +0.003 A 
ATOM      5  C   UNL     1      33.797 -15.228 -22.631  0.00  0.00    +0.024 A 
ATOM      6  C   UNL     1      33.891 -15.528 -21.271  0.00  0.00    +0.058 A 
ATOM      7  CA  UNL     1      32.658 -13.655 -21.474  0.00  0.00    +0.129 A 
ATOM      8  C   UNL     1      34.435 -16.075 -23.559  0.00  0.00    +0.060 C 
ATOM      9  C   UNL     1      34.595 -16.638 -20.789  0.00  0.00    +0.028 C 
ATOM     10  C   UNL     1      35.142 -17.189 -23.091  0.00  0.00    +0.023 C 
ATOM     11  C   UNL     1      35.220 -17.464 -21.728  0.00  0.00    +0.060 C 
ATOM     12  H   UNL     1      33.087 -14.516 -19.614  0.00  0.00    +0.166 HD
ENDROOT
BRANCH   7  14
ATOM     13  OXT UNL     1      31.944 -11.937 -19.969  0.00  0.00    -0.243 OA
ATOM     14  C   UNL     1      31.875 -12.529 -21.068  0.00  0.00    +0.354 C 
BRANCH  14  15
ATOM     15  O   UNL     1      30.986 -12.109 -22.024  0.00  0.00    -0.476 OA
ATOM     16  H   UNL     1      30.745 -12.684 -22.724  0.00  0.00    +0.295 HD
ENDBRANCH  14  15
ENDBRANCH   7  14
BRANCH   4  17
ATOM     17  C   UNL     1      32.636 -13.329 -23.984  0.00  0.00    +0.040 C 
BRANCH  17  18
ATOM     18  C   UNL     1      33.746 -12.437 -24.572  0.00  0.00    +0.114 C 
BRANCH  18  20
ATOM     19  O   UNL     1      32.798 -10.432 -23.561  0.00  0.00    -0.250 OA
ATOM     20  C   UNL     1      33.769 -11.042 -23.984  0.00  0.00    +0.314 C 
BRANCH  20  21
ATOM     21  O   UNL     1      35.022 -10.514 -24.008  0.00  0.00    -0.480 OA
ATOM     22  H   UNL     1      35.617 -10.752 -24.693  0.00  0.00    +0.295 HD
ENDBRANCH  20  21
ENDBRANCH  18  20
ENDBRANCH  17  18
ENDBRANCH   4  17
TORSDOF 6
ENDMDL
