MODEL 1
REMARK VINA RESULT:      -8.0      0.000      0.000
REMARK  Name = 5287976
REMARK  10 active torsions:
REMARK  status: ('A' for Active; 'I' for Inactive)
REMARK    1  A    between atoms: C_1  and  N_2
REMARK    2  A    between atoms: C_1  and  C_6
REMARK    3  A    between atoms: C_1  and  C_13
REMARK    4  A    between atoms: C_6  and  C_7
REMARK    5  A    between atoms: C_13  and  O_14
REMARK    6  A    between atoms: C_13  and  C_16
REMARK    7  A    between atoms: C_16  and  C_17
REMARK    8  A    between atoms: C_17  and  C_18
REMARK    9  A    between atoms: C_17  and  C_22
REMARK   10  A    between atoms: C_22  and  O_23
REMARK                            x       y       z     vdW  Elec       q    Type
REMARK                         _______ _______ _______ _____ _____    ______ ____
ROOT
ATOM      1  C   UNL     1      34.744 -18.199 -23.396  0.00  0.00    -0.038 C 
ENDROOT
BRANCH   1   2
ATOM      2  N   UNL     1      34.913 -19.302 -24.351  0.00  0.00    +0.383 N 
ATOM      3  H   UNL     1      34.470 -20.142 -23.981  0.00  0.00    -0.089 HD
ATOM      4  H   UNL     1      35.907 -19.477 -24.495  0.00  0.00    -0.089 HD
ATOM      5  H   UNL     1      34.479 -19.051 -25.239  0.00  0.00    -0.089 HD
ENDBRANCH   1   2
BRANCH   1   6
ATOM      6  C   UNL     1      35.684 -18.462 -22.203  0.00  0.00    -0.020 C 
BRANCH   6   7
ATOM      7  C   UNL     1      35.018 -19.156 -21.015  0.00  0.00    -0.002 C 
ATOM      8  C   UNL     1      33.535 -19.423 -21.305  0.00  0.00    -0.000 C 
ATOM      9  C   UNL     1      35.752 -20.459 -20.670  0.00  0.00    -0.000 C 
ATOM     10  C   UNL     1      32.861 -20.164 -20.152  0.00  0.00    -0.000 C 
ATOM     11  C   UNL     1      35.073 -21.199 -19.518  0.00  0.00    -0.000 C 
ATOM     12  C   UNL     1      33.597 -21.455 -19.806  0.00  0.00    -0.000 C 
ENDBRANCH   6   7
ENDBRANCH   1   6
BRANCH   1  13
ATOM     13  C   UNL     1      34.922 -16.843 -24.124  0.00  0.00    +0.091 C 
BRANCH  13  14
ATOM     14  O   UNL     1      33.944 -16.729 -25.158  0.00  0.00    -0.387 OA
ATOM     15  H   UNL     1      33.056 -16.750 -24.767  0.00  0.00    +0.210 HD
ENDBRANCH  13  14
BRANCH  13  16
ATOM     16  C   UNL     1      34.824 -15.602 -23.212  0.00  0.00    +0.038 C 
BRANCH  16  17
ATOM     17  C   UNL     1      33.375 -15.294 -22.762  0.00  0.00    +0.101 C 
BRANCH  17  18
ATOM     18  C   UNL     1      33.216 -15.115 -21.228  0.00  0.00    +0.011 C 
ATOM     19  C   UNL     1      32.157 -16.032 -20.609  0.00  0.00    +0.001 C 
ATOM     20  C   UNL     1      34.552 -15.301 -20.502  0.00  0.00    +0.001 C 
ENDBRANCH  17  18
BRANCH  17  22
ATOM     21  O   UNL     1      33.124 -13.715 -24.608  0.00  0.00    -0.250 OA
ATOM     22  C   UNL     1      32.843 -14.050 -23.465  0.00  0.00    +0.313 C 
BRANCH  22  23
ATOM     23  O   UNL     1      31.990 -13.341 -22.680  0.00  0.00    -0.480 OA
ATOM     24  H   UNL     1      31.938 -12.409 -22.768  0.00  0.00    +0.295 HD
ENDBRANCH  22  23
ENDBRANCH  17  22
ENDBRANCH  16  17
ENDBRANCH  13  16
ENDBRANCH   1  13
TORSDOF 10
ENDMDL
MODEL 2
REMARK VINA RESULT:      -7.9      1.608      2.641
REMARK  Name = 5287976
REMARK  10 active torsions:
REMARK  status: ('A' for Active; 'I' for Inactive)
REMARK    1  A    between atoms: C_1  and  N_2
REMARK    2  A    between atoms: C_1  and  C_6
REMARK    3  A    between atoms: C_1  and  C_13
REMARK    4  A    between atoms: C_6  and  C_7
REMARK    5  A    between atoms: C_13  and  O_14
REMARK    6  A    between atoms: C_13  and  C_16
REMARK    7  A    between atoms: C_16  and  C_17
REMARK    8  A    between atoms: C_17  and  C_18
REMARK    9  A    between atoms: C_17  and  C_22
REMARK   10  A    between atoms: C_22  and  O_23
REMARK                            x       y       z     vdW  Elec       q    Type
REMARK                         _______ _______ _______ _____ _____    ______ ____
ROOT
ATOM      1  C   UNL     1      34.867 -17.769 -22.550  0.00  0.00    -0.038 C 
ENDROOT
BRANCH   1   2
ATOM      2  N   UNL     1      35.687 -17.673 -23.765  0.00  0.00    +0.383 N 
ATOM      3  H   UNL     1      36.670 -17.789 -23.522  0.00  0.00    -0.089 HD
ATOM      4  H   UNL     1      35.549 -16.759 -24.196  0.00  0.00    -0.089 HD
ATOM      5  H   UNL     1      35.409 -18.403 -24.420  0.00  0.00    -0.089 HD
ENDBRANCH   1   2
BRANCH   1   6
ATOM      6  C   UNL     1      35.677 -18.552 -21.497  0.00  0.00    -0.020 C 
BRANCH   6   7
ATOM      7  C   UNL     1      35.070 -19.898 -21.106  0.00  0.00    -0.002 C 
ATOM      8  C   UNL     1      35.929 -20.592 -20.041  0.00  0.00    -0.000 C 
ATOM      9  C   UNL     1      33.627 -19.718 -20.612  0.00  0.00    -0.000 C 
ATOM     10  C   UNL     1      35.313 -21.917 -19.595  0.00  0.00    -0.000 C 
ATOM     11  C   UNL     1      33.015 -21.045 -20.165  0.00  0.00    -0.000 C 
ATOM     12  C   UNL     1      33.877 -21.735 -19.113  0.00  0.00    -0.000 C 
ENDBRANCH   6   7
ENDBRANCH   1   6
BRANCH   1  13
ATOM     13  C   UNL     1      34.379 -16.360 -22.131  0.00  0.00    +0.091 C 
BRANCH  13  14
ATOM     14  O   UNL     1      35.063 -15.956 -20.943  0.00  0.00    -0.387 OA
ATOM     15  H   UNL     1      36.018 -16.076 -21.064  0.00  0.00    +0.210 HD
ENDBRANCH  13  14
BRANCH  13  16
ATOM     16  C   UNL     1      34.564 -15.267 -23.203  0.00  0.00    +0.038 C 
BRANCH  16  17
ATOM     17  C   UNL     1      33.261 -14.949 -23.976  0.00  0.00    +0.101 C 
BRANCH  17  18
ATOM     18  C   UNL     1      32.794 -13.474 -23.848  0.00  0.00    +0.011 C 
ATOM     19  C   UNL     1      32.248 -13.121 -22.462  0.00  0.00    +0.001 C 
ATOM     20  C   UNL     1      33.913 -12.499 -24.229  0.00  0.00    +0.001 C 
ENDBRANCH  17  18
BRANCH  17  22
ATOM     21  O   UNL     1      34.295 -16.000 -25.924  0.00  0.00    -0.250 OA
ATOM     22  C   UNL     1      33.411 -15.296 -25.454  0.00  0.00    +0.313 C 
BRANCH  22  23
ATOM     23  O   UNL     1      32.430 -14.743 -26.214  0.00  0.00    -0.480 OA
ATOM     24  H   UNL     1      32.375 -14.945 -27.128  0.00  0.00    +0.295 HD
ENDBRANCH  22  23
ENDBRANCH  17  22
ENDBRANCH  16  17
ENDBRANCH  13  16
ENDBRANCH   1  13
TORSDOF 10
ENDMDL
MODEL 3
REMARK VINA RESULT:      -7.7      1.735      2.604
REMARK  Name = 5287976
REMARK  10 active torsions:
REMARK  status: ('A' for Active; 'I' for Inactive)
REMARK    1  A    between atoms: C_1  and  N_2
REMARK    2  A    between atoms: C_1  and  C_6
REMARK    3  A    between atoms: C_1  and  C_13
REMARK    4  A    between atoms: C_6  and  C_7
REMARK    5  A    between atoms: C_13  and  O_14
REMARK    6  A    between atoms: C_13  and  C_16
REMARK    7  A    between atoms: C_16  and  C_17
REMARK    8  A    between atoms: C_17  and  C_18
REMARK    9  A    between atoms: C_17  and  C_22
REMARK   10  A    between atoms: C_22  and  O_23
REMARK                            x       y       z     vdW  Elec       q    Type
REMARK                         _______ _______ _______ _____ _____    ______ ____
ROOT
ATOM      1  C   UNL     1      35.339 -17.282 -21.966  0.00  0.00    -0.038 C 
ENDROOT
BRANCH   1   2
ATOM      2  N   UNL     1      34.944 -16.698 -20.677  0.00  0.00    +0.383 N 
ATOM      3  H   UNL     1      34.975 -15.681 -20.741  0.00  0.00    -0.089 HD
ATOM      4  H   UNL     1      35.587 -17.013 -19.951  0.00  0.00    -0.089 HD
ATOM      5  H   UNL     1      33.997 -16.996 -20.446  0.00  0.00    -0.089 HD
ENDBRANCH   1   2
BRANCH   1   6
ATOM      6  C   UNL     1      34.585 -18.618 -22.127  0.00  0.00    -0.020 C 
BRANCH   6   7
ATOM      7  C   UNL     1      34.450 -19.426 -20.838  0.00  0.00    -0.002 C 
ATOM      8  C   UNL     1      33.097 -20.148 -20.789  0.00  0.00    -0.000 C 
ATOM      9  C   UNL     1      35.608 -20.425 -20.701  0.00  0.00    -0.000 C 
ATOM     10  C   UNL     1      32.960 -21.006 -19.533  0.00  0.00    -0.000 C 
ATOM     11  C   UNL     1      35.467 -21.282 -19.444  0.00  0.00    -0.000 C 
ATOM     12  C   UNL     1      34.117 -21.991 -19.396  0.00  0.00    -0.000 C 
ENDBRANCH   6   7
ENDBRANCH   1   6
BRANCH   1  13
ATOM     13  C   UNL     1      35.141 -16.242 -23.097  0.00  0.00    +0.091 C 
BRANCH  13  14
ATOM     14  O   UNL     1      35.521 -16.824 -24.346  0.00  0.00    -0.387 OA
ATOM     15  H   UNL     1      35.028 -16.396 -25.064  0.00  0.00    +0.210 HD
ENDBRANCH  13  14
BRANCH  13  16
ATOM     16  C   UNL     1      33.707 -15.690 -23.225  0.00  0.00    +0.038 C 
BRANCH  16  17
ATOM     17  C   UNL     1      33.623 -14.162 -22.992  0.00  0.00    +0.101 C 
BRANCH  17  18
ATOM     18  C   UNL     1      33.077 -13.367 -24.208  0.00  0.00    +0.011 C 
ATOM     19  C   UNL     1      33.891 -12.113 -24.538  0.00  0.00    +0.001 C 
ATOM     20  C   UNL     1      32.965 -14.256 -25.452  0.00  0.00    +0.001 C 
ENDBRANCH  17  18
BRANCH  17  22
ATOM     21  O   UNL     1      32.995 -14.242 -20.633  0.00  0.00    -0.250 OA
ATOM     22  C   UNL     1      32.767 -13.848 -21.769  0.00  0.00    +0.313 C 
BRANCH  22  23
ATOM     23  O   UNL     1      31.708 -13.052 -22.073  0.00  0.00    -0.480 OA
ATOM     24  H   UNL     1      31.820 -12.123 -22.123  0.00  0.00    +0.295 HD
ENDBRANCH  22  23
ENDBRANCH  17  22
ENDBRANCH  16  17
ENDBRANCH  13  16
ENDBRANCH   1  13
TORSDOF 10
ENDMDL
MODEL 4
REMARK VINA RESULT:      -7.3      9.651     11.980
REMARK  Name = 5287976
REMARK  10 active torsions:
REMARK  status: ('A' for Active; 'I' for Inactive)
REMARK    1  A    between atoms: C_1  and  N_2
REMARK    2  A    between atoms: C_1  and  C_6
REMARK    3  A    between atoms: C_1  and  C_13
REMARK    4  A    between atoms: C_6  and  C_7
REMARK    5  A    between atoms: C_13  and  O_14
REMARK    6  A    between atoms: C_13  and  C_16
REMARK    7  A    between atoms: C_16  and  C_17
REMARK    8  A    between atoms: C_17  and  C_18
REMARK    9  A    between atoms: C_17  and  C_22
REMARK   10  A    between atoms: C_22  and  O_23
REMARK                            x       y       z     vdW  Elec       q    Type
REMARK                         _______ _______ _______ _____ _____    ______ ____
ROOT
ATOM      1  C   UNL     1      35.370 -23.981 -14.740  0.00  0.00    -0.038 C 
ENDROOT
BRANCH   1   2
ATOM      2  N   UNL     1      35.417 -23.121 -13.551  0.00  0.00    +0.383 N 
ATOM      3  H   UNL     1      36.380 -22.835 -13.376  0.00  0.00    -0.089 HD
ATOM      4  H   UNL     1      35.064 -23.636 -12.745  0.00  0.00    -0.089 HD
ATOM      5  H   UNL     1      34.839 -22.295 -13.706  0.00  0.00    -0.089 HD
ENDBRANCH   1   2
BRANCH   1   6
ATOM      6  C   UNL     1      34.185 -23.517 -15.610  0.00  0.00    -0.020 C 
BRANCH   6   7
ATOM      7  C   UNL     1      32.842 -23.485 -14.883  0.00  0.00    -0.002 C 
ATOM      8  C   UNL     1      31.716 -23.074 -15.841  0.00  0.00    -0.000 C 
ATOM      9  C   UNL     1      32.543 -24.846 -14.239  0.00  0.00    -0.000 C 
ATOM     10  C   UNL     1      30.354 -23.087 -15.150  0.00  0.00    -0.000 C 
ATOM     11  C   UNL     1      31.179 -24.856 -13.550  0.00  0.00    -0.000 C 
ATOM     12  C   UNL     1      30.064 -24.438 -14.503  0.00  0.00    -0.000 C 
ENDBRANCH   6   7
ENDBRANCH   1   6
BRANCH   1  13
ATOM     13  C   UNL     1      36.758 -24.005 -15.428  0.00  0.00    +0.091 C 
BRANCH  13  14
ATOM     14  O   UNL     1      37.503 -22.852 -15.031  0.00  0.00    -0.387 OA
ATOM     15  H   UNL     1      37.228 -22.582 -14.140  0.00  0.00    +0.210 HD
ENDBRANCH  13  14
BRANCH  13  16
ATOM     16  C   UNL     1      37.602 -25.262 -15.137  0.00  0.00    +0.038 C 
BRANCH  16  17
ATOM     17  C   UNL     1      38.819 -24.977 -14.224  0.00  0.00    +0.101 C 
BRANCH  17  18
ATOM     18  C   UNL     1      38.561 -25.264 -12.720  0.00  0.00    +0.011 C 
ATOM     19  C   UNL     1      38.380 -23.999 -11.876  0.00  0.00    +0.001 C 
ATOM     20  C   UNL     1      37.357 -26.193 -12.527  0.00  0.00    +0.001 C 
ENDBRANCH  17  18
BRANCH  17  22
ATOM     21  O   UNL     1      40.777 -26.409 -13.939  0.00  0.00    -0.250 OA
ATOM     22  C   UNL     1      40.036 -25.777 -14.679  0.00  0.00    +0.313 C 
BRANCH  22  23
ATOM     23  O   UNL     1      40.208 -25.728 -16.026  0.00  0.00    -0.480 OA
ATOM     24  H   UNL     1      41.066 -25.824 -16.392  0.00  0.00    +0.295 HD
ENDBRANCH  22  23
ENDBRANCH  17  22
ENDBRANCH  16  17
ENDBRANCH  13  16
ENDBRANCH   1  13
TORSDOF 10
ENDMDL
MODEL 5
REMARK VINA RESULT:      -7.2      2.727      6.454
REMARK  Name = 5287976
REMARK  10 active torsions:
REMARK  status: ('A' for Active; 'I' for Inactive)
REMARK    1  A    between atoms: C_1  and  N_2
REMARK    2  A    between atoms: C_1  and  C_6
REMARK    3  A    between atoms: C_1  and  C_13
REMARK    4  A    between atoms: C_6  and  C_7
REMARK    5  A    between atoms: C_13  and  O_14
REMARK    6  A    between atoms: C_13  and  C_16
REMARK    7  A    between atoms: C_16  and  C_17
REMARK    8  A    between atoms: C_17  and  C_18
REMARK    9  A    between atoms: C_17  and  C_22
REMARK   10  A    between atoms: C_22  and  O_23
REMARK                            x       y       z     vdW  Elec       q    Type
REMARK                         _______ _______ _______ _____ _____    ______ ____
ROOT
ATOM      1  C   UNL     1      33.396 -14.814 -21.865  0.00  0.00    -0.038 C 
ENDROOT
BRANCH   1   2
ATOM      2  N   UNL     1      32.725 -14.194 -20.716  0.00  0.00    +0.383 N 
ATOM      3  H   UNL     1      33.408 -14.008 -19.983  0.00  0.00    -0.089 HD
ATOM      4  H   UNL     1      32.008 -14.825 -20.360  0.00  0.00    -0.089 HD
ATOM      5  H   UNL     1      32.292 -13.318 -21.008  0.00  0.00    -0.089 HD
ENDBRANCH   1   2
BRANCH   1   6
ATOM      6  C   UNL     1      33.977 -13.683 -22.738  0.00  0.00    -0.020 C 
BRANCH   6   7
ATOM      7  C   UNL     1      33.326 -13.549 -24.113  0.00  0.00    -0.002 C 
ATOM      8  C   UNL     1      33.966 -12.402 -24.907  0.00  0.00    -0.000 C 
ATOM      9  C   UNL     1      33.422 -14.871 -24.889  0.00  0.00    -0.000 C 
ATOM     10  C   UNL     1      33.368 -12.283 -26.307  0.00  0.00    -0.000 C 
ATOM     11  C   UNL     1      32.824 -14.747 -26.289  0.00  0.00    -0.000 C 
ATOM     12  C   UNL     1      33.457 -13.600 -27.071  0.00  0.00    -0.000 C 
ENDBRANCH   6   7
ENDBRANCH   1   6
BRANCH   1  13
ATOM     13  C   UNL     1      34.401 -15.885 -21.373  0.00  0.00    +0.091 C 
BRANCH  13  14
ATOM     14  O   UNL     1      34.921 -15.497 -20.100  0.00  0.00    -0.387 OA
ATOM     15  H   UNL     1      35.617 -14.832 -20.225  0.00  0.00    +0.210 HD
ENDBRANCH  13  14
BRANCH  13  16
ATOM     16  C   UNL     1      33.823 -17.310 -21.256  0.00  0.00    +0.038 C 
BRANCH  16  17
ATOM     17  C   UNL     1      34.900 -18.414 -21.384  0.00  0.00    +0.101 C 
BRANCH  17  18
ATOM     18  C   UNL     1      34.369 -19.848 -21.119  0.00  0.00    +0.011 C 
ATOM     19  C   UNL     1      35.259 -20.670 -20.182  0.00  0.00    +0.001 C 
ATOM     20  C   UNL     1      32.934 -19.822 -20.582  0.00  0.00    +0.001 C 
ENDBRANCH  17  18
BRANCH  17  22
ATOM     21  O   UNL     1      34.952 -18.415 -23.826  0.00  0.00    -0.250 OA
ATOM     22  C   UNL     1      35.554 -18.374 -22.762  0.00  0.00    +0.313 C 
BRANCH  22  23
ATOM     23  O   UNL     1      36.907 -18.267 -22.686  0.00  0.00    -0.480 OA
ATOM     24  H   UNL     1      37.308 -17.941 -21.904  0.00  0.00    +0.295 HD
ENDBRANCH  22  23
ENDBRANCH  17  22
ENDBRANCH  16  17
ENDBRANCH  13  16
ENDBRANCH   1  13
TORSDOF 10
ENDMDL
MODEL 6
REMARK VINA RESULT:      -7.2      9.760     11.945
REMARK  Name = 5287976
REMARK  10 active torsions:
REMARK  status: ('A' for Active; 'I' for Inactive)
REMARK    1  A    between atoms: C_1  and  N_2
REMARK    2  A    between atoms: C_1  and  C_6
REMARK    3  A    between atoms: C_1  and  C_13
REMARK    4  A    between atoms: C_6  and  C_7
REMARK    5  A    between atoms: C_13  and  O_14
REMARK    6  A    between atoms: C_13  and  C_16
REMARK    7  A    between atoms: C_16  and  C_17
REMARK    8  A    between atoms: C_17  and  C_18
REMARK    9  A    between atoms: C_17  and  C_22
REMARK   10  A    between atoms: C_22  and  O_23
REMARK                            x       y       z     vdW  Elec       q    Type
REMARK                         _______ _______ _______ _____ _____    ______ ____
ROOT
ATOM      1  C   UNL     1      34.249 -24.633 -14.354  0.00  0.00    -0.038 C 
ENDROOT
BRANCH   1   2
ATOM      2  N   UNL     1      34.762 -24.659 -12.979  0.00  0.00    +0.383 N 
ATOM      3  H   UNL     1      35.036 -23.718 -12.700  0.00  0.00    -0.089 HD
ATOM      4  H   UNL     1      35.572 -25.277 -12.930  0.00  0.00    -0.089 HD
ATOM      5  H   UNL     1      34.034 -25.002 -12.352  0.00  0.00    -0.089 HD
ENDBRANCH   1   2
BRANCH   1   6
ATOM      6  C   UNL     1      33.152 -23.552 -14.427  0.00  0.00    -0.020 C 
BRANCH   6   7
ATOM      7  C   UNL     1      31.865 -24.003 -15.116  0.00  0.00    -0.002 C 
ATOM      8  C   UNL     1      31.108 -25.013 -14.244  0.00  0.00    -0.000 C 
ATOM      9  C   UNL     1      30.979 -22.796 -15.451  0.00  0.00    -0.000 C 
ATOM     10  C   UNL     1      29.790 -25.438 -14.888  0.00  0.00    -0.000 C 
ATOM     11  C   UNL     1      29.661 -23.225 -16.094  0.00  0.00    -0.000 C 
ATOM     12  C   UNL     1      28.915 -24.235 -15.228  0.00  0.00    -0.000 C 
ENDBRANCH   6   7
ENDBRANCH   1   6
BRANCH   1  13
ATOM     13  C   UNL     1      35.425 -24.485 -15.352  0.00  0.00    +0.091 C 
BRANCH  13  14
ATOM     14  O   UNL     1      35.149 -23.410 -16.252  0.00  0.00    -0.387 OA
ATOM     15  H   UNL     1      34.845 -22.638 -15.749  0.00  0.00    +0.210 HD
ENDBRANCH  13  14
BRANCH  13  16
ATOM     16  C   UNL     1      36.801 -24.241 -14.699  0.00  0.00    +0.038 C 
BRANCH  16  17
ATOM     17  C   UNL     1      37.778 -25.428 -14.882  0.00  0.00    +0.101 C 
BRANCH  17  18
ATOM     18  C   UNL     1      38.802 -25.586 -13.726  0.00  0.00    +0.011 C 
ATOM     19  C   UNL     1      40.260 -25.472 -14.179  0.00  0.00    +0.001 C 
ATOM     20  C   UNL     1      38.528 -24.588 -12.596  0.00  0.00    +0.001 C 
ENDBRANCH  17  18
BRANCH  17  22
ATOM     21  O   UNL     1      36.789 -27.286 -16.121  0.00  0.00    -0.250 OA
ATOM     22  C   UNL     1      37.013 -26.737 -15.051  0.00  0.00    +0.313 C 
BRANCH  22  23
ATOM     23  O   UNL     1      36.610 -27.254 -13.860  0.00  0.00    -0.480 OA
ATOM     24  H   UNL     1      36.252 -26.690 -13.202  0.00  0.00    +0.295 HD
ENDBRANCH  22  23
ENDBRANCH  17  22
ENDBRANCH  16  17
ENDBRANCH  13  16
ENDBRANCH   1  13
TORSDOF 10
ENDMDL
MODEL 7
REMARK VINA RESULT:      -7.1      9.042     11.449
REMARK  Name = 5287976
REMARK  10 active torsions:
REMARK  status: ('A' for Active; 'I' for Inactive)
REMARK    1  A    between atoms: C_1  and  N_2
REMARK    2  A    between atoms: C_1  and  C_6
REMARK    3  A    between atoms: C_1  and  C_13
REMARK    4  A    between atoms: C_6  and  C_7
REMARK    5  A    between atoms: C_13  and  O_14
REMARK    6  A    between atoms: C_13  and  C_16
REMARK    7  A    between atoms: C_16  and  C_17
REMARK    8  A    between atoms: C_17  and  C_18
REMARK    9  A    between atoms: C_17  and  C_22
REMARK   10  A    between atoms: C_22  and  O_23
REMARK                            x       y       z     vdW  Elec       q    Type
REMARK                         _______ _______ _______ _____ _____    ______ ____
ROOT
ATOM      1  C   UNL     1      35.865 -22.776 -16.021  0.00  0.00    -0.038 C 
ENDROOT
BRANCH   1   2
ATOM      2  N   UNL     1      36.356 -22.105 -17.231  0.00  0.00    +0.383 N 
ATOM      3  H   UNL     1      36.996 -21.356 -16.969  0.00  0.00    -0.089 HD
ATOM      4  H   UNL     1      35.568 -21.715 -17.747  0.00  0.00    -0.089 HD
ATOM      5  H   UNL     1      36.846 -22.781 -17.819  0.00  0.00    -0.089 HD
ENDBRANCH   1   2
BRANCH   1   6
ATOM      6  C   UNL     1      34.588 -23.553 -16.399  0.00  0.00    -0.020 C 
BRANCH   6   7
ATOM      7  C   UNL     1      33.323 -23.072 -15.690  0.00  0.00    -0.002 C 
ATOM      8  C   UNL     1      32.088 -23.294 -16.573  0.00  0.00    -0.000 C 
ATOM      9  C   UNL     1      33.161 -23.775 -14.335  0.00  0.00    -0.000 C 
ATOM     10  C   UNL     1      30.804 -22.869 -15.864  0.00  0.00    -0.000 C 
ATOM     11  C   UNL     1      31.874 -23.348 -13.630  0.00  0.00    -0.000 C 
ATOM     12  C   UNL     1      30.650 -23.564 -14.514  0.00  0.00    -0.000 C 
ENDBRANCH   6   7
ENDBRANCH   1   6
BRANCH   1  13
ATOM     13  C   UNL     1      37.006 -23.604 -15.378  0.00  0.00    +0.091 C 
BRANCH  13  14
ATOM     14  O   UNL     1      38.263 -23.143 -15.877  0.00  0.00    -0.387 OA
ATOM     15  H   UNL     1      38.576 -23.746 -16.571  0.00  0.00    +0.210 HD
ENDBRANCH  13  14
BRANCH  13  16
ATOM     16  C   UNL     1      37.042 -23.568 -13.837  0.00  0.00    +0.038 C 
BRANCH  16  17
ATOM     17  C   UNL     1      36.525 -24.875 -13.188  0.00  0.00    +0.101 C 
BRANCH  17  18
ATOM     18  C   UNL     1      37.529 -26.057 -13.262  0.00  0.00    +0.011 C 
ATOM     19  C   UNL     1      37.280 -27.001 -14.443  0.00  0.00    +0.001 C 
ATOM     20  C   UNL     1      38.977 -25.559 -13.292  0.00  0.00    +0.001 C 
ENDBRANCH  17  18
BRANCH  17  22
ATOM     21  O   UNL     1      36.875 -24.150 -10.882  0.00  0.00    -0.250 OA
ATOM     22  C   UNL     1      36.142 -24.640 -11.730  0.00  0.00    +0.313 C 
BRANCH  22  23
ATOM     23  O   UNL     1      34.865 -25.022 -11.466  0.00  0.00    -0.480 OA
ATOM     24  H   UNL     1      34.529 -24.961 -10.593  0.00  0.00    +0.295 HD
ENDBRANCH  22  23
ENDBRANCH  17  22
ENDBRANCH  16  17
ENDBRANCH  13  16
ENDBRANCH   1  13
TORSDOF 10
ENDMDL
MODEL 8
REMARK VINA RESULT:      -7.0      2.835      6.540
REMARK  Name = 5287976
REMARK  10 active torsions:
REMARK  status: ('A' for Active; 'I' for Inactive)
REMARK    1  A    between atoms: C_1  and  N_2
REMARK    2  A    between atoms: C_1  and  C_6
REMARK    3  A    between atoms: C_1  and  C_13
REMARK    4  A    between atoms: C_6  and  C_7
REMARK    5  A    between atoms: C_13  and  O_14
REMARK    6  A    between atoms: C_13  and  C_16
REMARK    7  A    between atoms: C_16  and  C_17
REMARK    8  A    between atoms: C_17  and  C_18
REMARK    9  A    between atoms: C_17  and  C_22
REMARK   10  A    between atoms: C_22  and  O_23
REMARK                            x       y       z     vdW  Elec       q    Type
REMARK                         _______ _______ _______ _____ _____    ______ ____
ROOT
ATOM      1  C   UNL     1      33.946 -13.955 -22.315  0.00  0.00    -0.038 C 
ENDROOT
BRANCH   1   2
ATOM      2  N   UNL     1      34.313 -13.832 -23.732  0.00  0.00    +0.383 N 
ATOM      3  H   UNL     1      35.186 -13.312 -23.813  0.00  0.00    -0.089 HD
ATOM      4  H   UNL     1      33.575 -13.339 -24.232  0.00  0.00    -0.089 HD
ATOM      5  H   UNL     1      34.433 -14.763 -24.132  0.00  0.00    -0.089 HD
ENDBRANCH   1   2
BRANCH   1   6
ATOM      6  C   UNL     1      32.409 -14.037 -22.233  0.00  0.00    -0.020 C 
BRANCH   6   7
ATOM      7  C   UNL     1      31.734 -12.767 -21.718  0.00  0.00    -0.002 C 
ATOM      8  C   UNL     1      32.044 -12.552 -20.231  0.00  0.00    -0.000 C 
ATOM      9  C   UNL     1      32.166 -11.550 -22.549  0.00  0.00    -0.000 C 
ATOM     10  C   UNL     1      31.424 -11.259 -19.707  0.00  0.00    -0.000 C 
ATOM     11  C   UNL     1      31.545 -10.258 -22.020  0.00  0.00    -0.000 C 
ATOM     12  C   UNL     1      31.848 -10.053 -20.540  0.00  0.00    -0.000 C 
ENDBRANCH   6   7
ENDBRANCH   1   6
BRANCH   1  13
ATOM     13  C   UNL     1      34.731 -15.122 -21.667  0.00  0.00    +0.091 C 
BRANCH  13  14
ATOM     14  O   UNL     1      34.809 -14.913 -20.255  0.00  0.00    -0.387 OA
ATOM     15  H   UNL     1      34.926 -15.768 -19.809  0.00  0.00    +0.210 HD
ENDBRANCH  13  14
BRANCH  13  16
ATOM     16  C   UNL     1      34.141 -16.522 -21.927  0.00  0.00    +0.038 C 
BRANCH  16  17
ATOM     17  C   UNL     1      35.161 -17.504 -22.553  0.00  0.00    +0.101 C 
BRANCH  17  18
ATOM     18  C   UNL     1      35.190 -18.900 -21.876  0.00  0.00    +0.011 C 
ATOM     19  C   UNL     1      36.398 -19.112 -20.958  0.00  0.00    +0.001 C 
ATOM     20  C   UNL     1      33.896 -19.174 -21.102  0.00  0.00    +0.001 C 
ENDBRANCH  17  18
BRANCH  17  22
ATOM     21  O   UNL     1      34.384 -18.668 -24.554  0.00  0.00    -0.250 OA
ATOM     22  C   UNL     1      34.896 -17.681 -24.045  0.00  0.00    +0.313 C 
BRANCH  22  23
ATOM     23  O   UNL     1      35.279 -16.596 -24.767  0.00  0.00    -0.480 OA
ATOM     24  H   UNL     1      35.252 -15.742 -24.381  0.00  0.00    +0.295 HD
ENDBRANCH  22  23
ENDBRANCH  17  22
ENDBRANCH  16  17
ENDBRANCH  13  16
ENDBRANCH   1  13
TORSDOF 10
ENDMDL
MODEL 9
REMARK VINA RESULT:      -7.0      9.304     11.614
REMARK  Name = 5287976
REMARK  10 active torsions:
REMARK  status: ('A' for Active; 'I' for Inactive)
REMARK    1  A    between atoms: C_1  and  N_2
REMARK    2  A    between atoms: C_1  and  C_6
REMARK    3  A    between atoms: C_1  and  C_13
REMARK    4  A    between atoms: C_6  and  C_7
REMARK    5  A    between atoms: C_13  and  O_14
REMARK    6  A    between atoms: C_13  and  C_16
REMARK    7  A    between atoms: C_16  and  C_17
REMARK    8  A    between atoms: C_17  and  C_18
REMARK    9  A    between atoms: C_17  and  C_22
REMARK   10  A    between atoms: C_22  and  O_23
REMARK                            x       y       z     vdW  Elec       q    Type
REMARK                         _______ _______ _______ _____ _____    ______ ____
ROOT
ATOM      1  C   UNL     1      36.296 -22.633 -15.597  0.00  0.00    -0.038 C 
ENDROOT
BRANCH   1   2
ATOM      2  N   UNL     1      36.445 -22.230 -17.002  0.00  0.00    +0.383 N 
ATOM      3  H   UNL     1      35.590 -21.772 -17.316  0.00  0.00    -0.089 HD
ATOM      4  H   UNL     1      36.620 -23.054 -17.575  0.00  0.00    -0.089 HD
ATOM      5  H   UNL     1      37.229 -21.583 -17.087  0.00  0.00    -0.089 HD
ENDBRANCH   1   2
BRANCH   1   6
ATOM      6  C   UNL     1      35.185 -23.699 -15.529  0.00  0.00    -0.020 C 
BRANCH   6   7
ATOM      7  C   UNL     1      33.769 -23.132 -15.436  0.00  0.00    -0.002 C 
ATOM      8  C   UNL     1      32.991 -23.399 -16.730  0.00  0.00    -0.000 C 
ATOM      9  C   UNL     1      33.031 -23.717 -14.223  0.00  0.00    -0.000 C 
ATOM     10  C   UNL     1      31.554 -22.888 -16.640  0.00  0.00    -0.000 C 
ATOM     11  C   UNL     1      31.595 -23.204 -14.137  0.00  0.00    -0.000 C 
ATOM     12  C   UNL     1      30.827 -23.464 -15.429  0.00  0.00    -0.000 C 
ENDBRANCH   6   7
ENDBRANCH   1   6
BRANCH   1  13
ATOM     13  C   UNL     1      37.674 -23.040 -15.018  0.00  0.00    +0.091 C 
BRANCH  13  14
ATOM     14  O   UNL     1      37.610 -23.024 -13.591  0.00  0.00    -0.387 OA
ATOM     15  H   UNL     1      36.693 -23.167 -13.307  0.00  0.00    +0.210 HD
ENDBRANCH  13  14
BRANCH  13  16
ATOM     16  C   UNL     1      38.185 -24.421 -15.474  0.00  0.00    +0.038 C 
BRANCH  16  17
ATOM     17  C   UNL     1      38.783 -25.258 -14.317  0.00  0.00    +0.101 C 
BRANCH  17  18
ATOM     18  C   UNL     1      37.866 -26.415 -13.836  0.00  0.00    +0.011 C 
ATOM     19  C   UNL     1      37.131 -26.112 -12.527  0.00  0.00    +0.001 C 
ATOM     20  C   UNL     1      36.858 -26.816 -14.918  0.00  0.00    +0.001 C 
ENDBRANCH  17  18
BRANCH  17  22
ATOM     21  O   UNL     1      40.956 -26.305 -13.931  0.00  0.00    -0.250 OA
ATOM     22  C   UNL     1      40.141 -25.832 -14.711  0.00  0.00    +0.313 C 
BRANCH  22  23
ATOM     23  O   UNL     1      40.352 -25.778 -16.052  0.00  0.00    -0.480 OA
ATOM     24  H   UNL     1      41.143 -26.127 -16.416  0.00  0.00    +0.295 HD
ENDBRANCH  22  23
ENDBRANCH  17  22
ENDBRANCH  16  17
ENDBRANCH  13  16
ENDBRANCH   1  13
TORSDOF 10
ENDMDL
