MODEL 1
REMARK VINA RESULT:      -9.7      0.000      0.000
REMARK  Name = 5362391
REMARK  10 active torsions:
REMARK  status: ('A' for Active; 'I' for Inactive)
REMARK    1  A    between atoms: N_1  and  O_19
REMARK    2  A    between atoms: C_2  and  C_4
REMARK    3  A    between atoms: C_2  and  C_9
REMARK    4  A    between atoms: C_11  and  C_18
REMARK    5  A    between atoms: O_19  and  C_20
REMARK    6  A    between atoms: C_20  and  C_21
REMARK    7  A    between atoms: C_21  and  C_22
REMARK    8  A    between atoms: C_22  and  C_23
REMARK    9  A    between atoms: C_23  and  C_25
REMARK   10  A    between atoms: C_25  and  O_26
REMARK                            x       y       z     vdW  Elec       q    Type
REMARK                         _______ _______ _______ _____ _____    ______ ____
ROOT
ATOM      1  N   UNL     1      35.017 -25.340 -15.243  0.00  0.00    -0.083 NA
ATOM      2  C   UNL     1      34.594 -24.139 -15.513  0.00  0.00    +0.121 C 
ENDROOT
BRANCH   2   4
ATOM      3  N   UNL     1      31.796 -23.398 -13.153  0.00  0.00    -0.242 NA
ATOM      4  C   UNL     1      33.246 -23.726 -15.011  0.00  0.00    +0.040 C 
ATOM      5  C   UNL     1      32.290 -23.325 -15.904  0.00  0.00    +0.005 C 
ATOM      6  C   UNL     1      32.991 -23.757 -13.672  0.00  0.00    +0.100 C 
ATOM      7  C   UNL     1      31.047 -22.948 -15.408  0.00  0.00    +0.021 C 
ATOM      8  C   UNL     1      30.852 -23.002 -14.037  0.00  0.00    +0.099 C 
ENDBRANCH   2   4
BRANCH   2   9
ATOM      9  C   UNL     1      35.388 -23.153 -16.287  0.00  0.00    +0.021 C 
ATOM     10  C   UNL     1      34.979 -22.816 -17.561  0.00  0.00    +0.005 C 
ATOM     11  C   UNL     1      35.726 -21.889 -18.287  0.00  0.00    +0.071 C 
ATOM     12  C   UNL     1      36.514 -22.600 -15.708  0.00  0.00    +0.002 C 
ATOM     13  C   UNL     1      36.867 -21.318 -17.725  0.00  0.00    +0.004 C 
ATOM     14  C   UNL     1      37.261 -21.673 -16.435  0.00  0.00    -0.000 C 
BRANCH  11  18
ATOM     15  F   UNL     1      35.210 -20.158 -19.856  0.00  0.00    -0.166 F 
ATOM     16  F   UNL     1      36.156 -21.946 -20.640  0.00  0.00    -0.166 F 
ATOM     17  F   UNL     1      34.080 -22.009 -19.998  0.00  0.00    -0.166 F 
ATOM     18  C   UNL     1      35.304 -21.507 -19.667  0.00  0.00    +0.419 C 
ENDBRANCH  11  18
ENDBRANCH   2   9
BRANCH   1  19
ATOM     19  O   UNL     1      36.309 -25.570 -15.735  0.00  0.00    -0.377 OA
BRANCH  19  20
ATOM     20  C   UNL     1      36.956 -26.487 -14.865  0.00  0.00    +0.238 C 
BRANCH  20  21
ATOM     21  C   UNL     1      37.084 -25.882 -13.472  0.00  0.00    +0.051 C 
BRANCH  21  22
ATOM     22  C   UNL     1      38.548 -25.766 -13.026  0.00  0.00    +0.016 C 
BRANCH  22  23
ATOM     23  C   UNL     1      39.424 -25.078 -14.075  0.00  0.00    +0.109 C 
BRANCH  23  25
ATOM     24  O   UNL     1      41.250 -26.689 -14.070  0.00  0.00    -0.250 OA
ATOM     25  C   UNL     1      40.454 -25.999 -14.690  0.00  0.00    +0.314 C 
BRANCH  25  26
ATOM     26  O   UNL     1      40.412 -25.954 -16.047  0.00  0.00    -0.480 OA
ATOM     27  H   UNL     1      40.632 -25.162 -16.497  0.00  0.00    +0.295 HD
ENDBRANCH  25  26
ENDBRANCH  23  25
ENDBRANCH  22  23
ENDBRANCH  21  22
ENDBRANCH  20  21
ENDBRANCH  19  20
ENDBRANCH   1  19
TORSDOF 10
ENDMDL
MODEL 2
REMARK VINA RESULT:      -9.3      1.557      2.160
REMARK  Name = 5362391
REMARK  10 active torsions:
REMARK  status: ('A' for Active; 'I' for Inactive)
REMARK    1  A    between atoms: N_1  and  O_19
REMARK    2  A    between atoms: C_2  and  C_4
REMARK    3  A    between atoms: C_2  and  C_9
REMARK    4  A    between atoms: C_11  and  C_18
REMARK    5  A    between atoms: O_19  and  C_20
REMARK    6  A    between atoms: C_20  and  C_21
REMARK    7  A    between atoms: C_21  and  C_22
REMARK    8  A    between atoms: C_22  and  C_23
REMARK    9  A    between atoms: C_23  and  C_25
REMARK   10  A    between atoms: C_25  and  O_26
REMARK                            x       y       z     vdW  Elec       q    Type
REMARK                         _______ _______ _______ _____ _____    ______ ____
ROOT
ATOM      1  N   UNL     1      35.161 -25.425 -15.208  0.00  0.00    -0.083 NA
ATOM      2  C   UNL     1      34.750 -24.209 -15.427  0.00  0.00    +0.121 C 
ENDROOT
BRANCH   2   4
ATOM      3  N   UNL     1      31.922 -23.543 -13.081  0.00  0.00    -0.242 NA
ATOM      4  C   UNL     1      33.396 -23.812 -14.930  0.00  0.00    +0.040 C 
ATOM      5  C   UNL     1      32.451 -23.382 -15.821  0.00  0.00    +0.005 C 
ATOM      6  C   UNL     1      33.124 -23.886 -13.596  0.00  0.00    +0.100 C 
ATOM      7  C   UNL     1      31.202 -23.020 -15.329  0.00  0.00    +0.021 C 
ATOM      8  C   UNL     1      30.990 -23.118 -13.963  0.00  0.00    +0.099 C 
ENDBRANCH   2   4
BRANCH   2   9
ATOM      9  C   UNL     1      35.564 -23.193 -16.139  0.00  0.00    +0.021 C 
ATOM     10  C   UNL     1      35.170 -22.780 -17.396  0.00  0.00    +0.005 C 
ATOM     11  C   UNL     1      35.936 -21.824 -18.063  0.00  0.00    +0.071 C 
ATOM     12  C   UNL     1      36.691 -22.688 -15.520  0.00  0.00    +0.002 C 
ATOM     13  C   UNL     1      37.078 -21.300 -17.460  0.00  0.00    +0.004 C 
ATOM     14  C   UNL     1      37.456 -21.732 -16.188  0.00  0.00    -0.000 C 
BRANCH  11  18
ATOM     15  F   UNL     1      35.628 -22.329 -20.381  0.00  0.00    -0.166 F 
ATOM     16  F   UNL     1      34.240 -20.921 -19.488  0.00  0.00    -0.166 F 
ATOM     17  F   UNL     1      36.296 -20.324 -19.871  0.00  0.00    -0.166 F 
ATOM     18  C   UNL     1      35.532 -21.361 -19.423  0.00  0.00    +0.419 C 
ENDBRANCH  11  18
ENDBRANCH   2   9
BRANCH   1  19
ATOM     19  O   UNL     1      36.460 -25.639 -15.689  0.00  0.00    -0.377 OA
BRANCH  19  20
ATOM     20  C   UNL     1      37.197 -26.315 -14.680  0.00  0.00    +0.238 C 
BRANCH  20  21
ATOM     21  C   UNL     1      38.626 -25.788 -14.638  0.00  0.00    +0.051 C 
BRANCH  21  22
ATOM     22  C   UNL     1      38.995 -25.232 -13.257  0.00  0.00    +0.016 C 
BRANCH  22  23
ATOM     23  C   UNL     1      37.768 -25.003 -12.373  0.00  0.00    +0.109 C 
BRANCH  23  25
ATOM     24  O   UNL     1      38.462 -22.793 -11.623  0.00  0.00    -0.250 OA
ATOM     25  C   UNL     1      37.576 -23.555 -11.980  0.00  0.00    +0.314 C 
BRANCH  25  26
ATOM     26  O   UNL     1      36.268 -23.193 -12.047  0.00  0.00    -0.480 OA
ATOM     27  H   UNL     1      35.756 -23.421 -12.798  0.00  0.00    +0.295 HD
ENDBRANCH  25  26
ENDBRANCH  23  25
ENDBRANCH  22  23
ENDBRANCH  21  22
ENDBRANCH  20  21
ENDBRANCH  19  20
ENDBRANCH   1  19
TORSDOF 10
ENDMDL
MODEL 3
REMARK VINA RESULT:      -9.3      4.188      6.514
REMARK  Name = 5362391
REMARK  10 active torsions:
REMARK  status: ('A' for Active; 'I' for Inactive)
REMARK    1  A    between atoms: N_1  and  O_19
REMARK    2  A    between atoms: C_2  and  C_4
REMARK    3  A    between atoms: C_2  and  C_9
REMARK    4  A    between atoms: C_11  and  C_18
REMARK    5  A    between atoms: O_19  and  C_20
REMARK    6  A    between atoms: C_20  and  C_21
REMARK    7  A    between atoms: C_21  and  C_22
REMARK    8  A    between atoms: C_22  and  C_23
REMARK    9  A    between atoms: C_23  and  C_25
REMARK   10  A    between atoms: C_25  and  O_26
REMARK                            x       y       z     vdW  Elec       q    Type
REMARK                         _______ _______ _______ _____ _____    ______ ____
ROOT
ATOM      1  N   UNL     1      33.476 -23.108 -17.631  0.00  0.00    -0.083 NA
ATOM      2  C   UNL     1      33.752 -23.326 -16.378  0.00  0.00    +0.121 C 
ENDROOT
BRANCH   2   4
ATOM      3  N   UNL     1      31.916 -23.720 -13.150  0.00  0.00    -0.242 NA
ATOM      4  C   UNL     1      32.625 -23.375 -15.395  0.00  0.00    +0.040 C 
ATOM      5  C   UNL     1      31.348 -23.134 -15.824  0.00  0.00    +0.005 C 
ATOM      6  C   UNL     1      32.887 -23.660 -14.088  0.00  0.00    +0.100 C 
ATOM      7  C   UNL     1      30.321 -23.188 -14.887  0.00  0.00    +0.021 C 
ATOM      8  C   UNL     1      30.655 -23.482 -13.575  0.00  0.00    +0.099 C 
ENDBRANCH   2   4
BRANCH   2   9
ATOM      9  C   UNL     1      35.132 -23.537 -15.876  0.00  0.00    +0.021 C 
ATOM     10  C   UNL     1      35.532 -24.813 -15.533  0.00  0.00    +0.005 C 
ATOM     11  C   UNL     1      36.830 -25.010 -15.062  0.00  0.00    +0.071 C 
ATOM     12  C   UNL     1      35.977 -22.450 -15.767  0.00  0.00    +0.002 C 
ATOM     13  C   UNL     1      37.701 -23.928 -14.943  0.00  0.00    +0.004 C 
ATOM     14  C   UNL     1      37.275 -22.647 -15.296  0.00  0.00    -0.000 C 
BRANCH  11  18
ATOM     15  F   UNL     1      36.910 -26.756 -13.429  0.00  0.00    -0.166 F 
ATOM     16  F   UNL     1      36.813 -27.360 -15.510  0.00  0.00    -0.166 F 
ATOM     17  F   UNL     1      38.646 -26.504 -14.712  0.00  0.00    -0.166 F 
ATOM     18  C   UNL     1      37.288 -26.380 -14.685  0.00  0.00    +0.419 C 
ENDBRANCH  11  18
ENDBRANCH   2   9
BRANCH   1  19
ATOM     19  O   UNL     1      34.621 -23.133 -18.438  0.00  0.00    -0.377 OA
BRANCH  19  20
ATOM     20  C   UNL     1      34.710 -21.889 -19.116  0.00  0.00    +0.238 C 
BRANCH  20  21
ATOM     21  C   UNL     1      33.314 -21.358 -19.417  0.00  0.00    +0.051 C 
BRANCH  21  22
ATOM     22  C   UNL     1      33.334 -20.253 -20.482  0.00  0.00    +0.016 C 
BRANCH  22  23
ATOM     23  C   UNL     1      34.755 -19.883 -20.911  0.00  0.00    +0.109 C 
BRANCH  23  25
ATOM     24  O   UNL     1      35.320 -17.530 -20.639  0.00  0.00    -0.250 OA
ATOM     25  C   UNL     1      34.893 -18.438 -21.336  0.00  0.00    +0.314 C 
BRANCH  25  26
ATOM     26  O   UNL     1      34.454 -18.251 -22.608  0.00  0.00    -0.480 OA
ATOM     27  H   UNL     1      34.254 -18.991 -23.148  0.00  0.00    +0.295 HD
ENDBRANCH  25  26
ENDBRANCH  23  25
ENDBRANCH  22  23
ENDBRANCH  21  22
ENDBRANCH  20  21
ENDBRANCH  19  20
ENDBRANCH   1  19
TORSDOF 10
ENDMDL
MODEL 4
REMARK VINA RESULT:      -9.2      4.496      7.506
REMARK  Name = 5362391
REMARK  10 active torsions:
REMARK  status: ('A' for Active; 'I' for Inactive)
REMARK    1  A    between atoms: N_1  and  O_19
REMARK    2  A    between atoms: C_2  and  C_4
REMARK    3  A    between atoms: C_2  and  C_9
REMARK    4  A    between atoms: C_11  and  C_18
REMARK    5  A    between atoms: O_19  and  C_20
REMARK    6  A    between atoms: C_20  and  C_21
REMARK    7  A    between atoms: C_21  and  C_22
REMARK    8  A    between atoms: C_22  and  C_23
REMARK    9  A    between atoms: C_23  and  C_25
REMARK   10  A    between atoms: C_25  and  O_26
REMARK                            x       y       z     vdW  Elec       q    Type
REMARK                         _______ _______ _______ _____ _____    ______ ____
ROOT
ATOM      1  N   UNL     1      33.036 -23.651 -15.124  0.00  0.00    -0.083 NA
ATOM      2  C   UNL     1      34.261 -23.679 -15.561  0.00  0.00    +0.121 C 
ENDROOT
BRANCH   2   4
ATOM      3  N   UNL     1      36.156 -21.872 -18.224  0.00  0.00    -0.242 NA
ATOM      4  C   UNL     1      34.571 -23.014 -16.865  0.00  0.00    +0.040 C 
ATOM      5  C   UNL     1      33.605 -22.946 -17.832  0.00  0.00    +0.005 C 
ATOM      6  C   UNL     1      35.811 -22.485 -17.070  0.00  0.00    +0.100 C 
ATOM      7  C   UNL     1      33.923 -22.321 -19.033  0.00  0.00    +0.021 C 
ATOM      8  C   UNL     1      35.200 -21.805 -19.178  0.00  0.00    +0.099 C 
ENDBRANCH   2   4
BRANCH   2   9
ATOM      9  C   UNL     1      35.371 -24.333 -14.825  0.00  0.00    +0.021 C 
ATOM     10  C   UNL     1      35.945 -23.675 -13.756  0.00  0.00    +0.005 C 
ATOM     11  C   UNL     1      36.987 -24.291 -13.064  0.00  0.00    +0.071 C 
ATOM     12  C   UNL     1      35.796 -25.583 -15.230  0.00  0.00    +0.002 C 
ATOM     13  C   UNL     1      37.435 -25.553 -13.455  0.00  0.00    +0.004 C 
ATOM     14  C   UNL     1      36.839 -26.199 -14.538  0.00  0.00    -0.000 C 
BRANCH  11  18
ATOM     15  F   UNL     1      38.896 -24.025 -11.647  0.00  0.00    -0.166 F 
ATOM     16  F   UNL     1      37.724 -22.248 -12.062  0.00  0.00    -0.166 F 
ATOM     17  F   UNL     1      36.934 -23.785 -10.742  0.00  0.00    -0.166 F 
ATOM     18  C   UNL     1      37.624 -23.601 -11.904  0.00  0.00    +0.419 C 
ENDBRANCH  11  18
ENDBRANCH   2   9
BRANCH   1  19
ATOM     19  O   UNL     1      32.904 -24.272 -13.875  0.00  0.00    -0.377 OA
BRANCH  19  20
ATOM     20  C   UNL     1      31.569 -24.740 -13.754  0.00  0.00    +0.238 C 
BRANCH  20  21
ATOM     21  C   UNL     1      30.592 -23.631 -14.127  0.00  0.00    +0.051 C 
BRANCH  21  22
ATOM     22  C   UNL     1      29.600 -24.077 -15.209  0.00  0.00    +0.016 C 
BRANCH  22  23
ATOM     23  C   UNL     1      29.545 -23.102 -16.387  0.00  0.00    +0.109 C 
BRANCH  23  25
ATOM     24  O   UNL     1      27.576 -23.877 -17.592  0.00  0.00    -0.250 OA
ATOM     25  C   UNL     1      28.168 -22.985 -17.002  0.00  0.00    +0.314 C 
BRANCH  25  26
ATOM     26  O   UNL     1      27.658 -21.736 -16.842  0.00  0.00    -0.480 OA
ATOM     27  H   UNL     1      27.893 -21.226 -16.092  0.00  0.00    +0.295 HD
ENDBRANCH  25  26
ENDBRANCH  23  25
ENDBRANCH  22  23
ENDBRANCH  21  22
ENDBRANCH  20  21
ENDBRANCH  19  20
ENDBRANCH   1  19
TORSDOF 10
ENDMDL
MODEL 5
REMARK VINA RESULT:      -9.2     11.612     14.506
REMARK  Name = 5362391
REMARK  10 active torsions:
REMARK  status: ('A' for Active; 'I' for Inactive)
REMARK    1  A    between atoms: N_1  and  O_19
REMARK    2  A    between atoms: C_2  and  C_4
REMARK    3  A    between atoms: C_2  and  C_9
REMARK    4  A    between atoms: C_11  and  C_18
REMARK    5  A    between atoms: O_19  and  C_20
REMARK    6  A    between atoms: C_20  and  C_21
REMARK    7  A    between atoms: C_21  and  C_22
REMARK    8  A    between atoms: C_22  and  C_23
REMARK    9  A    between atoms: C_23  and  C_25
REMARK   10  A    between atoms: C_25  and  O_26
REMARK                            x       y       z     vdW  Elec       q    Type
REMARK                         _______ _______ _______ _____ _____    ______ ____
ROOT
ATOM      1  N   UNL     1      31.991 -13.104 -21.423  0.00  0.00    -0.083 NA
ATOM      2  C   UNL     1      32.950 -13.495 -22.213  0.00  0.00    +0.121 C 
ENDROOT
BRANCH   2   4
ATOM      3  N   UNL     1      34.856 -15.989 -20.189  0.00  0.00    -0.242 NA
ATOM      4  C   UNL     1      33.710 -14.733 -21.854  0.00  0.00    +0.040 C 
ATOM      5  C   UNL     1      33.939 -15.683 -22.812  0.00  0.00    +0.005 C 
ATOM      6  C   UNL     1      34.163 -14.896 -20.579  0.00  0.00    +0.100 C 
ATOM      7  C   UNL     1      34.648 -16.822 -22.449  0.00  0.00    +0.021 C 
ATOM      8  C   UNL     1      35.082 -16.926 -21.137  0.00  0.00    +0.099 C 
ENDBRANCH   2   4
BRANCH   2   9
ATOM      9  C   UNL     1      33.321 -12.778 -23.457  0.00  0.00    +0.021 C 
ATOM     10  C   UNL     1      33.170 -13.419 -24.670  0.00  0.00    +0.005 C 
ATOM     11  C   UNL     1      33.519 -12.743 -25.839  0.00  0.00    +0.071 C 
ATOM     12  C   UNL     1      33.805 -11.488 -23.365  0.00  0.00    +0.002 C 
ATOM     13  C   UNL     1      34.011 -11.440 -25.771  0.00  0.00    +0.004 C 
ATOM     14  C   UNL     1      34.153 -10.812 -24.534  0.00  0.00    -0.000 C 
BRANCH  11  18
ATOM     15  F   UNL     1      32.240 -13.038 -27.839  0.00  0.00    -0.166 F 
ATOM     16  F   UNL     1      34.398 -13.167 -28.023  0.00  0.00    -0.166 F 
ATOM     17  F   UNL     1      33.293 -14.772 -27.057  0.00  0.00    -0.166 F 
ATOM     18  C   UNL     1      33.365 -13.414 -27.163  0.00  0.00    +0.419 C 
ENDBRANCH  11  18
ENDBRANCH   2   9
BRANCH   1  19
ATOM     19  O   UNL     1      31.340 -11.961 -21.907  0.00  0.00    -0.377 OA
BRANCH  19  20
ATOM     20  C   UNL     1      30.642 -11.361 -20.826  0.00  0.00    +0.238 C 
BRANCH  20  21
ATOM     21  C   UNL     1      31.576 -11.188 -19.634  0.00  0.00    +0.051 C 
BRANCH  21  22
ATOM     22  C   UNL     1      31.942  -9.717 -19.398  0.00  0.00    +0.016 C 
BRANCH  22  23
ATOM     23  C   UNL     1      32.078  -8.932 -20.704  0.00  0.00    +0.109 C 
BRANCH  23  25
ATOM     24  O   UNL     1      31.804  -6.550 -21.133  0.00  0.00    -0.250 OA
ATOM     25  C   UNL     1      32.320  -7.454 -20.491  0.00  0.00    +0.314 C 
BRANCH  25  26
ATOM     26  O   UNL     1      33.218  -7.238 -19.495  0.00  0.00    -0.480 OA
ATOM     27  H   UNL     1      33.406  -7.917 -18.878  0.00  0.00    +0.295 HD
ENDBRANCH  25  26
ENDBRANCH  23  25
ENDBRANCH  22  23
ENDBRANCH  21  22
ENDBRANCH  20  21
ENDBRANCH  19  20
ENDBRANCH   1  19
TORSDOF 10
ENDMDL
MODEL 6
REMARK VINA RESULT:      -9.0     14.794     17.372
REMARK  Name = 5362391
REMARK  10 active torsions:
REMARK  status: ('A' for Active; 'I' for Inactive)
REMARK    1  A    between atoms: N_1  and  O_19
REMARK    2  A    between atoms: C_2  and  C_4
REMARK    3  A    between atoms: C_2  and  C_9
REMARK    4  A    between atoms: C_11  and  C_18
REMARK    5  A    between atoms: O_19  and  C_20
REMARK    6  A    between atoms: C_20  and  C_21
REMARK    7  A    between atoms: C_21  and  C_22
REMARK    8  A    between atoms: C_22  and  C_23
REMARK    9  A    between atoms: C_23  and  C_25
REMARK   10  A    between atoms: C_25  and  O_26
REMARK                            x       y       z     vdW  Elec       q    Type
REMARK                         _______ _______ _______ _____ _____    ______ ____
ROOT
ATOM      1  N   UNL     1      34.277  -7.856 -24.245  0.00  0.00    -0.083 NA
ATOM      2  C   UNL     1      33.249  -7.447 -23.558  0.00  0.00    +0.121 C 
ENDROOT
BRANCH   2   4
ATOM      3  N   UNL     1      30.637  -4.787 -23.769  0.00  0.00    -0.242 NA
ATOM      4  C   UNL     1      32.476  -6.269 -24.060  0.00  0.00    +0.040 C 
ATOM      5  C   UNL     1      32.881  -5.637 -25.205  0.00  0.00    +0.005 C 
ATOM      6  C   UNL     1      31.379  -5.844 -23.371  0.00  0.00    +0.100 C 
ATOM      7  C   UNL     1      32.142  -4.545 -25.647  0.00  0.00    +0.021 C 
ATOM      8  C   UNL     1      31.038  -4.164 -24.900  0.00  0.00    +0.099 C 
ENDBRANCH   2   4
BRANCH   2   9
ATOM      9  C   UNL     1      32.801  -8.099 -22.302  0.00  0.00    +0.021 C 
ATOM     10  C   UNL     1      32.256  -9.365 -22.363  0.00  0.00    +0.005 C 
ATOM     11  C   UNL     1      31.836  -9.977 -21.182  0.00  0.00    +0.071 C 
ATOM     12  C   UNL     1      32.944  -7.419 -21.109  0.00  0.00    +0.002 C 
ATOM     13  C   UNL     1      31.969  -9.309 -19.965  0.00  0.00    +0.004 C 
ATOM     14  C   UNL     1      32.524  -8.030 -19.928  0.00  0.00    -0.000 C 
BRANCH  11  18
ATOM     15  F   UNL     1      29.892 -11.363 -21.026  0.00  0.00    -0.166 F 
ATOM     16  F   UNL     1      31.442 -11.994 -22.406  0.00  0.00    -0.166 F 
ATOM     17  F   UNL     1      31.761 -12.168 -20.262  0.00  0.00    -0.166 F 
ATOM     18  C   UNL     1      31.243 -11.346 -21.220  0.00  0.00    +0.419 C 
ENDBRANCH  11  18
ENDBRANCH   2   9
BRANCH   1  19
ATOM     19  O   UNL     1      34.874  -8.991 -23.680  0.00  0.00    -0.377 OA
BRANCH  19  20
ATOM     20  C   UNL     1      35.073  -9.944 -24.714  0.00  0.00    +0.238 C 
BRANCH  20  21
ATOM     21  C   UNL     1      34.218 -11.179 -24.455  0.00  0.00    +0.051 C 
BRANCH  21  22
ATOM     22  C   UNL     1      33.842 -11.902 -25.755  0.00  0.00    +0.016 C 
BRANCH  22  23
ATOM     23  C   UNL     1      33.300 -13.311 -25.504  0.00  0.00    +0.109 C 
BRANCH  23  25
ATOM     24  O   UNL     1      33.199 -15.422 -26.713  0.00  0.00    -0.250 OA
ATOM     25  C   UNL     1      33.411 -14.218 -26.709  0.00  0.00    +0.314 C 
BRANCH  25  26
ATOM     26  O   UNL     1      33.806 -13.530 -27.812  0.00  0.00    -0.480 OA
ATOM     27  H   UNL     1      33.221 -12.924 -28.222  0.00  0.00    +0.295 HD
ENDBRANCH  25  26
ENDBRANCH  23  25
ENDBRANCH  22  23
ENDBRANCH  21  22
ENDBRANCH  20  21
ENDBRANCH  19  20
ENDBRANCH   1  19
TORSDOF 10
ENDMDL
MODEL 7
REMARK VINA RESULT:      -9.0     11.768     14.724
REMARK  Name = 5362391
REMARK  10 active torsions:
REMARK  status: ('A' for Active; 'I' for Inactive)
REMARK    1  A    between atoms: N_1  and  O_19
REMARK    2  A    between atoms: C_2  and  C_4
REMARK    3  A    between atoms: C_2  and  C_9
REMARK    4  A    between atoms: C_11  and  C_18
REMARK    5  A    between atoms: O_19  and  C_20
REMARK    6  A    between atoms: C_20  and  C_21
REMARK    7  A    between atoms: C_21  and  C_22
REMARK    8  A    between atoms: C_22  and  C_23
REMARK    9  A    between atoms: C_23  and  C_25
REMARK   10  A    between atoms: C_25  and  O_26
REMARK                            x       y       z     vdW  Elec       q    Type
REMARK                         _______ _______ _______ _____ _____    ______ ____
ROOT
ATOM      1  N   UNL     1      32.203 -13.076 -21.608  0.00  0.00    -0.083 NA
ATOM      2  C   UNL     1      33.058 -13.623 -22.423  0.00  0.00    +0.121 C 
ENDROOT
BRANCH   2   4
ATOM      3  N   UNL     1      34.828 -16.029 -20.180  0.00  0.00    -0.242 NA
ATOM      4  C   UNL     1      33.800 -14.840 -21.968  0.00  0.00    +0.040 C 
ATOM      5  C   UNL     1      34.110 -15.818 -22.874  0.00  0.00    +0.005 C 
ATOM      6  C   UNL     1      34.157 -14.956 -20.657  0.00  0.00    +0.100 C 
ATOM      7  C   UNL     1      34.800 -16.936 -22.421  0.00  0.00    +0.021 C 
ATOM      8  C   UNL     1      35.133 -16.993 -21.077  0.00  0.00    +0.099 C 
ENDBRANCH   2   4
BRANCH   2   9
ATOM      9  C   UNL     1      33.328 -13.104 -23.786  0.00  0.00    +0.021 C 
ATOM     10  C   UNL     1      34.050 -11.937 -23.928  0.00  0.00    +0.005 C 
ATOM     11  C   UNL     1      34.304 -11.451 -25.211  0.00  0.00    +0.071 C 
ATOM     12  C   UNL     1      32.848 -13.806 -24.875  0.00  0.00    +0.002 C 
ATOM     13  C   UNL     1      33.829 -12.142 -26.325  0.00  0.00    +0.004 C 
ATOM     14  C   UNL     1      33.102 -13.320 -26.157  0.00  0.00    -0.000 C 
BRANCH  11  18
ATOM     15  F   UNL     1      34.371  -9.062 -25.107  0.00  0.00    -0.166 F 
ATOM     16  F   UNL     1      36.196 -10.120 -24.601  0.00  0.00    -0.166 F 
ATOM     17  F   UNL     1      35.530 -10.030 -26.670  0.00  0.00    -0.166 F 
ATOM     18  C   UNL     1      35.083 -10.191 -25.391  0.00  0.00    +0.419 C 
ENDBRANCH  11  18
ENDBRANCH   2   9
BRANCH   1  19
ATOM     19  O   UNL     1      31.553 -11.976 -22.184  0.00  0.00    -0.377 OA
BRANCH  19  20
ATOM     20  C   UNL     1      30.764 -11.355 -21.179  0.00  0.00    +0.238 C 
BRANCH  20  21
ATOM     21  C   UNL     1      31.554 -11.261 -19.880  0.00  0.00    +0.051 C 
BRANCH  21  22
ATOM     22  C   UNL     1      32.004  -9.825 -19.580  0.00  0.00    +0.016 C 
BRANCH  22  23
ATOM     23  C   UNL     1      31.991  -8.938 -20.827  0.00  0.00    +0.109 C 
BRANCH  23  25
ATOM     24  O   UNL     1      31.913  -6.522 -21.126  0.00  0.00    -0.250 OA
ATOM     25  C   UNL     1      32.356  -7.499 -20.540  0.00  0.00    +0.314 C 
BRANCH  25  26
ATOM     26  O   UNL     1      33.278  -7.410 -19.545  0.00  0.00    -0.480 OA
ATOM     27  H   UNL     1      33.800  -8.156 -19.322  0.00  0.00    +0.295 HD
ENDBRANCH  25  26
ENDBRANCH  23  25
ENDBRANCH  22  23
ENDBRANCH  21  22
ENDBRANCH  20  21
ENDBRANCH  19  20
ENDBRANCH   1  19
TORSDOF 10
ENDMDL
MODEL 8
REMARK VINA RESULT:      -8.9      4.461      6.703
REMARK  Name = 5362391
REMARK  10 active torsions:
REMARK  status: ('A' for Active; 'I' for Inactive)
REMARK    1  A    between atoms: N_1  and  O_19
REMARK    2  A    between atoms: C_2  and  C_4
REMARK    3  A    between atoms: C_2  and  C_9
REMARK    4  A    between atoms: C_11  and  C_18
REMARK    5  A    between atoms: O_19  and  C_20
REMARK    6  A    between atoms: C_20  and  C_21
REMARK    7  A    between atoms: C_21  and  C_22
REMARK    8  A    between atoms: C_22  and  C_23
REMARK    9  A    between atoms: C_23  and  C_25
REMARK   10  A    between atoms: C_25  and  O_26
REMARK                            x       y       z     vdW  Elec       q    Type
REMARK                         _______ _______ _______ _____ _____    ______ ____
ROOT
ATOM      1  N   UNL     1      34.951 -22.738 -16.884  0.00  0.00    -0.083 NA
ATOM      2  C   UNL     1      34.572 -23.424 -15.845  0.00  0.00    +0.121 C 
ENDROOT
BRANCH   2   4
ATOM      3  N   UNL     1      30.867 -23.305 -16.296  0.00  0.00    -0.242 NA
ATOM      4  C   UNL     1      33.112 -23.494 -15.528  0.00  0.00    +0.040 C 
ATOM      5  C   UNL     1      32.713 -23.793 -14.254  0.00  0.00    +0.005 C 
ATOM      6  C   UNL     1      32.200 -23.257 -16.514  0.00  0.00    +0.100 C 
ATOM      7  C   UNL     1      31.348 -23.850 -13.991  0.00  0.00    +0.021 C 
ATOM      8  C   UNL     1      30.475 -23.600 -15.037  0.00  0.00    +0.099 C 
ENDBRANCH   2   4
BRANCH   2   9
ATOM      9  C   UNL     1      35.518 -24.148 -14.961  0.00  0.00    +0.021 C 
ATOM     10  C   UNL     1      36.088 -23.478 -13.897  0.00  0.00    +0.005 C 
ATOM     11  C   UNL     1      36.976 -24.161 -13.066  0.00  0.00    +0.071 C 
ATOM     12  C   UNL     1      35.801 -25.473 -15.228  0.00  0.00    +0.002 C 
ATOM     13  C   UNL     1      37.278 -25.499 -13.317  0.00  0.00    +0.004 C 
ATOM     14  C   UNL     1      36.689 -26.156 -14.398  0.00  0.00    -0.000 C 
BRANCH  11  18
ATOM     15  F   UNL     1      38.860 -23.908 -11.613  0.00  0.00    -0.166 F 
ATOM     16  F   UNL     1      37.742 -22.113 -12.095  0.00  0.00    -0.166 F 
ATOM     17  F   UNL     1      36.885 -23.598 -10.758  0.00  0.00    -0.166 F 
ATOM     18  C   UNL     1      37.605 -23.459 -11.908  0.00  0.00    +0.419 C 
ENDBRANCH  11  18
ENDBRANCH   2   9
BRANCH   1  19
ATOM     19  O   UNL     1      36.337 -22.799 -17.082  0.00  0.00    -0.377 OA
BRANCH  19  20
ATOM     20  C   UNL     1      36.711 -21.713 -17.917  0.00  0.00    +0.238 C 
BRANCH  20  21
ATOM     21  C   UNL     1      35.735 -21.588 -19.080  0.00  0.00    +0.051 C 
BRANCH  21  22
ATOM     22  C   UNL     1      36.243 -20.622 -20.158  0.00  0.00    +0.016 C 
BRANCH  22  23
ATOM     23  C   UNL     1      35.108 -19.837 -20.820  0.00  0.00    +0.109 C 
BRANCH  23  25
ATOM     24  O   UNL     1      35.382 -17.427 -20.607  0.00  0.00    -0.250 OA
ATOM     25  C   UNL     1      35.519 -18.450 -21.261  0.00  0.00    +0.314 C 
BRANCH  25  26
ATOM     26  O   UNL     1      36.051 -18.465 -22.512  0.00  0.00    -0.480 OA
ATOM     27  H   UNL     1      36.861 -18.907 -22.671  0.00  0.00    +0.295 HD
ENDBRANCH  25  26
ENDBRANCH  23  25
ENDBRANCH  22  23
ENDBRANCH  21  22
ENDBRANCH  20  21
ENDBRANCH  19  20
ENDBRANCH   1  19
TORSDOF 10
ENDMDL
MODEL 9
REMARK VINA RESULT:      -8.9     12.231     14.922
REMARK  Name = 5362391
REMARK  10 active torsions:
REMARK  status: ('A' for Active; 'I' for Inactive)
REMARK    1  A    between atoms: N_1  and  O_19
REMARK    2  A    between atoms: C_2  and  C_4
REMARK    3  A    between atoms: C_2  and  C_9
REMARK    4  A    between atoms: C_11  and  C_18
REMARK    5  A    between atoms: O_19  and  C_20
REMARK    6  A    between atoms: C_20  and  C_21
REMARK    7  A    between atoms: C_21  and  C_22
REMARK    8  A    between atoms: C_22  and  C_23
REMARK    9  A    between atoms: C_23  and  C_25
REMARK   10  A    between atoms: C_25  and  O_26
REMARK                            x       y       z     vdW  Elec       q    Type
REMARK                         _______ _______ _______ _____ _____    ______ ____
ROOT
ATOM      1  N   UNL     1      31.985 -11.429 -22.107  0.00  0.00    -0.083 NA
ATOM      2  C   UNL     1      32.457 -10.468 -22.848  0.00  0.00    +0.121 C 
ENDROOT
BRANCH   2   4
ATOM      3  N   UNL     1      32.109  -7.280 -20.933  0.00  0.00    -0.242 NA
ATOM      4  C   UNL     1      32.081  -9.058 -22.515  0.00  0.00    +0.040 C 
ATOM      5  C   UNL     1      31.404  -8.307 -23.436  0.00  0.00    +0.005 C 
ATOM      6  C   UNL     1      32.418  -8.545 -21.298  0.00  0.00    +0.100 C 
ATOM      7  C   UNL     1      31.068  -7.001 -23.098  0.00  0.00    +0.021 C 
ATOM      8  C   UNL     1      31.440  -6.539 -21.845  0.00  0.00    +0.099 C 
ENDBRANCH   2   4
BRANCH   2   9
ATOM      9  C   UNL     1      33.358 -10.701 -24.004  0.00  0.00    +0.021 C 
ATOM     10  C   UNL     1      33.018 -11.661 -24.935  0.00  0.00    +0.005 C 
ATOM     11  C   UNL     1      33.866 -11.878 -26.021  0.00  0.00    +0.071 C 
ATOM     12  C   UNL     1      34.510  -9.947 -24.114  0.00  0.00    +0.002 C 
ATOM     13  C   UNL     1      35.035 -11.131 -26.153  0.00  0.00    +0.004 C 
ATOM     14  C   UNL     1      35.357 -10.165 -25.200  0.00  0.00    -0.000 C 
BRANCH  11  18
ATOM     15  F   UNL     1      33.324 -14.155 -26.517  0.00  0.00    -0.166 F 
ATOM     16  F   UNL     1      32.378 -12.631 -27.737  0.00  0.00    -0.166 F 
ATOM     17  F   UNL     1      34.495 -13.060 -27.985  0.00  0.00    -0.166 F 
ATOM     18  C   UNL     1      33.521 -12.910 -27.042  0.00  0.00    +0.419 C 
ENDBRANCH  11  18
ENDBRANCH   2   9
BRANCH   1  19
ATOM     19  O   UNL     1      32.456 -12.686 -22.508  0.00  0.00    -0.377 OA
BRANCH  19  20
ATOM     20  C   UNL     1      32.611 -13.490 -21.348  0.00  0.00    +0.238 C 
BRANCH  20  21
ATOM     21  C   UNL     1      33.743 -14.489 -21.553  0.00  0.00    +0.051 C 
BRANCH  21  22
ATOM     22  C   UNL     1      34.289 -14.456 -22.986  0.00  0.00    +0.016 C 
BRANCH  22  23
ATOM     23  C   UNL     1      33.736 -15.593 -23.848  0.00  0.00    +0.109 C 
BRANCH  23  25
ATOM     24  O   UNL     1      34.859 -16.762 -25.665  0.00  0.00    -0.250 OA
ATOM     25  C   UNL     1      34.816 -16.436 -24.488  0.00  0.00    +0.314 C 
BRANCH  25  26
ATOM     26  O   UNL     1      35.748 -16.823 -23.578  0.00  0.00    -0.480 OA
ATOM     27  H   UNL     1      36.424 -17.423 -23.825  0.00  0.00    +0.295 HD
ENDBRANCH  25  26
ENDBRANCH  23  25
ENDBRANCH  22  23
ENDBRANCH  21  22
ENDBRANCH  20  21
ENDBRANCH  19  20
ENDBRANCH   1  19
TORSDOF 10
ENDMDL
