MODEL 1
REMARK VINA RESULT:      -6.3      0.000      0.000
REMARK  Name = 64950
REMARK  1 active torsions:
REMARK  status: ('A' for Active; 'I' for Inactive)
REMARK    1  A    between atoms: C_2  and  C_9
REMARK                            x       y       z     vdW  Elec       q    Type
REMARK                         _______ _______ _______ _____ _____    ______ ____
ROOT
ATOM      1  N   UNL     1      32.805 -21.625 -19.561  0.00  0.00    -0.242 NA
ATOM      2  C   UNL     1      34.571 -20.239 -20.458  0.00  0.00    +0.072 C 
ATOM      3  C   UNL     1      35.520 -21.003 -19.788  0.00  0.00    +0.008 C 
ATOM      4  C   UNL     1      33.238 -20.588 -20.313  0.00  0.00    +0.103 C 
ATOM      5  C   UNL     1      35.114 -22.078 -19.005  0.00  0.00    +0.021 C 
ATOM      6  C   UNL     1      33.756 -22.344 -18.925  0.00  0.00    +0.099 C 
ENDROOT
BRANCH   2   9
ATOM      7  O   UNL     1      35.468 -18.096 -20.770  0.00  0.00    -0.270 OA
ATOM      8  N   UNL     1      34.771 -19.234 -22.666  0.00  0.00    -0.299 N 
ATOM      9  C   UNL     1      34.965 -19.110 -21.284  0.00  0.00    +0.247 C 
ATOM     10  C   UNL     1      35.133 -18.210 -23.618  0.00  0.00    +0.111 C 
ATOM     11  H   UNL     1      34.366 -20.064 -23.006  0.00  0.00    +0.150 HD
ENDBRANCH   2   9
TORSDOF 1
ENDMDL
MODEL 2
REMARK VINA RESULT:      -6.2      0.975      1.543
REMARK  Name = 64950
REMARK  1 active torsions:
REMARK  status: ('A' for Active; 'I' for Inactive)
REMARK    1  A    between atoms: C_2  and  C_9
REMARK                            x       y       z     vdW  Elec       q    Type
REMARK                         _______ _______ _______ _____ _____    ______ ____
ROOT
ATOM      1  N   UNL     1      35.522 -22.153 -19.026  0.00  0.00    -0.242 NA
ATOM      2  C   UNL     1      34.793 -20.299 -20.396  0.00  0.00    +0.072 C 
ATOM      3  C   UNL     1      33.467 -20.596 -20.104  0.00  0.00    +0.008 C 
ATOM      4  C   UNL     1      35.775 -21.100 -19.837  0.00  0.00    +0.103 C 
ATOM      5  C   UNL     1      33.166 -21.670 -19.273  0.00  0.00    +0.021 C 
ATOM      6  C   UNL     1      34.222 -22.410 -18.765  0.00  0.00    +0.099 C 
ENDROOT
BRANCH   2   9
ATOM      7  O   UNL     1      35.634 -18.145 -20.786  0.00  0.00    -0.270 OA
ATOM      8  N   UNL     1      34.908 -19.346 -22.632  0.00  0.00    -0.299 N 
ATOM      9  C   UNL     1      35.138 -19.183 -21.260  0.00  0.00    +0.247 C 
ATOM     10  C   UNL     1      35.220 -18.338 -23.620  0.00  0.00    +0.111 C 
ATOM     11  H   UNL     1      34.513 -20.193 -22.940  0.00  0.00    +0.150 HD
ENDBRANCH   2   9
TORSDOF 1
ENDMDL
MODEL 3
REMARK VINA RESULT:      -5.9      3.465      4.636
REMARK  Name = 64950
REMARK  1 active torsions:
REMARK  status: ('A' for Active; 'I' for Inactive)
REMARK    1  A    between atoms: C_2  and  C_9
REMARK                            x       y       z     vdW  Elec       q    Type
REMARK                         _______ _______ _______ _____ _____    ______ ____
ROOT
ATOM      1  N   UNL     1      35.260 -17.291 -21.201  0.00  0.00    -0.242 NA
ATOM      2  C   UNL     1      34.712 -17.327 -23.556  0.00  0.00    +0.072 C 
ATOM      3  C   UNL     1      34.720 -18.718 -23.542  0.00  0.00    +0.008 C 
ATOM      4  C   UNL     1      34.986 -16.667 -22.369  0.00  0.00    +0.103 C 
ATOM      5  C   UNL     1      34.997 -19.396 -22.361  0.00  0.00    +0.021 C 
ATOM      6  C   UNL     1      35.259 -18.642 -21.228  0.00  0.00    +0.099 C 
ENDROOT
BRANCH   2   9
ATOM      7  O   UNL     1      34.906 -16.958 -25.862  0.00  0.00    -0.270 OA
ATOM      8  N   UNL     1      33.577 -15.482 -24.664  0.00  0.00    -0.299 N 
ATOM      9  C   UNL     1      34.426 -16.591 -24.775  0.00  0.00    +0.247 C 
ATOM     10  C   UNL     1      33.180 -14.665 -25.788  0.00  0.00    +0.111 C 
ATOM     11  H   UNL     1      33.233 -15.248 -23.773  0.00  0.00    +0.150 HD
ENDBRANCH   2   9
TORSDOF 1
ENDMDL
MODEL 4
REMARK VINA RESULT:      -5.9      2.691      4.949
REMARK  Name = 64950
REMARK  1 active torsions:
REMARK  status: ('A' for Active; 'I' for Inactive)
REMARK    1  A    between atoms: C_2  and  C_9
REMARK                            x       y       z     vdW  Elec       q    Type
REMARK                         _______ _______ _______ _____ _____    ______ ____
ROOT
ATOM      1  N   UNL     1      35.910 -20.996 -20.266  0.00  0.00    -0.242 NA
ATOM      2  C   UNL     1      33.939 -21.801 -19.120  0.00  0.00    +0.072 C 
ATOM      3  C   UNL     1      33.157 -20.875 -19.802  0.00  0.00    +0.008 C 
ATOM      4  C   UNL     1      35.299 -21.821 -19.386  0.00  0.00    +0.103 C 
ATOM      5  C   UNL     1      33.749 -20.010 -20.715  0.00  0.00    +0.021 C 
ATOM      6  C   UNL     1      35.117 -20.110 -20.908  0.00  0.00    +0.099 C 
ENDROOT
BRANCH   2   9
ATOM      7  O   UNL     1      33.955 -23.750 -17.817  0.00  0.00    -0.270 OA
ATOM      8  N   UNL     1      32.097 -22.373 -17.637  0.00  0.00    -0.299 N 
ATOM      9  C   UNL     1      33.349 -22.719 -18.161  0.00  0.00    +0.247 C 
ATOM     10  C   UNL     1      31.393 -23.170 -16.657  0.00  0.00    +0.111 C 
ATOM     11  H   UNL     1      31.674 -21.543 -17.953  0.00  0.00    +0.150 HD
ENDBRANCH   2   9
TORSDOF 1
ENDMDL
MODEL 5
REMARK VINA RESULT:      -5.9      1.664      4.966
REMARK  Name = 64950
REMARK  1 active torsions:
REMARK  status: ('A' for Active; 'I' for Inactive)
REMARK    1  A    between atoms: C_2  and  C_9
REMARK                            x       y       z     vdW  Elec       q    Type
REMARK                         _______ _______ _______ _____ _____    ______ ____
ROOT
ATOM      1  N   UNL     1      35.239 -16.121 -23.394  0.00  0.00    -0.242 NA
ATOM      2  C   UNL     1      34.869 -18.320 -22.457  0.00  0.00    +0.072 C 
ATOM      3  C   UNL     1      34.601 -18.821 -23.726  0.00  0.00    +0.008 C 
ATOM      4  C   UNL     1      35.180 -16.974 -22.345  0.00  0.00    +0.103 C 
ATOM      5  C   UNL     1      34.651 -17.976 -24.829  0.00  0.00    +0.021 C 
ATOM      6  C   UNL     1      34.972 -16.645 -24.610  0.00  0.00    +0.099 C 
ENDROOT
BRANCH   2   9
ATOM      7  O   UNL     1      35.789 -19.230 -20.503  0.00  0.00    -0.270 OA
ATOM      8  N   UNL     1      33.649 -19.913 -21.081  0.00  0.00    -0.299 N 
ATOM      9  C   UNL     1      34.824 -19.178 -21.287  0.00  0.00    +0.247 C 
ATOM     10  C   UNL     1      33.443 -20.792 -19.952  0.00  0.00    +0.111 C 
ATOM     11  H   UNL     1      32.925 -19.826 -21.741  0.00  0.00    +0.150 HD
ENDBRANCH   2   9
TORSDOF 1
ENDMDL
MODEL 6
REMARK VINA RESULT:      -5.7      5.804      7.194
REMARK  Name = 64950
REMARK  1 active torsions:
REMARK  status: ('A' for Active; 'I' for Inactive)
REMARK    1  A    between atoms: C_2  and  C_9
REMARK                            x       y       z     vdW  Elec       q    Type
REMARK                         _______ _______ _______ _____ _____    ______ ____
ROOT
ATOM      1  N   UNL     1      33.894 -16.427 -25.940  0.00  0.00    -0.242 NA
ATOM      2  C   UNL     1      33.774 -14.717 -24.234  0.00  0.00    +0.072 C 
ATOM      3  C   UNL     1      34.541 -15.504 -23.382  0.00  0.00    +0.008 C 
ATOM      4  C   UNL     1      33.481 -15.219 -25.492  0.00  0.00    +0.103 C 
ATOM      5  C   UNL     1      34.986 -16.751 -23.807  0.00  0.00    +0.021 C 
ATOM      6  C   UNL     1      34.637 -17.162 -25.084  0.00  0.00    +0.099 C 
ENDROOT
BRANCH   2   9
ATOM      7  O   UNL     1      32.296 -13.306 -23.085  0.00  0.00    -0.270 OA
ATOM      8  N   UNL     1      34.020 -12.296 -24.261  0.00  0.00    -0.299 N 
ATOM      9  C   UNL     1      33.295 -13.410 -23.818  0.00  0.00    +0.247 C 
ATOM     10  C   UNL     1      33.684 -10.934 -23.914  0.00  0.00    +0.111 C 
ATOM     11  H   UNL     1      34.801 -12.450 -24.840  0.00  0.00    +0.150 HD
ENDBRANCH   2   9
TORSDOF 1
ENDMDL
MODEL 7
REMARK VINA RESULT:      -5.7      3.951      6.776
REMARK  Name = 64950
REMARK  1 active torsions:
REMARK  status: ('A' for Active; 'I' for Inactive)
REMARK    1  A    between atoms: C_2  and  C_9
REMARK                            x       y       z     vdW  Elec       q    Type
REMARK                         _______ _______ _______ _____ _____    ______ ____
ROOT
ATOM      1  N   UNL     1      33.585 -15.767 -26.250  0.00  0.00    -0.242 NA
ATOM      2  C   UNL     1      34.276 -15.716 -23.933  0.00  0.00    +0.072 C 
ATOM      3  C   UNL     1      33.702 -14.458 -23.783  0.00  0.00    +0.008 C 
ATOM      4  C   UNL     1      34.191 -16.323 -25.176  0.00  0.00    +0.103 C 
ATOM      5  C   UNL     1      33.070 -13.854 -24.864  0.00  0.00    +0.021 C 
ATOM      6  C   UNL     1      33.040 -14.544 -26.065  0.00  0.00    +0.099 C 
ENDROOT
BRANCH   2   9
ATOM      7  O   UNL     1      34.824 -15.934 -21.664  0.00  0.00    -0.270 OA
ATOM      8  N   UNL     1      35.692 -17.519 -23.117  0.00  0.00    -0.299 N 
ATOM      9  C   UNL     1      34.943 -16.373 -22.822  0.00  0.00    +0.247 C 
ATOM     10  C   UNL     1      36.393 -18.294 -22.120  0.00  0.00    +0.111 C 
ATOM     11  H   UNL     1      35.745 -17.811 -24.056  0.00  0.00    +0.150 HD
ENDBRANCH   2   9
TORSDOF 1
ENDMDL
MODEL 8
REMARK VINA RESULT:      -5.6      2.784      5.272
REMARK  Name = 64950
REMARK  1 active torsions:
REMARK  status: ('A' for Active; 'I' for Inactive)
REMARK    1  A    between atoms: C_2  and  C_9
REMARK                            x       y       z     vdW  Elec       q    Type
REMARK                         _______ _______ _______ _____ _____    ______ ____
ROOT
ATOM      1  N   UNL     1      34.925 -15.354 -23.331  0.00  0.00    -0.242 NA
ATOM      2  C   UNL     1      34.893 -17.150 -21.712  0.00  0.00    +0.072 C 
ATOM      3  C   UNL     1      34.500 -16.258 -20.721  0.00  0.00    +0.008 C 
ATOM      4  C   UNL     1      35.091 -16.653 -22.990  0.00  0.00    +0.103 C 
ATOM      5  C   UNL     1      34.319 -14.915 -21.032  0.00  0.00    +0.021 C 
ATOM      6  C   UNL     1      34.543 -14.518 -22.341  0.00  0.00    +0.099 C 
ENDROOT
BRANCH   2   9
ATOM      7  O   UNL     1      34.334 -19.419 -21.904  0.00  0.00    -0.270 OA
ATOM      8  N   UNL     1      36.170 -18.891 -20.590  0.00  0.00    -0.299 N 
ATOM      9  C   UNL     1      35.090 -18.559 -21.418  0.00  0.00    +0.247 C 
ATOM     10  C   UNL     1      36.510 -20.248 -20.225  0.00  0.00    +0.111 C 
ATOM     11  H   UNL     1      36.728 -18.161 -20.238  0.00  0.00    +0.150 HD
ENDBRANCH   2   9
TORSDOF 1
ENDMDL
MODEL 9
REMARK VINA RESULT:      -5.6      7.917      8.433
REMARK  Name = 64950
REMARK  1 active torsions:
REMARK  status: ('A' for Active; 'I' for Inactive)
REMARK    1  A    between atoms: C_2  and  C_9
REMARK                            x       y       z     vdW  Elec       q    Type
REMARK                         _______ _______ _______ _____ _____    ______ ____
ROOT
ATOM      1  N   UNL     1      30.322 -25.437 -14.483  0.00  0.00    -0.242 NA
ATOM      2  C   UNL     1      29.214 -23.744 -15.807  0.00  0.00    +0.072 C 
ATOM      3  C   UNL     1      30.191 -22.820 -15.453  0.00  0.00    +0.008 C 
ATOM      4  C   UNL     1      29.324 -25.029 -15.300  0.00  0.00    +0.103 C 
ATOM      5  C   UNL     1      31.233 -23.202 -14.615  0.00  0.00    +0.021 C 
ATOM      6  C   UNL     1      31.251 -24.511 -14.161  0.00  0.00    +0.099 C 
ENDROOT
BRANCH   2   9
ATOM      7  O   UNL     1      27.728 -24.149 -17.574  0.00  0.00    -0.270 OA
ATOM      8  N   UNL     1      27.507 -22.133 -16.450  0.00  0.00    -0.299 N 
ATOM      9  C   UNL     1      28.114 -23.375 -16.680  0.00  0.00    +0.247 C 
ATOM     10  C   UNL     1      26.388 -21.636 -17.217  0.00  0.00    +0.111 C 
ATOM     11  H   UNL     1      27.863 -21.570 -15.725  0.00  0.00    +0.150 HD
ENDBRANCH   2   9
TORSDOF 1
ENDMDL
