MODEL 1
REMARK VINA RESULT:      -9.5      0.000      0.000
REMARK  Name = 11840934
REMARK  13 active torsions:
REMARK  status: ('A' for Active; 'I' for Inactive)
REMARK    1  A    between atoms: C_1  and  C_4
REMARK    2  A    between atoms: C_1  and  N_14
REMARK    3  A    between atoms: C_1  and  C_30
REMARK    4  A    between atoms: N_3  and  C_6
REMARK    5  A    between atoms: C_6  and  C_9
REMARK    6  A    between atoms: C_9  and  N_10
REMARK    7  A    between atoms: N_14  and  C_17
REMARK    8  A    between atoms: C_17  and  C_18
REMARK    9  A    between atoms: C_17  and  C_29
REMARK   10  A    between atoms: C_23  and  O_24
REMARK   11  A    between atoms: C_30  and  S_31
REMARK   12  A    between atoms: S_31  and  C_34
REMARK   13  A    between atoms: C_34  and  C_35
REMARK                            x       y       z     vdW  Elec       q    Type
REMARK                         _______ _______ _______ _____ _____    ______ ____
ROOT
ATOM      1  C   UNL     1      33.397 -22.680 -16.014  0.00  0.00    +0.042 C 
ENDROOT
BRANCH   1   4
ATOM      2  O   UNL     1      31.584 -22.256 -14.462  0.00  0.00    -0.277 OA
ATOM      3  N   UNL     1      31.325 -23.937 -16.039  0.00  0.00    -0.311 N 
ATOM      4  C   UNL     1      32.014 -22.907 -15.412  0.00  0.00    +0.204 C 
ATOM      5  H   UNL     1      31.752 -24.401 -16.795  0.00  0.00    +0.149 HD
BRANCH   3   6
ATOM      6  C   UNL     1      30.014 -24.350 -15.625  0.00  0.00    +0.037 C 
ATOM      7  C   UNL     1      29.776 -24.754 -14.200  0.00  0.00    +0.017 C 
ATOM      8  C   UNL     1      29.762 -25.790 -15.286  0.00  0.00    +0.017 C 
BRANCH   6   9
ATOM      9  C   UNL     1      28.908 -23.617 -16.308  0.00  0.00    -0.068 C 
BRANCH   9  10
ATOM     10  N   UNL     1      28.537 -22.412 -15.574  0.00  0.00    +0.382 N 
ATOM     11  H   UNL     1      28.720 -22.550 -14.581  0.00  0.00    -0.089 HD
ATOM     12  H   UNL     1      27.544 -22.221 -15.714  0.00  0.00    -0.089 HD
ATOM     13  H   UNL     1      29.087 -21.624 -15.914  0.00  0.00    -0.089 HD
ENDBRANCH   9  10
ENDBRANCH   6   9
ENDBRANCH   3   6
ENDBRANCH   1   4
BRANCH   1  14
ATOM     14  N   UNL     1      34.343 -22.822 -14.908  0.00  0.00    +0.401 N 
ATOM     15  H   UNL     1      34.010 -22.278 -14.111  0.00  0.00    -0.083 HD
ATOM     16  H   UNL     1      35.256 -22.483 -15.212  0.00  0.00    -0.083 HD
BRANCH  14  17
ATOM     17  C   UNL     1      34.469 -24.216 -14.515  0.00  0.00    +0.059 C 
BRANCH  17  18
ATOM     18  C   UNL     1      35.882 -24.730 -14.718  0.00  0.00    -0.034 C 
ATOM     19  C   UNL     1      36.100 -26.076 -15.010  0.00  0.00    -0.003 C 
ATOM     20  C   UNL     1      36.963 -23.855 -14.611  0.00  0.00    -0.003 C 
ATOM     21  C   UNL     1      37.399 -26.548 -15.196  0.00  0.00    +0.036 C 
ATOM     22  C   UNL     1      38.262 -24.327 -14.796  0.00  0.00    +0.036 C 
ATOM     23  C   UNL     1      38.481 -25.673 -15.089  0.00  0.00    +0.134 C 
BRANCH  23  24
ATOM     24  O   UNL     1      39.748 -26.134 -15.270  0.00  0.00    -0.506 OA
ATOM     25  H   UNL     1      40.176 -26.016 -16.096  0.00  0.00    +0.292 HD
ENDBRANCH  23  24
ENDBRANCH  17  18
BRANCH  17  29
ATOM     26  F   UNL     1      33.682 -23.225 -12.512  0.00  0.00    -0.172 F 
ATOM     27  F   UNL     1      32.842 -25.156 -13.062  0.00  0.00    -0.172 F 
ATOM     28  F   UNL     1      34.886 -25.031 -12.304  0.00  0.00    -0.172 F 
ATOM     29  C   UNL     1      33.974 -24.416 -13.086  0.00  0.00    +0.384 C 
ENDBRANCH  17  29
ENDBRANCH  14  17
ENDBRANCH   1  14
BRANCH   1  30
ATOM     30  C   UNL     1      33.731 -23.704 -17.095  0.00  0.00    +0.139 C 
BRANCH  30  31
ATOM     31  S   UNL     1      33.748 -22.976 -18.706  0.00  0.00    -0.007 S 
ATOM     32  O   UNL     1      33.940 -24.038 -19.678  0.00  0.00    -0.173 OA
ATOM     33  O   UNL     1      32.615 -22.074 -18.808  0.00  0.00    -0.173 OA
BRANCH  31  34
ATOM     34  C   UNL     1      35.225 -21.987 -18.692  0.00  0.00    +0.177 C 
BRANCH  34  35
ATOM     35  C   UNL     1      35.074 -20.925 -19.737  0.00  0.00    +0.001 C 
ATOM     36  C   UNL     1      36.198 -20.254 -20.217  0.00  0.00    -0.003 C 
ATOM     37  C   UNL     1      33.808 -20.607 -20.229  0.00  0.00    -0.003 C 
ATOM     38  C   UNL     1      36.057 -19.264 -21.190  0.00  0.00    -0.000 C 
ATOM     39  C   UNL     1      33.667 -19.618 -21.202  0.00  0.00    -0.000 C 
ATOM     40  C   UNL     1      34.792 -18.946 -21.683  0.00  0.00    -0.000 C 
ENDBRANCH  34  35
ENDBRANCH  31  34
ENDBRANCH  30  31
ENDBRANCH   1  30
TORSDOF 13
ENDMDL
MODEL 2
REMARK VINA RESULT:      -9.3      1.960      5.531
REMARK  Name = 11840934
REMARK  13 active torsions:
REMARK  status: ('A' for Active; 'I' for Inactive)
REMARK    1  A    between atoms: C_1  and  C_4
REMARK    2  A    between atoms: C_1  and  N_14
REMARK    3  A    between atoms: C_1  and  C_30
REMARK    4  A    between atoms: N_3  and  C_6
REMARK    5  A    between atoms: C_6  and  C_9
REMARK    6  A    between atoms: C_9  and  N_10
REMARK    7  A    between atoms: N_14  and  C_17
REMARK    8  A    between atoms: C_17  and  C_18
REMARK    9  A    between atoms: C_17  and  C_29
REMARK   10  A    between atoms: C_23  and  O_24
REMARK   11  A    between atoms: C_30  and  S_31
REMARK   12  A    between atoms: S_31  and  C_34
REMARK   13  A    between atoms: C_34  and  C_35
REMARK                            x       y       z     vdW  Elec       q    Type
REMARK                         _______ _______ _______ _____ _____    ______ ____
ROOT
ATOM      1  C   UNL     1      34.353 -24.079 -15.911  0.00  0.00    +0.042 C 
ENDROOT
BRANCH   1   4
ATOM      2  O   UNL     1      35.860 -22.845 -14.467  0.00  0.00    -0.277 OA
ATOM      3  N   UNL     1      35.554 -25.111 -14.076  0.00  0.00    -0.311 N 
ATOM      4  C   UNL     1      35.327 -23.917 -14.748  0.00  0.00    +0.204 C 
ATOM      5  H   UNL     1      35.078 -25.920 -14.375  0.00  0.00    +0.149 HD
BRANCH   3   6
ATOM      6  C   UNL     1      36.455 -25.209 -12.964  0.00  0.00    +0.037 C 
ATOM      7  C   UNL     1      37.933 -25.091 -13.191  0.00  0.00    +0.017 C 
ATOM      8  C   UNL     1      37.335 -26.418 -12.826  0.00  0.00    +0.017 C 
BRANCH   6   9
ATOM      9  C   UNL     1      35.922 -24.619 -11.701  0.00  0.00    -0.068 C 
BRANCH   9  10
ATOM     10  N   UNL     1      36.506 -23.309 -11.440  0.00  0.00    +0.382 N 
ATOM     11  H   UNL     1      36.300 -22.683 -12.218  0.00  0.00    -0.089 HD
ATOM     12  H   UNL     1      37.517 -23.402 -11.337  0.00  0.00    -0.089 HD
ATOM     13  H   UNL     1      36.111 -22.925 -10.582  0.00  0.00    -0.089 HD
ENDBRANCH   9  10
ENDBRANCH   6   9
ENDBRANCH   3   6
ENDBRANCH   1   4
BRANCH   1  14
ATOM     14  N   UNL     1      33.159 -24.707 -15.348  0.00  0.00    +0.401 N 
ATOM     15  H   UNL     1      33.435 -25.340 -14.597  0.00  0.00    -0.083 HD
ATOM     16  H   UNL     1      32.679 -25.221 -16.086  0.00  0.00    -0.083 HD
BRANCH  14  17
ATOM     17  C   UNL     1      32.253 -23.702 -14.814  0.00  0.00    +0.059 C 
BRANCH  17  18
ATOM     18  C   UNL     1      30.927 -23.695 -15.552  0.00  0.00    -0.034 C 
ATOM     19  C   UNL     1      30.205 -24.879 -15.701  0.00  0.00    -0.003 C 
ATOM     20  C   UNL     1      30.431 -22.504 -16.081  0.00  0.00    -0.003 C 
ATOM     21  C   UNL     1      28.987 -24.872 -16.379  0.00  0.00    +0.036 C 
ATOM     22  C   UNL     1      29.213 -22.497 -16.761  0.00  0.00    +0.036 C 
ATOM     23  C   UNL     1      28.491 -23.681 -16.910  0.00  0.00    +0.134 C 
BRANCH  23  24
ATOM     24  O   UNL     1      27.301 -23.675 -17.572  0.00  0.00    -0.506 OA
ATOM     25  H   UNL     1      27.071 -22.946 -18.114  0.00  0.00    +0.292 HD
ENDBRANCH  23  24
ENDBRANCH  17  18
BRANCH  17  29
ATOM     26  F   UNL     1      32.162 -25.189 -12.971  0.00  0.00    -0.172 F 
ATOM     27  F   UNL     1      33.059 -23.236 -12.629  0.00  0.00    -0.172 F 
ATOM     28  F   UNL     1      30.896 -23.417 -12.863  0.00  0.00    -0.172 F 
ATOM     29  C   UNL     1      32.083 -23.880 -13.308  0.00  0.00    +0.384 C 
ENDBRANCH  17  29
ENDBRANCH  14  17
ENDBRANCH   1  14
BRANCH   1  30
ATOM     30  C   UNL     1      33.970 -22.740 -16.533  0.00  0.00    +0.139 C 
BRANCH  30  31
ATOM     31  S   UNL     1      33.694 -22.880 -18.274  0.00  0.00    -0.007 S 
ATOM     32  O   UNL     1      33.678 -24.291 -18.616  0.00  0.00    -0.173 OA
ATOM     33  O   UNL     1      32.579 -22.019 -18.626  0.00  0.00    -0.173 OA
BRANCH  31  34
ATOM     34  C   UNL     1      35.164 -22.172 -18.979  0.00  0.00    +0.177 C 
BRANCH  34  35
ATOM     35  C   UNL     1      34.747 -21.027 -19.849  0.00  0.00    +0.001 C 
ATOM     36  C   UNL     1      33.394 -20.763 -20.053  0.00  0.00    -0.003 C 
ATOM     37  C   UNL     1      35.714 -20.225 -20.456  0.00  0.00    -0.003 C 
ATOM     38  C   UNL     1      33.005 -19.696 -20.864  0.00  0.00    -0.000 C 
ATOM     39  C   UNL     1      35.325 -19.158 -21.266  0.00  0.00    -0.000 C 
ATOM     40  C   UNL     1      33.971 -18.894 -21.470  0.00  0.00    -0.000 C 
ENDBRANCH  34  35
ENDBRANCH  31  34
ENDBRANCH  30  31
ENDBRANCH   1  30
TORSDOF 13
ENDMDL
MODEL 3
REMARK VINA RESULT:      -9.1      9.644     14.130
REMARK  Name = 11840934
REMARK  13 active torsions:
REMARK  status: ('A' for Active; 'I' for Inactive)
REMARK    1  A    between atoms: C_1  and  C_4
REMARK    2  A    between atoms: C_1  and  N_14
REMARK    3  A    between atoms: C_1  and  C_30
REMARK    4  A    between atoms: N_3  and  C_6
REMARK    5  A    between atoms: C_6  and  C_9
REMARK    6  A    between atoms: C_9  and  N_10
REMARK    7  A    between atoms: N_14  and  C_17
REMARK    8  A    between atoms: C_17  and  C_18
REMARK    9  A    between atoms: C_17  and  C_29
REMARK   10  A    between atoms: C_23  and  O_24
REMARK   11  A    between atoms: C_30  and  S_31
REMARK   12  A    between atoms: S_31  and  C_34
REMARK   13  A    between atoms: C_34  and  C_35
REMARK                            x       y       z     vdW  Elec       q    Type
REMARK                         _______ _______ _______ _____ _____    ______ ____
ROOT
ATOM      1  C   UNL     1      32.983 -12.693 -22.683  0.00  0.00    +0.042 C 
ENDROOT
BRANCH   1   4
ATOM      2  O   UNL     1      34.219 -12.037 -24.662  0.00  0.00    -0.277 OA
ATOM      3  N   UNL     1      32.712 -13.792 -24.826  0.00  0.00    -0.311 N 
ATOM      4  C   UNL     1      33.393 -12.789 -24.149  0.00  0.00    +0.204 C 
ATOM      5  H   UNL     1      32.067 -14.345 -24.328  0.00  0.00    +0.149 HD
BRANCH   3   6
ATOM      6  C   UNL     1      32.912 -14.051 -26.223  0.00  0.00    +0.037 C 
ATOM      7  C   UNL     1      33.695 -13.078 -27.055  0.00  0.00    +0.017 C 
ATOM      8  C   UNL     1      32.212 -13.202 -27.244  0.00  0.00    +0.017 C 
BRANCH   6   9
ATOM      9  C   UNL     1      33.076 -15.497 -26.551  0.00  0.00    -0.068 C 
BRANCH   9  10
ATOM     10  N   UNL     1      33.912 -16.174 -25.567  0.00  0.00    +0.382 N 
ATOM     11  H   UNL     1      34.876 -15.855 -25.662  0.00  0.00    -0.089 HD
ATOM     12  H   UNL     1      33.870 -17.182 -25.721  0.00  0.00    -0.089 HD
ATOM     13  H   UNL     1      33.575 -15.959 -24.628  0.00  0.00    -0.089 HD
ENDBRANCH   9  10
ENDBRANCH   6   9
ENDBRANCH   3   6
ENDBRANCH   1   4
BRANCH   1  14
ATOM     14  N   UNL     1      31.908 -11.703 -22.632  0.00  0.00    +0.401 N 
ATOM     15  H   UNL     1      31.017 -12.183 -22.500  0.00  0.00    -0.083 HD
ATOM     16  H   UNL     1      31.903 -11.179 -23.507  0.00  0.00    -0.083 HD
BRANCH  14  17
ATOM     17  C   UNL     1      32.116 -10.774 -21.533  0.00  0.00    +0.059 C 
BRANCH  17  18
ATOM     18  C   UNL     1      32.018  -9.332 -21.992  0.00  0.00    -0.034 C 
ATOM     19  C   UNL     1      31.260  -9.008 -23.116  0.00  0.00    -0.003 C 
ATOM     20  C   UNL     1      32.688  -8.330 -21.290  0.00  0.00    -0.003 C 
ATOM     21  C   UNL     1      31.170  -7.682 -23.539  0.00  0.00    +0.036 C 
ATOM     22  C   UNL     1      32.599  -7.004 -21.712  0.00  0.00    +0.036 C 
ATOM     23  C   UNL     1      31.840  -6.680 -22.837  0.00  0.00    +0.134 C 
BRANCH  23  24
ATOM     24  O   UNL     1      31.752  -5.385 -23.249  0.00  0.00    -0.506 OA
ATOM     25  H   UNL     1      32.529  -4.912 -23.475  0.00  0.00    +0.292 HD
ENDBRANCH  23  24
ENDBRANCH  17  18
BRANCH  17  29
ATOM     26  F   UNL     1      29.955 -11.468 -20.852  0.00  0.00    -0.172 F 
ATOM     27  F   UNL     1      31.637 -12.105 -19.624  0.00  0.00    -0.172 F 
ATOM     28  F   UNL     1      30.970 -10.026 -19.569  0.00  0.00    -0.172 F 
ATOM     29  C   UNL     1      31.166 -11.086 -20.381  0.00  0.00    +0.384 C 
ENDBRANCH  17  29
ENDBRANCH  14  17
ENDBRANCH   1  14
BRANCH   1  30
ATOM     30  C   UNL     1      32.467 -14.022 -22.140  0.00  0.00    +0.139 C 
BRANCH  30  31
ATOM     31  S   UNL     1      33.789 -15.097 -21.668  0.00  0.00    -0.007 S 
ATOM     32  O   UNL     1      34.423 -15.590 -22.878  0.00  0.00    -0.173 OA
ATOM     33  O   UNL     1      34.570 -14.430 -20.641  0.00  0.00    -0.173 OA
BRANCH  31  34
ATOM     34  C   UNL     1      32.951 -16.465 -20.903  0.00  0.00    +0.177 C 
BRANCH  34  35
ATOM     35  C   UNL     1      33.861 -17.652 -20.967  0.00  0.00    +0.001 C 
ATOM     36  C   UNL     1      35.239 -17.469 -21.080  0.00  0.00    -0.003 C 
ATOM     37  C   UNL     1      33.330 -18.941 -20.916  0.00  0.00    -0.003 C 
ATOM     38  C   UNL     1      36.087 -18.575 -21.141  0.00  0.00    -0.000 C 
ATOM     39  C   UNL     1      34.179 -20.046 -20.975  0.00  0.00    -0.000 C 
ATOM     40  C   UNL     1      35.557 -19.863 -21.089  0.00  0.00    -0.000 C 
ENDBRANCH  34  35
ENDBRANCH  31  34
ENDBRANCH  30  31
ENDBRANCH   1  30
TORSDOF 13
ENDMDL
MODEL 4
REMARK VINA RESULT:      -8.8     10.371     14.926
REMARK  Name = 11840934
REMARK  13 active torsions:
REMARK  status: ('A' for Active; 'I' for Inactive)
REMARK    1  A    between atoms: C_1  and  C_4
REMARK    2  A    between atoms: C_1  and  N_14
REMARK    3  A    between atoms: C_1  and  C_30
REMARK    4  A    between atoms: N_3  and  C_6
REMARK    5  A    between atoms: C_6  and  C_9
REMARK    6  A    between atoms: C_9  and  N_10
REMARK    7  A    between atoms: N_14  and  C_17
REMARK    8  A    between atoms: C_17  and  C_18
REMARK    9  A    between atoms: C_17  and  C_29
REMARK   10  A    between atoms: C_23  and  O_24
REMARK   11  A    between atoms: C_30  and  S_31
REMARK   12  A    between atoms: S_31  and  C_34
REMARK   13  A    between atoms: C_34  and  C_35
REMARK                            x       y       z     vdW  Elec       q    Type
REMARK                         _______ _______ _______ _____ _____    ______ ____
ROOT
ATOM      1  C   UNL     1      32.942 -12.160 -22.792  0.00  0.00    +0.042 C 
ENDROOT
BRANCH   1   4
ATOM      2  O   UNL     1      33.598 -12.228 -25.126  0.00  0.00    -0.277 OA
ATOM      3  N   UNL     1      34.264 -10.418 -23.837  0.00  0.00    -0.311 N 
ATOM      4  C   UNL     1      33.616 -11.627 -24.052  0.00  0.00    +0.204 C 
ATOM      5  H   UNL     1      34.222 -10.012 -22.941  0.00  0.00    +0.149 HD
BRANCH   3   6
ATOM      6  C   UNL     1      34.992  -9.739 -24.871  0.00  0.00    +0.037 C 
ATOM      7  C   UNL     1      35.163 -10.392 -26.212  0.00  0.00    +0.017 C 
ATOM      8  C   UNL     1      36.339 -10.252 -25.290  0.00  0.00    +0.017 C 
BRANCH   6   9
ATOM      9  C   UNL     1      34.809  -8.258 -24.865  0.00  0.00    -0.068 C 
BRANCH   9  10
ATOM     10  N   UNL     1      34.821  -7.727 -23.508  0.00  0.00    +0.382 N 
ATOM     11  H   UNL     1      34.892  -8.497 -22.842  0.00  0.00    -0.089 HD
ATOM     12  H   UNL     1      33.959  -7.209 -23.337  0.00  0.00    -0.089 HD
ATOM     13  H   UNL     1      35.621  -7.105 -23.392  0.00  0.00    -0.089 HD
ENDBRANCH   9  10
ENDBRANCH   6   9
ENDBRANCH   3   6
ENDBRANCH   1   4
BRANCH   1  14
ATOM     14  N   UNL     1      31.827 -11.253 -22.522  0.00  0.00    +0.401 N 
ATOM     15  H   UNL     1      30.962 -11.791 -22.472  0.00  0.00    -0.083 HD
ATOM     16  H   UNL     1      31.774 -10.565 -23.273  0.00  0.00    -0.083 HD
BRANCH  14  17
ATOM     17  C   UNL     1      32.027 -10.554 -21.262  0.00  0.00    +0.059 C 
BRANCH  17  18
ATOM     18  C   UNL     1      31.959  -9.050 -21.439  0.00  0.00    -0.034 C 
ATOM     19  C   UNL     1      32.486  -8.207 -20.461  0.00  0.00    -0.003 C 
ATOM     20  C   UNL     1      31.368  -8.509 -22.580  0.00  0.00    -0.003 C 
ATOM     21  C   UNL     1      32.422  -6.823 -20.623  0.00  0.00    +0.036 C 
ATOM     22  C   UNL     1      31.303  -7.125 -22.744  0.00  0.00    +0.036 C 
ATOM     23  C   UNL     1      31.831  -6.282 -21.765  0.00  0.00    +0.134 C 
BRANCH  23  24
ATOM     24  O   UNL     1      31.769  -4.932 -21.925  0.00  0.00    -0.506 OA
ATOM     25  H   UNL     1      32.289  -4.372 -21.382  0.00  0.00    +0.292 HD
ENDBRANCH  23  24
ENDBRANCH  17  18
BRANCH  17  29
ATOM     26  F   UNL     1      31.575 -12.117 -19.539  0.00  0.00    -0.172 F 
ATOM     27  F   UNL     1      30.782 -10.105 -19.290  0.00  0.00    -0.172 F 
ATOM     28  F   UNL     1      29.876 -11.465 -20.739  0.00  0.00    -0.172 F 
ATOM     29  C   UNL     1      31.049 -11.063 -20.207  0.00  0.00    +0.384 C 
ENDBRANCH  17  29
ENDBRANCH  14  17
ENDBRANCH   1  14
BRANCH   1  30
ATOM     30  C   UNL     1      32.404 -13.574 -22.980  0.00  0.00    +0.139 C 
BRANCH  30  31
ATOM     31  S   UNL     1      33.205 -14.729 -21.907  0.00  0.00    -0.007 S 
ATOM     32  O   UNL     1      33.712 -14.000 -20.758  0.00  0.00    -0.173 OA
ATOM     33  O   UNL     1      32.324 -15.869 -21.730  0.00  0.00    -0.173 OA
BRANCH  31  34
ATOM     34  C   UNL     1      34.603 -15.272 -22.861  0.00  0.00    +0.177 C 
BRANCH  34  35
ATOM     35  C   UNL     1      34.784 -16.737 -22.613  0.00  0.00    +0.001 C 
ATOM     36  C   UNL     1      35.075 -17.197 -21.330  0.00  0.00    -0.003 C 
ATOM     37  C   UNL     1      34.661 -17.643 -23.668  0.00  0.00    -0.003 C 
ATOM     38  C   UNL     1      35.245 -18.563 -21.099  0.00  0.00    -0.000 C 
ATOM     39  C   UNL     1      34.829 -19.008 -23.437  0.00  0.00    -0.000 C 
ATOM     40  C   UNL     1      35.121 -19.468 -22.152  0.00  0.00    -0.000 C 
ENDBRANCH  34  35
ENDBRANCH  31  34
ENDBRANCH  30  31
ENDBRANCH   1  30
TORSDOF 13
ENDMDL
MODEL 5
REMARK VINA RESULT:      -8.7     10.463     14.831
REMARK  Name = 11840934
REMARK  13 active torsions:
REMARK  status: ('A' for Active; 'I' for Inactive)
REMARK    1  A    between atoms: C_1  and  C_4
REMARK    2  A    between atoms: C_1  and  N_14
REMARK    3  A    between atoms: C_1  and  C_30
REMARK    4  A    between atoms: N_3  and  C_6
REMARK    5  A    between atoms: C_6  and  C_9
REMARK    6  A    between atoms: C_9  and  N_10
REMARK    7  A    between atoms: N_14  and  C_17
REMARK    8  A    between atoms: C_17  and  C_18
REMARK    9  A    between atoms: C_17  and  C_29
REMARK   10  A    between atoms: C_23  and  O_24
REMARK   11  A    between atoms: C_30  and  S_31
REMARK   12  A    between atoms: S_31  and  C_34
REMARK   13  A    between atoms: C_34  and  C_35
REMARK                            x       y       z     vdW  Elec       q    Type
REMARK                         _______ _______ _______ _____ _____    ______ ____
ROOT
ATOM      1  C   UNL     1      32.628 -11.914 -22.550  0.00  0.00    +0.042 C 
ENDROOT
BRANCH   1   4
ATOM      2  O   UNL     1      32.734 -10.224 -24.285  0.00  0.00    -0.277 OA
ATOM      3  N   UNL     1      33.582 -12.335 -24.737  0.00  0.00    -0.311 N 
ATOM      4  C   UNL     1      32.982 -11.376 -23.932  0.00  0.00    +0.204 C 
ATOM      5  H   UNL     1      33.741 -13.233 -24.366  0.00  0.00    +0.149 HD
BRANCH   3   6
ATOM      6  C   UNL     1      33.978 -12.066 -26.090  0.00  0.00    +0.037 C 
ATOM      7  C   UNL     1      32.978 -12.207 -27.200  0.00  0.00    +0.017 C 
ATOM      8  C   UNL     1      34.097 -13.199 -27.068  0.00  0.00    +0.017 C 
BRANCH   6   9
ATOM      9  C   UNL     1      34.972 -10.960 -26.220  0.00  0.00    -0.068 C 
BRANCH   9  10
ATOM     10  N   UNL     1      35.489 -10.556 -24.918  0.00  0.00    +0.382 N 
ATOM     11  H   UNL     1      36.232  -9.870 -25.045  0.00  0.00    -0.089 HD
ATOM     12  H   UNL     1      35.860 -11.373 -24.431  0.00  0.00    -0.089 HD
ATOM     13  H   UNL     1      34.737 -10.144 -24.366  0.00  0.00    -0.089 HD
ENDBRANCH   9  10
ENDBRANCH   6   9
ENDBRANCH   3   6
ENDBRANCH   1   4
BRANCH   1  14
ATOM     14  N   UNL     1      31.605 -11.012 -22.020  0.00  0.00    +0.401 N 
ATOM     15  H   UNL     1      30.826 -11.564 -21.660  0.00  0.00    -0.083 HD
ATOM     16  H   UNL     1      31.289 -10.398 -22.770  0.00  0.00    -0.083 HD
BRANCH  14  17
ATOM     17  C   UNL     1      32.148 -10.196 -20.945  0.00  0.00    +0.059 C 
BRANCH  17  18
ATOM     18  C   UNL     1      31.983  -8.716 -21.228  0.00  0.00    -0.034 C 
ATOM     19  C   UNL     1      31.334  -8.295 -22.390  0.00  0.00    -0.003 C 
ATOM     20  C   UNL     1      32.480  -7.774 -20.328  0.00  0.00    -0.003 C 
ATOM     21  C   UNL     1      31.184  -6.934 -22.651  0.00  0.00    +0.036 C 
ATOM     22  C   UNL     1      32.330  -6.412 -20.589  0.00  0.00    +0.036 C 
ATOM     23  C   UNL     1      31.682  -5.992 -21.750  0.00  0.00    +0.134 C 
BRANCH  23  24
ATOM     24  O   UNL     1      31.534  -4.663 -22.004  0.00  0.00    -0.506 OA
ATOM     25  H   UNL     1      32.260  -4.081 -21.893  0.00  0.00    +0.292 HD
ENDBRANCH  23  24
ENDBRANCH  17  18
BRANCH  17  29
ATOM     26  F   UNL     1      31.296 -11.937 -19.580  0.00  0.00    -0.172 F 
ATOM     27  F   UNL     1      32.393 -10.340 -18.586  0.00  0.00    -0.172 F 
ATOM     28  F   UNL     1      30.379  -9.973 -19.347  0.00  0.00    -0.172 F 
ATOM     29  C   UNL     1      31.543 -10.606 -19.605  0.00  0.00    +0.384 C 
ENDBRANCH  17  29
ENDBRANCH  14  17
ENDBRANCH   1  14
BRANCH   1  30
ATOM     30  C   UNL     1      32.066 -13.330 -22.609  0.00  0.00    +0.139 C 
BRANCH  30  31
ATOM     31  S   UNL     1      32.965 -14.438 -21.564  0.00  0.00    -0.007 S 
ATOM     32  O   UNL     1      33.137 -13.798 -20.272  0.00  0.00    -0.173 OA
ATOM     33  O   UNL     1      32.354 -15.751 -21.665  0.00  0.00    -0.173 OA
BRANCH  31  34
ATOM     34  C   UNL     1      34.562 -14.525 -22.340  0.00  0.00    +0.177 C 
BRANCH  34  35
ATOM     35  C   UNL     1      34.631 -15.814 -23.099  0.00  0.00    +0.001 C 
ATOM     36  C   UNL     1      34.173 -15.873 -24.415  0.00  0.00    -0.003 C 
ATOM     37  C   UNL     1      35.153 -16.955 -22.490  0.00  0.00    -0.003 C 
ATOM     38  C   UNL     1      34.236 -17.073 -25.123  0.00  0.00    -0.000 C 
ATOM     39  C   UNL     1      35.217 -18.155 -23.198  0.00  0.00    -0.000 C 
ATOM     40  C   UNL     1      34.758 -18.214 -24.515  0.00  0.00    -0.000 C 
ENDBRANCH  34  35
ENDBRANCH  31  34
ENDBRANCH  30  31
ENDBRANCH   1  30
TORSDOF 13
ENDMDL
MODEL 6
REMARK VINA RESULT:      -8.5      2.244      5.834
REMARK  Name = 11840934
REMARK  13 active torsions:
REMARK  status: ('A' for Active; 'I' for Inactive)
REMARK    1  A    between atoms: C_1  and  C_4
REMARK    2  A    between atoms: C_1  and  N_14
REMARK    3  A    between atoms: C_1  and  C_30
REMARK    4  A    between atoms: N_3  and  C_6
REMARK    5  A    between atoms: C_6  and  C_9
REMARK    6  A    between atoms: C_9  and  N_10
REMARK    7  A    between atoms: N_14  and  C_17
REMARK    8  A    between atoms: C_17  and  C_18
REMARK    9  A    between atoms: C_17  and  C_29
REMARK   10  A    between atoms: C_23  and  O_24
REMARK   11  A    between atoms: C_30  and  S_31
REMARK   12  A    between atoms: S_31  and  C_34
REMARK   13  A    between atoms: C_34  and  C_35
REMARK                            x       y       z     vdW  Elec       q    Type
REMARK                         _______ _______ _______ _____ _____    ______ ____
ROOT
ATOM      1  C   UNL     1      35.012 -24.584 -15.783  0.00  0.00    +0.042 C 
ENDROOT
BRANCH   1   4
ATOM      2  O   UNL     1      36.180 -26.606 -15.130  0.00  0.00    -0.277 OA
ATOM      3  N   UNL     1      36.949 -24.571 -14.327  0.00  0.00    -0.311 N 
ATOM      4  C   UNL     1      36.098 -25.381 -15.067  0.00  0.00    +0.204 C 
ATOM      5  H   UNL     1      36.804 -23.597 -14.338  0.00  0.00    +0.149 HD
BRANCH   3   6
ATOM      6  C   UNL     1      38.031 -25.100 -13.546  0.00  0.00    +0.037 C 
ATOM      7  C   UNL     1      37.735 -25.895 -12.308  0.00  0.00    +0.017 C 
ATOM      8  C   UNL     1      38.323 -24.519 -12.193  0.00  0.00    +0.017 C 
BRANCH   6   9
ATOM      9  C   UNL     1      39.204 -25.536 -14.359  0.00  0.00    -0.068 C 
BRANCH   9  10
ATOM     10  N   UNL     1      39.373 -24.698 -15.539  0.00  0.00    +0.382 N 
ATOM     11  H   UNL     1      40.084 -25.105 -16.147  0.00  0.00    -0.089 HD
ATOM     12  H   UNL     1      39.666 -23.763 -15.253  0.00  0.00    -0.089 HD
ATOM     13  H   UNL     1      38.489 -24.638 -16.044  0.00  0.00    -0.089 HD
ENDBRANCH   9  10
ENDBRANCH   6   9
ENDBRANCH   3   6
ENDBRANCH   1   4
BRANCH   1  14
ATOM     14  N   UNL     1      33.744 -25.027 -15.205  0.00  0.00    +0.401 N 
ATOM     15  H   UNL     1      33.933 -25.671 -14.436  0.00  0.00    -0.083 HD
ATOM     16  H   UNL     1      33.197 -25.491 -15.930  0.00  0.00    -0.083 HD
BRANCH  14  17
ATOM     17  C   UNL     1      32.985 -23.893 -14.701  0.00  0.00    +0.059 C 
BRANCH  17  18
ATOM     18  C   UNL     1      31.592 -23.841 -15.300  0.00  0.00    -0.034 C 
ATOM     19  C   UNL     1      30.664 -24.836 -14.994  0.00  0.00    -0.003 C 
ATOM     20  C   UNL     1      31.241 -22.799 -16.157  0.00  0.00    -0.003 C 
ATOM     21  C   UNL     1      29.383 -24.788 -15.545  0.00  0.00    +0.036 C 
ATOM     22  C   UNL     1      29.961 -22.751 -16.710  0.00  0.00    +0.036 C 
ATOM     23  C   UNL     1      29.032 -23.746 -16.403  0.00  0.00    +0.134 C 
BRANCH  23  24
ATOM     24  O   UNL     1      27.782 -23.699 -16.941  0.00  0.00    -0.506 OA
ATOM     25  H   UNL     1      27.433 -24.449 -17.380  0.00  0.00    +0.292 HD
ENDBRANCH  23  24
ENDBRANCH  17  18
BRANCH  17  29
ATOM     26  F   UNL     1      32.079 -22.987 -12.708  0.00  0.00    -0.172 F 
ATOM     27  F   UNL     1      32.583 -25.105 -12.698  0.00  0.00    -0.172 F 
ATOM     28  F   UNL     1      34.169 -23.605 -12.641  0.00  0.00    -0.172 F 
ATOM     29  C   UNL     1      32.965 -23.898 -13.176  0.00  0.00    +0.384 C 
ENDBRANCH  17  29
ENDBRANCH  14  17
ENDBRANCH   1  14
BRANCH   1  30
ATOM     30  C   UNL     1      35.163 -23.082 -15.570  0.00  0.00    +0.139 C 
BRANCH  30  31
ATOM     31  S   UNL     1      36.090 -22.324 -16.871  0.00  0.00    -0.007 S 
ATOM     32  O   UNL     1      36.025 -20.884 -16.691  0.00  0.00    -0.173 OA
ATOM     33  O   UNL     1      37.370 -23.001 -16.969  0.00  0.00    -0.173 OA
BRANCH  31  34
ATOM     34  C   UNL     1      35.155 -22.727 -18.328  0.00  0.00    +0.177 C 
BRANCH  34  35
ATOM     35  C   UNL     1      35.245 -21.563 -19.265  0.00  0.00    +0.001 C 
ATOM     36  C   UNL     1      36.492 -21.054 -19.626  0.00  0.00    -0.003 C 
ATOM     37  C   UNL     1      34.081 -20.988 -19.777  0.00  0.00    -0.003 C 
ATOM     38  C   UNL     1      36.576 -19.968 -20.499  0.00  0.00    -0.000 C 
ATOM     39  C   UNL     1      34.166 -19.904 -20.650  0.00  0.00    -0.000 C 
ATOM     40  C   UNL     1      35.413 -19.394 -21.011  0.00  0.00    -0.000 C 
ENDBRANCH  34  35
ENDBRANCH  31  34
ENDBRANCH  30  31
ENDBRANCH   1  30
TORSDOF 13
ENDMDL
MODEL 7
REMARK VINA RESULT:      -8.4      1.972      5.612
REMARK  Name = 11840934
REMARK  13 active torsions:
REMARK  status: ('A' for Active; 'I' for Inactive)
REMARK    1  A    between atoms: C_1  and  C_4
REMARK    2  A    between atoms: C_1  and  N_14
REMARK    3  A    between atoms: C_1  and  C_30
REMARK    4  A    between atoms: N_3  and  C_6
REMARK    5  A    between atoms: C_6  and  C_9
REMARK    6  A    between atoms: C_9  and  N_10
REMARK    7  A    between atoms: N_14  and  C_17
REMARK    8  A    between atoms: C_17  and  C_18
REMARK    9  A    between atoms: C_17  and  C_29
REMARK   10  A    between atoms: C_23  and  O_24
REMARK   11  A    between atoms: C_30  and  S_31
REMARK   12  A    between atoms: S_31  and  C_34
REMARK   13  A    between atoms: C_34  and  C_35
REMARK                            x       y       z     vdW  Elec       q    Type
REMARK                         _______ _______ _______ _____ _____    ______ ____
ROOT
ATOM      1  C   UNL     1      33.089 -23.437 -15.839  0.00  0.00    +0.042 C 
ENDROOT
BRANCH   1   4
ATOM      2  O   UNL     1      34.963 -24.964 -16.020  0.00  0.00    -0.277 OA
ATOM      3  N   UNL     1      35.284 -22.935 -14.944  0.00  0.00    -0.311 N 
ATOM      4  C   UNL     1      34.534 -23.879 -15.633  0.00  0.00    +0.204 C 
ATOM      5  H   UNL     1      34.853 -22.092 -14.674  0.00  0.00    +0.149 HD
BRANCH   3   6
ATOM      6  C   UNL     1      36.664 -23.144 -14.609  0.00  0.00    +0.037 C 
ATOM      7  C   UNL     1      37.059 -24.336 -13.788  0.00  0.00    +0.017 C 
ATOM      8  C   UNL     1      37.120 -22.961 -13.191  0.00  0.00    +0.017 C 
BRANCH   6   9
ATOM      9  C   UNL     1      37.615 -22.722 -15.680  0.00  0.00    -0.068 C 
BRANCH   9  10
ATOM     10  N   UNL     1      37.212 -21.456 -16.279  0.00  0.00    +0.382 N 
ATOM     11  H   UNL     1      36.195 -21.417 -16.340  0.00  0.00    -0.089 HD
ATOM     12  H   UNL     1      37.611 -21.381 -17.216  0.00  0.00    -0.089 HD
ATOM     13  H   UNL     1      37.547 -20.684 -15.703  0.00  0.00    -0.089 HD
ENDBRANCH   9  10
ENDBRANCH   6   9
ENDBRANCH   3   6
ENDBRANCH   1   4
BRANCH   1  14
ATOM     14  N   UNL     1      32.674 -22.826 -14.576  0.00  0.00    +0.401 N 
ATOM     15  H   UNL     1      32.470 -21.839 -14.733  0.00  0.00    -0.083 HD
ATOM     16  H   UNL     1      33.428 -22.929 -13.898  0.00  0.00    -0.083 HD
BRANCH  14  17
ATOM     17  C   UNL     1      31.484 -23.482 -14.055  0.00  0.00    +0.059 C 
BRANCH  17  18
ATOM     18  C   UNL     1      30.351 -23.469 -15.064  0.00  0.00    -0.034 C 
ATOM     19  C   UNL     1      29.994 -24.643 -15.726  0.00  0.00    -0.003 C 
ATOM     20  C   UNL     1      29.668 -22.283 -15.328  0.00  0.00    -0.003 C 
ATOM     21  C   UNL     1      28.952 -24.631 -16.654  0.00  0.00    +0.036 C 
ATOM     22  C   UNL     1      28.626 -22.270 -16.257  0.00  0.00    +0.036 C 
ATOM     23  C   UNL     1      28.268 -23.444 -16.919  0.00  0.00    +0.134 C 
BRANCH  23  24
ATOM     24  O   UNL     1      27.251 -23.433 -17.824  0.00  0.00    -0.506 OA
ATOM     25  H   UNL     1      27.396 -23.745 -18.695  0.00  0.00    +0.292 HD
ENDBRANCH  23  24
ENDBRANCH  17  18
BRANCH  17  29
ATOM     26  F   UNL     1      32.993 -24.894 -12.895  0.00  0.00    -0.172 F 
ATOM     27  F   UNL     1      30.871 -25.348 -12.720  0.00  0.00    -0.172 F 
ATOM     28  F   UNL     1      31.928 -25.774 -14.582  0.00  0.00    -0.172 F 
ATOM     29  C   UNL     1      31.818 -24.889 -13.570  0.00  0.00    +0.384 C 
ENDBRANCH  17  29
ENDBRANCH  14  17
ENDBRANCH   1  14
BRANCH   1  30
ATOM     30  C   UNL     1      32.953 -22.412 -16.960  0.00  0.00    +0.139 C 
BRANCH  30  31
ATOM     31  S   UNL     1      33.938 -22.841 -18.365  0.00  0.00    -0.007 S 
ATOM     32  O   UNL     1      35.303 -22.421 -18.105  0.00  0.00    -0.173 OA
ATOM     33  O   UNL     1      33.641 -24.217 -18.722  0.00  0.00    -0.173 OA
BRANCH  31  34
ATOM     34  C   UNL     1      33.289 -21.800 -19.652  0.00  0.00    +0.177 C 
BRANCH  34  35
ATOM     35  C   UNL     1      34.383 -20.875 -20.085  0.00  0.00    +0.001 C 
ATOM     36  C   UNL     1      34.070 -19.674 -20.721  0.00  0.00    -0.003 C 
ATOM     37  C   UNL     1      35.716 -21.214 -19.853  0.00  0.00    -0.003 C 
ATOM     38  C   UNL     1      35.089 -18.811 -21.125  0.00  0.00    -0.000 C 
ATOM     39  C   UNL     1      36.735 -20.351 -20.256  0.00  0.00    -0.000 C 
ATOM     40  C   UNL     1      36.421 -19.150 -20.893  0.00  0.00    -0.000 C 
ENDBRANCH  34  35
ENDBRANCH  31  34
ENDBRANCH  30  31
ENDBRANCH   1  30
TORSDOF 13
ENDMDL
MODEL 8
REMARK VINA RESULT:      -8.4      2.371      5.868
REMARK  Name = 11840934
REMARK  13 active torsions:
REMARK  status: ('A' for Active; 'I' for Inactive)
REMARK    1  A    between atoms: C_1  and  C_4
REMARK    2  A    between atoms: C_1  and  N_14
REMARK    3  A    between atoms: C_1  and  C_30
REMARK    4  A    between atoms: N_3  and  C_6
REMARK    5  A    between atoms: C_6  and  C_9
REMARK    6  A    between atoms: C_9  and  N_10
REMARK    7  A    between atoms: N_14  and  C_17
REMARK    8  A    between atoms: C_17  and  C_18
REMARK    9  A    between atoms: C_17  and  C_29
REMARK   10  A    between atoms: C_23  and  O_24
REMARK   11  A    between atoms: C_30  and  S_31
REMARK   12  A    between atoms: S_31  and  C_34
REMARK   13  A    between atoms: C_34  and  C_35
REMARK                            x       y       z     vdW  Elec       q    Type
REMARK                         _______ _______ _______ _____ _____    ______ ____
ROOT
ATOM      1  C   UNL     1      36.307 -23.747 -15.983  0.00  0.00    +0.042 C 
ENDROOT
BRANCH   1   4
ATOM      2  O   UNL     1      37.635 -22.936 -14.124  0.00  0.00    -0.277 OA
ATOM      3  N   UNL     1      37.950 -25.118 -14.845  0.00  0.00    -0.311 N 
ATOM      4  C   UNL     1      37.351 -23.865 -14.878  0.00  0.00    +0.204 C 
ATOM      5  H   UNL     1      37.654 -25.800 -15.490  0.00  0.00    +0.149 HD
BRANCH   3   6
ATOM      6  C   UNL     1      38.982 -25.453 -13.907  0.00  0.00    +0.037 C 
ATOM      7  C   UNL     1      40.339 -24.826 -14.038  0.00  0.00    +0.017 C 
ATOM      8  C   UNL     1      40.152 -26.281 -14.354  0.00  0.00    +0.017 C 
BRANCH   6   9
ATOM      9  C   UNL     1      38.484 -25.689 -12.520  0.00  0.00    -0.068 C 
BRANCH   9  10
ATOM     10  N   UNL     1      38.403 -24.444 -11.766  0.00  0.00    +0.382 N 
ATOM     11  H   UNL     1      38.203 -24.652 -10.788  0.00  0.00    -0.089 HD
ATOM     12  H   UNL     1      37.656 -23.863 -12.149  0.00  0.00    -0.089 HD
ATOM     13  H   UNL     1      39.290 -23.947 -11.833  0.00  0.00    -0.089 HD
ENDBRANCH   9  10
ENDBRANCH   6   9
ENDBRANCH   3   6
ENDBRANCH   1   4
BRANCH   1  14
ATOM     14  N   UNL     1      35.126 -24.459 -15.495  0.00  0.00    +0.401 N 
ATOM     15  H   UNL     1      35.423 -25.289 -14.982  0.00  0.00    -0.083 HD
ATOM     16  H   UNL     1      34.549 -24.723 -16.293  0.00  0.00    -0.083 HD
BRANCH  14  17
ATOM     17  C   UNL     1      34.342 -23.609 -14.613  0.00  0.00    +0.059 C 
BRANCH  17  18
ATOM     18  C   UNL     1      32.983 -23.289 -15.206  0.00  0.00    -0.034 C 
ATOM     19  C   UNL     1      32.791 -23.355 -16.586  0.00  0.00    -0.003 C 
ATOM     20  C   UNL     1      31.926 -22.928 -14.371  0.00  0.00    -0.003 C 
ATOM     21  C   UNL     1      31.542 -23.059 -17.131  0.00  0.00    +0.036 C 
ATOM     22  C   UNL     1      30.676 -22.632 -14.916  0.00  0.00    +0.036 C 
ATOM     23  C   UNL     1      30.484 -22.698 -16.296  0.00  0.00    +0.134 C 
BRANCH  23  24
ATOM     24  O   UNL     1      29.265 -22.410 -16.828  0.00  0.00    -0.506 OA
ATOM     25  H   UNL     1      28.868 -23.002 -17.436  0.00  0.00    +0.292 HD
ENDBRANCH  23  24
ENDBRANCH  17  18
BRANCH  17  29
ATOM     26  F   UNL     1      35.293 -25.050 -12.989  0.00  0.00    -0.172 F 
ATOM     27  F   UNL     1      34.259 -23.277 -12.262  0.00  0.00    -0.172 F 
ATOM     28  F   UNL     1      33.115 -24.957 -13.060  0.00  0.00    -0.172 F 
ATOM     29  C   UNL     1      34.241 -24.230 -13.222  0.00  0.00    +0.384 C 
ENDBRANCH  17  29
ENDBRANCH  14  17
ENDBRANCH   1  14
BRANCH   1  30
ATOM     30  C   UNL     1      35.934 -22.297 -16.272  0.00  0.00    +0.139 C 
BRANCH  30  31
ATOM     31  S   UNL     1      36.477 -21.786 -17.875  0.00  0.00    -0.007 S 
ATOM     32  O   UNL     1      36.479 -20.334 -17.909  0.00  0.00    -0.173 OA
ATOM     33  O   UNL     1      37.675 -22.536 -18.207  0.00  0.00    -0.173 OA
BRANCH  31  34
ATOM     34  C   UNL     1      35.175 -22.349 -18.946  0.00  0.00    +0.177 C 
BRANCH  34  35
ATOM     35  C   UNL     1      34.733 -21.185 -19.778  0.00  0.00    +0.001 C 
ATOM     36  C   UNL     1      33.389 -20.814 -19.800  0.00  0.00    -0.003 C 
ATOM     37  C   UNL     1      35.666 -20.473 -20.532  0.00  0.00    -0.003 C 
ATOM     38  C   UNL     1      32.977 -19.730 -20.576  0.00  0.00    -0.000 C 
ATOM     39  C   UNL     1      35.254 -19.389 -21.307  0.00  0.00    -0.000 C 
ATOM     40  C   UNL     1      33.909 -19.017 -21.329  0.00  0.00    -0.000 C 
ENDBRANCH  34  35
ENDBRANCH  31  34
ENDBRANCH  30  31
ENDBRANCH   1  30
TORSDOF 13
ENDMDL
MODEL 9
REMARK VINA RESULT:      -8.2     13.242     16.807
REMARK  Name = 11840934
REMARK  13 active torsions:
REMARK  status: ('A' for Active; 'I' for Inactive)
REMARK    1  A    between atoms: C_1  and  C_4
REMARK    2  A    between atoms: C_1  and  N_14
REMARK    3  A    between atoms: C_1  and  C_30
REMARK    4  A    between atoms: N_3  and  C_6
REMARK    5  A    between atoms: C_6  and  C_9
REMARK    6  A    between atoms: C_9  and  N_10
REMARK    7  A    between atoms: N_14  and  C_17
REMARK    8  A    between atoms: C_17  and  C_18
REMARK    9  A    between atoms: C_17  and  C_29
REMARK   10  A    between atoms: C_23  and  O_24
REMARK   11  A    between atoms: C_30  and  S_31
REMARK   12  A    between atoms: S_31  and  C_34
REMARK   13  A    between atoms: C_34  and  C_35
REMARK                            x       y       z     vdW  Elec       q    Type
REMARK                         _______ _______ _______ _____ _____    ______ ____
ROOT
ATOM      1  C   UNL     1      32.164  -8.866 -23.109  0.00  0.00    +0.042 C 
ENDROOT
BRANCH   1   4
ATOM      2  O   UNL     1      30.552 -10.585 -22.543  0.00  0.00    -0.277 OA
ATOM      3  N   UNL     1      32.187 -10.042 -20.991  0.00  0.00    -0.311 N 
ATOM      4  C   UNL     1      31.537  -9.928 -22.213  0.00  0.00    +0.204 C 
ATOM      5  H   UNL     1      32.971  -9.471 -20.817  0.00  0.00    +0.149 HD
BRANCH   3   6
ATOM      6  C   UNL     1      31.758 -10.957 -19.972  0.00  0.00    +0.037 C 
ATOM      7  C   UNL     1      30.415 -10.778 -19.328  0.00  0.00    +0.017 C 
ATOM      8  C   UNL     1      31.666 -10.493 -18.548  0.00  0.00    +0.017 C 
BRANCH   6   9
ATOM      9  C   UNL     1      32.213 -12.361 -20.193  0.00  0.00    -0.068 C 
BRANCH   9  10
ATOM     10  N   UNL     1      31.557 -12.956 -21.352  0.00  0.00    +0.382 N 
ATOM     11  H   UNL     1      32.075 -12.715 -22.196  0.00  0.00    -0.089 HD
ATOM     12  H   UNL     1      30.604 -12.598 -21.423  0.00  0.00    -0.089 HD
ATOM     13  H   UNL     1      31.533 -13.970 -21.246  0.00  0.00    -0.089 HD
ENDBRANCH   9  10
ENDBRANCH   6   9
ENDBRANCH   3   6
ENDBRANCH   1   4
BRANCH   1  14
ATOM     14  N   UNL     1      32.564  -9.560 -24.333  0.00  0.00    +0.401 N 
ATOM     15  H   UNL     1      32.754  -8.872 -25.062  0.00  0.00    -0.083 HD
ATOM     16  H   UNL     1      31.807 -10.180 -24.620  0.00  0.00    -0.083 HD
BRANCH  14  17
ATOM     17  C   UNL     1      33.759 -10.356 -24.105  0.00  0.00    +0.059 C 
BRANCH  17  18
ATOM     18  C   UNL     1      33.660 -11.717 -24.767  0.00  0.00    -0.034 C 
ATOM     19  C   UNL     1      33.645 -12.874 -23.988  0.00  0.00    -0.003 C 
ATOM     20  C   UNL     1      33.586 -11.812 -26.157  0.00  0.00    -0.003 C 
ATOM     21  C   UNL     1      33.555 -14.125 -24.597  0.00  0.00    +0.036 C 
ATOM     22  C   UNL     1      33.497 -13.063 -26.767  0.00  0.00    +0.036 C 
ATOM     23  C   UNL     1      33.481 -14.219 -25.987  0.00  0.00    +0.134 C 
BRANCH  23  24
ATOM     24  O   UNL     1      33.393 -15.440 -26.583  0.00  0.00    -0.506 OA
ATOM     25  H   UNL     1      33.903 -16.157 -26.260  0.00  0.00    +0.292 HD
ENDBRANCH  23  24
ENDBRANCH  17  18
BRANCH  17  29
ATOM     26  F   UNL     1      34.789  -8.946 -25.707  0.00  0.00    -0.172 F 
ATOM     27  F   UNL     1      35.331  -8.643 -23.621  0.00  0.00    -0.172 F 
ATOM     28  F   UNL     1      36.077 -10.388 -24.700  0.00  0.00    -0.172 F 
ATOM     29  C   UNL     1      35.005  -9.587 -24.534  0.00  0.00    +0.384 C 
ENDBRANCH  17  29
ENDBRANCH  14  17
ENDBRANCH   1  14
BRANCH   1  30
ATOM     30  C   UNL     1      31.180  -7.755 -23.462  0.00  0.00    +0.139 C 
BRANCH  30  31
ATOM     31  S   UNL     1      31.988  -6.191 -23.633  0.00  0.00    -0.007 S 
ATOM     32  O   UNL     1      31.957  -5.525 -22.343  0.00  0.00    -0.173 OA
ATOM     33  O   UNL     1      33.246  -6.406 -24.327  0.00  0.00    -0.173 OA
BRANCH  31  34
ATOM     34  C   UNL     1      30.915  -5.294 -24.729  0.00  0.00    +0.177 C 
BRANCH  34  35
ATOM     35  C   UNL     1      31.653  -4.079 -25.197  0.00  0.00    +0.001 C 
ATOM     36  C   UNL     1      31.648  -2.919 -24.423  0.00  0.00    -0.003 C 
ATOM     37  C   UNL     1      32.344  -4.106 -26.409  0.00  0.00    -0.003 C 
ATOM     38  C   UNL     1      32.335  -1.786 -24.859  0.00  0.00    -0.000 C 
ATOM     39  C   UNL     1      33.031  -2.973 -26.844  0.00  0.00    -0.000 C 
ATOM     40  C   UNL     1      33.026  -1.813 -26.070  0.00  0.00    -0.000 C 
ENDBRANCH  34  35
ENDBRANCH  31  34
ENDBRANCH  30  31
ENDBRANCH   1  30
TORSDOF 13
ENDMDL
