MODEL 1
REMARK VINA RESULT:     -10.4      0.000      0.000
REMARK  Name = 5287652
REMARK  2 active torsions:
REMARK  status: ('A' for Active; 'I' for Inactive)
REMARK    1  A    between atoms: C_18  and  O_22
REMARK    2  A    between atoms: C_19  and  O_24
REMARK                            x       y       z     vdW  Elec       q    Type
REMARK                         _______ _______ _______ _____ _____    ______ ____
ROOT
ATOM      1  O   UNL     1      35.859 -19.130 -22.069  0.00  0.00    -0.435 OA
ATOM      2  O   UNL     1      33.562 -19.833 -21.875  0.00  0.00    -0.435 OA
ATOM      3  N   UNL     1      33.649 -22.894 -17.258  0.00  0.00    -0.312 N 
ATOM      4  C   UNL     1      35.980 -22.431 -17.088  0.00  0.00    +0.014 C 
ATOM      5  C   UNL     1      37.019 -21.651 -17.869  0.00  0.00    +0.001 C 
ATOM      6  C   UNL     1      34.746 -22.313 -17.723  0.00  0.00    +0.048 C 
ATOM      7  C   UNL     1      36.195 -21.086 -19.018  0.00  0.00    +0.004 C 
ATOM      8  C   UNL     1      34.834 -21.502 -18.901  0.00  0.00    +0.017 C 
ATOM      9  C   UNL     1      36.087 -23.183 -15.924  0.00  0.00    +0.006 C 
ATOM     10  C   UNL     1      34.907 -23.800 -15.438  0.00  0.00    +0.018 C 
ATOM     11  C   UNL     1      36.626 -20.281 -20.060  0.00  0.00    +0.040 C 
ATOM     12  C   UNL     1      33.880 -21.120 -19.828  0.00  0.00    +0.041 C 
ATOM     13  C   UNL     1      35.655 -19.913 -20.973  0.00  0.00    +0.176 C 
ATOM     14  C   UNL     1      34.332 -20.317 -20.860  0.00  0.00    +0.176 C 
ATOM     15  C   UNL     1      33.695 -23.633 -16.137  0.00  0.00    +0.062 C 
ATOM     16  C   UNL     1      37.296 -23.353 -15.224  0.00  0.00    +0.040 C 
ATOM     17  C   UNL     1      34.971 -24.568 -14.266  0.00  0.00    +0.041 C 
ATOM     18  C   UNL     1      37.337 -24.121 -14.061  0.00  0.00    +0.172 C 
ATOM     19  C   UNL     1      36.177 -24.727 -13.583  0.00  0.00    +0.172 C 
ATOM     20  C   UNL     1      34.534 -19.084 -22.632  0.00  0.00    +0.429 C 
ATOM     21  H   UNL     1      32.795 -22.784 -17.738  0.00  0.00    +0.152 HD
ENDROOT
BRANCH  18  22
ATOM     22  O   UNL     1      38.519 -24.271 -13.401  0.00  0.00    -0.468 OA
ATOM     23  C   UNL     1      39.378 -25.321 -13.840  0.00  0.00    +0.253 C 
ENDBRANCH  18  22
BRANCH  19  24
ATOM     24  O   UNL     1      36.210 -25.480 -12.448  0.00  0.00    -0.468 OA
ATOM     25  C   UNL     1      35.794 -24.848 -11.239  0.00  0.00    +0.253 C 
ENDBRANCH  19  24
TORSDOF 2
ENDMDL
MODEL 2
REMARK VINA RESULT:      -9.9      3.788      5.617
REMARK  Name = 5287652
REMARK  2 active torsions:
REMARK  status: ('A' for Active; 'I' for Inactive)
REMARK    1  A    between atoms: C_18  and  O_22
REMARK    2  A    between atoms: C_19  and  O_24
REMARK                            x       y       z     vdW  Elec       q    Type
REMARK                         _______ _______ _______ _____ _____    ______ ____
ROOT
ATOM      1  O   UNL     1      27.561 -22.786 -15.375  0.00  0.00    -0.435 OA
ATOM      2  O   UNL     1      28.500 -22.434 -17.566  0.00  0.00    -0.435 OA
ATOM      3  N   UNL     1      33.918 -23.151 -16.660  0.00  0.00    -0.312 N 
ATOM      4  C   UNL     1      33.402 -23.559 -14.369  0.00  0.00    +0.014 C 
ATOM      5  C   UNL     1      32.159 -23.612 -13.502  0.00  0.00    +0.001 C 
ATOM      6  C   UNL     1      33.033 -23.260 -15.679  0.00  0.00    +0.048 C 
ATOM      7  C   UNL     1      31.056 -23.304 -14.505  0.00  0.00    +0.004 C 
ATOM      8  C   UNL     1      31.615 -23.097 -15.803  0.00  0.00    +0.017 C 
ATOM      9  C   UNL     1      34.742 -23.753 -14.058  0.00  0.00    +0.006 C 
ATOM     10  C   UNL     1      35.679 -23.633 -15.115  0.00  0.00    +0.018 C 
ATOM     11  C   UNL     1      29.694 -23.217 -14.273  0.00  0.00    +0.040 C 
ATOM     12  C   UNL     1      30.815 -22.799 -16.893  0.00  0.00    +0.041 C 
ATOM     13  C   UNL     1      28.917 -22.918 -15.377  0.00  0.00    +0.176 C 
ATOM     14  C   UNL     1      29.458 -22.717 -16.639  0.00  0.00    +0.176 C 
ATOM     15  C   UNL     1      35.227 -23.328 -16.414  0.00  0.00    +0.062 C 
ATOM     16  C   UNL     1      35.196 -24.057 -12.761  0.00  0.00    +0.040 C 
ATOM     17  C   UNL     1      37.042 -23.821 -14.844  0.00  0.00    +0.041 C 
ATOM     18  C   UNL     1      36.556 -24.239 -12.514  0.00  0.00    +0.172 C 
ATOM     19  C   UNL     1      37.477 -24.121 -13.553  0.00  0.00    +0.172 C 
ATOM     20  C   UNL     1      27.306 -22.481 -16.759  0.00  0.00    +0.429 C 
ATOM     21  H   UNL     1      33.615 -22.938 -17.573  0.00  0.00    +0.152 HD
ENDROOT
BRANCH  18  22
ATOM     22  O   UNL     1      36.972 -24.533 -11.251  0.00  0.00    -0.468 OA
ATOM     23  C   UNL     1      36.050 -24.285 -10.191  0.00  0.00    +0.253 C 
ENDBRANCH  18  22
BRANCH  19  24
ATOM     24  O   UNL     1      38.807 -24.297 -13.319  0.00  0.00    -0.468 OA
ATOM     25  C   UNL     1      39.435 -25.412 -13.950  0.00  0.00    +0.253 C 
ENDBRANCH  19  24
TORSDOF 2
ENDMDL
MODEL 3
REMARK VINA RESULT:      -9.7      1.550      3.033
REMARK  Name = 5287652
REMARK  2 active torsions:
REMARK  status: ('A' for Active; 'I' for Inactive)
REMARK    1  A    between atoms: C_18  and  O_22
REMARK    2  A    between atoms: C_19  and  O_24
REMARK                            x       y       z     vdW  Elec       q    Type
REMARK                         _______ _______ _______ _____ _____    ______ ____
ROOT
ATOM      1  O   UNL     1      34.194 -18.953 -22.926  0.00  0.00    -0.435 OA
ATOM      2  O   UNL     1      36.537 -18.655 -22.446  0.00  0.00    -0.435 OA
ATOM      3  N   UNL     1      37.165 -21.566 -17.775  0.00  0.00    -0.312 N 
ATOM      4  C   UNL     1      34.844 -22.097 -17.885  0.00  0.00    +0.014 C 
ATOM      5  C   UNL     1      33.677 -21.796 -18.805  0.00  0.00    +0.001 C 
ATOM      6  C   UNL     1      35.988 -21.475 -18.378  0.00  0.00    +0.048 C 
ATOM      7  C   UNL     1      34.329 -20.927 -19.872  0.00  0.00    +0.004 C 
ATOM      8  C   UNL     1      35.717 -20.752 -19.586  0.00  0.00    +0.017 C 
ATOM      9  C   UNL     1      34.917 -22.846 -16.716  0.00  0.00    +0.006 C 
ATOM     10  C   UNL     1      36.180 -22.936 -16.079  0.00  0.00    +0.018 C 
ATOM     11  C   UNL     1      33.734 -20.353 -20.983  0.00  0.00    +0.040 C 
ATOM     12  C   UNL     1      36.534 -19.997 -20.409  0.00  0.00    +0.041 C 
ATOM     13  C   UNL     1      34.570 -19.603 -21.789  0.00  0.00    +0.176 C 
ATOM     14  C   UNL     1      35.919 -19.433 -21.513  0.00  0.00    +0.176 C 
ATOM     15  C   UNL     1      37.292 -22.277 -16.641  0.00  0.00    +0.062 C 
ATOM     16  C   UNL     1      33.808 -23.504 -16.153  0.00  0.00    +0.040 C 
ATOM     17  C   UNL     1      36.298 -23.682 -14.897  0.00  0.00    +0.041 C 
ATOM     18  C   UNL     1      33.947 -24.240 -14.977  0.00  0.00    +0.172 C 
ATOM     19  C   UNL     1      35.189 -24.329 -14.350  0.00  0.00    +0.172 C 
ATOM     20  C   UNL     1      35.441 -18.358 -23.335  0.00  0.00    +0.429 C 
ATOM     21  H   UNL     1      37.950 -21.111 -18.157  0.00  0.00    +0.152 HD
ENDROOT
BRANCH  18  22
ATOM     22  O   UNL     1      32.860 -24.869 -14.449  0.00  0.00    -0.468 OA
ATOM     23  C   UNL     1      31.861 -24.044 -13.852  0.00  0.00    +0.253 C 
ENDBRANCH  18  22
BRANCH  19  24
ATOM     24  O   UNL     1      35.332 -25.045 -13.201  0.00  0.00    -0.468 OA
ATOM     25  C   UNL     1      35.491 -24.306 -11.992  0.00  0.00    +0.253 C 
ENDBRANCH  19  24
TORSDOF 2
ENDMDL
MODEL 4
REMARK VINA RESULT:      -9.2      7.148     11.261
REMARK  Name = 5287652
REMARK  2 active torsions:
REMARK  status: ('A' for Active; 'I' for Inactive)
REMARK    1  A    between atoms: C_18  and  O_22
REMARK    2  A    between atoms: C_19  and  O_24
REMARK                            x       y       z     vdW  Elec       q    Type
REMARK                         _______ _______ _______ _____ _____    ______ ____
ROOT
ATOM      1  O   UNL     1      32.294  -7.993 -24.041  0.00  0.00    -0.435 OA
ATOM      2  O   UNL     1      31.324  -8.213 -21.846  0.00  0.00    -0.435 OA
ATOM      3  N   UNL     1      32.377 -13.511 -20.616  0.00  0.00    -0.312 N 
ATOM      4  C   UNL     1      33.439 -13.712 -22.739  0.00  0.00    +0.014 C 
ATOM      5  C   UNL     1      33.725 -12.817 -23.929  0.00  0.00    +0.001 C 
ATOM      6  C   UNL     1      32.757 -12.981 -21.770  0.00  0.00    +0.048 C 
ATOM      7  C   UNL     1      33.111 -11.495 -23.487  0.00  0.00    +0.004 C 
ATOM      8  C   UNL     1      32.538 -11.628 -22.187  0.00  0.00    +0.017 C 
ATOM      9  C   UNL     1      33.742 -15.049 -22.508  0.00  0.00    +0.006 C 
ATOM     10  C   UNL     1      33.329 -15.604 -21.271  0.00  0.00    +0.018 C 
ATOM     11  C   UNL     1      33.073 -10.299 -24.185  0.00  0.00    +0.040 C 
ATOM     12  C   UNL     1      31.915 -10.562 -21.561  0.00  0.00    +0.041 C 
ATOM     13  C   UNL     1      32.445  -9.251 -23.539  0.00  0.00    +0.176 C 
ATOM     14  C   UNL     1      31.887  -9.378 -22.275  0.00  0.00    +0.176 C 
ATOM     15  C   UNL     1      32.643 -14.799 -20.341  0.00  0.00    +0.062 C 
ATOM     16  C   UNL     1      34.426 -15.856 -23.436  0.00  0.00    +0.040 C 
ATOM     17  C   UNL     1      33.614 -16.950 -20.997  0.00  0.00    +0.041 C 
ATOM     18  C   UNL     1      34.699 -17.191 -23.144  0.00  0.00    +0.172 C 
ATOM     19  C   UNL     1      34.294 -17.738 -21.928  0.00  0.00    +0.172 C 
ATOM     20  C   UNL     1      31.586  -7.344 -22.966  0.00  0.00    +0.429 C 
ATOM     21  H   UNL     1      31.897 -12.958 -19.956  0.00  0.00    +0.152 HD
ENDROOT
BRANCH  18  22
ATOM     22  O   UNL     1      35.362 -17.953 -24.058  0.00  0.00    -0.468 OA
ATOM     23  C   UNL     1      34.593 -18.501 -25.126  0.00  0.00    +0.253 C 
ENDBRANCH  18  22
BRANCH  19  24
ATOM     24  O   UNL     1      34.556 -19.042 -21.636  0.00  0.00    -0.468 OA
ATOM     25  C   UNL     1      33.525 -19.780 -20.983  0.00  0.00    +0.253 C 
ENDBRANCH  19  24
TORSDOF 2
ENDMDL
MODEL 5
REMARK VINA RESULT:      -9.0      7.718     13.056
REMARK  Name = 5287652
REMARK  2 active torsions:
REMARK  status: ('A' for Active; 'I' for Inactive)
REMARK    1  A    between atoms: C_18  and  O_22
REMARK    2  A    between atoms: C_19  and  O_24
REMARK                            x       y       z     vdW  Elec       q    Type
REMARK                         _______ _______ _______ _____ _____    ______ ____
ROOT
ATOM      1  O   UNL     1      35.324 -18.376 -23.414  0.00  0.00    -0.435 OA
ATOM      2  O   UNL     1      34.152 -18.578 -21.318  0.00  0.00    -0.435 OA
ATOM      3  N   UNL     1      32.212 -13.447 -20.550  0.00  0.00    -0.312 N 
ATOM      4  C   UNL     1      33.246 -12.831 -22.606  0.00  0.00    +0.014 C 
ATOM      5  C   UNL     1      34.074 -13.508 -23.681  0.00  0.00    +0.001 C 
ATOM      6  C   UNL     1      32.932 -13.760 -21.617  0.00  0.00    +0.048 C 
ATOM      7  C   UNL     1      34.175 -14.933 -23.155  0.00  0.00    +0.004 C 
ATOM      8  C   UNL     1      33.480 -15.051 -21.914  0.00  0.00    +0.017 C 
ATOM      9  C   UNL     1      32.798 -11.521 -22.488  0.00  0.00    +0.006 C 
ATOM     10  C   UNL     1      32.029 -11.197 -21.341  0.00  0.00    +0.018 C 
ATOM     11  C   UNL     1      34.826 -16.010 -23.733  0.00  0.00    +0.040 C 
ATOM     12  C   UNL     1      33.424 -16.252 -21.229  0.00  0.00    +0.041 C 
ATOM     13  C   UNL     1      34.757 -17.198 -23.030  0.00  0.00    +0.176 C 
ATOM     14  C   UNL     1      34.081 -17.314 -21.824  0.00  0.00    +0.176 C 
ATOM     15  C   UNL     1      31.753 -12.194 -20.385  0.00  0.00    +0.062 C 
ATOM     16  C   UNL     1      33.072 -10.523 -23.442  0.00  0.00    +0.040 C 
ATOM     17  C   UNL     1      31.557  -9.886 -21.183  0.00  0.00    +0.041 C 
ATOM     18  C   UNL     1      32.593  -9.226 -23.264  0.00  0.00    +0.172 C 
ATOM     19  C   UNL     1      31.838  -8.908 -22.138  0.00  0.00    +0.172 C 
ATOM     20  C   UNL     1      34.937 -19.241 -22.330  0.00  0.00    +0.429 C 
ATOM     21  H   UNL     1      32.012 -14.135 -19.873  0.00  0.00    +0.152 HD
ENDROOT
BRANCH  18  22
ATOM     22  O   UNL     1      32.872  -8.276 -24.201  0.00  0.00    -0.468 OA
ATOM     23  C   UNL     1      34.103  -7.571 -24.061  0.00  0.00    +0.253 C 
ENDBRANCH  18  22
BRANCH  19  24
ATOM     24  O   UNL     1      31.367  -7.642 -21.957  0.00  0.00    -0.468 OA
ATOM     25  C   UNL     1      32.046  -6.829 -21.002  0.00  0.00    +0.253 C 
ENDBRANCH  19  24
TORSDOF 2
ENDMDL
MODEL 6
REMARK VINA RESULT:      -9.0      8.053     12.650
REMARK  Name = 5287652
REMARK  2 active torsions:
REMARK  status: ('A' for Active; 'I' for Inactive)
REMARK    1  A    between atoms: C_18  and  O_22
REMARK    2  A    between atoms: C_19  and  O_24
REMARK                            x       y       z     vdW  Elec       q    Type
REMARK                         _______ _______ _______ _____ _____    ______ ____
ROOT
ATOM      1  O   UNL     1      34.721 -19.183 -22.047  0.00  0.00    -0.435 OA
ATOM      2  O   UNL     1      35.358 -18.508 -24.271  0.00  0.00    -0.435 OA
ATOM      3  N   UNL     1      33.836 -13.182 -24.369  0.00  0.00    -0.312 N 
ATOM      4  C   UNL     1      33.067 -13.441 -22.128  0.00  0.00    +0.014 C 
ATOM      5  C   UNL     1      33.004 -14.549 -21.095  0.00  0.00    +0.001 C 
ATOM      6  C   UNL     1      33.650 -13.934 -23.293  0.00  0.00    +0.048 C 
ATOM      7  C   UNL     1      33.630 -15.718 -21.844  0.00  0.00    +0.004 C 
ATOM      8  C   UNL     1      34.006 -15.315 -23.161  0.00  0.00    +0.017 C 
ATOM      9  C   UNL     1      32.656 -12.114 -22.071  0.00  0.00    +0.006 C 
ATOM     10  C   UNL     1      32.859 -11.320 -23.228  0.00  0.00    +0.018 C 
ATOM     11  C   UNL     1      33.837 -17.009 -21.387  0.00  0.00    +0.040 C 
ATOM     12  C   UNL     1      34.598 -16.201 -24.044  0.00  0.00    +0.041 C 
ATOM     13  C   UNL     1      34.428 -17.874 -22.288  0.00  0.00    +0.176 C 
ATOM     14  C   UNL     1      34.795 -17.485 -23.567  0.00  0.00    +0.176 C 
ATOM     15  C   UNL     1      33.457 -11.892 -24.369  0.00  0.00    +0.062 C 
ATOM     16  C   UNL     1      32.059 -11.541 -20.934  0.00  0.00    +0.040 C 
ATOM     17  C   UNL     1      32.460  -9.976 -23.213  0.00  0.00    +0.041 C 
ATOM     18  C   UNL     1      31.668 -10.202 -20.941  0.00  0.00    +0.172 C 
ATOM     19  C   UNL     1      31.868  -9.422 -22.077  0.00  0.00    +0.172 C 
ATOM     20  C   UNL     1      35.308 -19.575 -23.303  0.00  0.00    +0.429 C 
ATOM     21  H   UNL     1      34.253 -13.570 -25.173  0.00  0.00    +0.152 HD
ENDROOT
BRANCH  18  22
ATOM     22  O   UNL     1      31.091  -9.669 -19.828  0.00  0.00    -0.468 OA
ATOM     23  C   UNL     1      31.074 -10.480 -18.655  0.00  0.00    +0.253 C 
ENDBRANCH  18  22
BRANCH  19  24
ATOM     24  O   UNL     1      31.488  -8.114 -22.092  0.00  0.00    -0.468 OA
ATOM     25  C   UNL     1      31.147  -7.552 -23.358  0.00  0.00    +0.253 C 
ENDBRANCH  19  24
TORSDOF 2
ENDMDL
MODEL 7
REMARK VINA RESULT:      -8.9     10.163     14.276
REMARK  Name = 5287652
REMARK  2 active torsions:
REMARK  status: ('A' for Active; 'I' for Inactive)
REMARK    1  A    between atoms: C_18  and  O_22
REMARK    2  A    between atoms: C_19  and  O_24
REMARK                            x       y       z     vdW  Elec       q    Type
REMARK                         _______ _______ _______ _____ _____    ______ ____
ROOT
ATOM      1  O   UNL     1      32.028  -4.580 -24.217  0.00  0.00    -0.435 OA
ATOM      2  O   UNL     1      30.893  -4.716 -22.096  0.00  0.00    -0.435 OA
ATOM      3  N   UNL     1      31.349 -10.096 -20.856  0.00  0.00    -0.312 N 
ATOM      4  C   UNL     1      32.530 -10.389 -22.905  0.00  0.00    +0.014 C 
ATOM      5  C   UNL     1      32.981  -9.519 -24.062  0.00  0.00    +0.001 C 
ATOM      6  C   UNL     1      31.856  -9.600 -21.975  0.00  0.00    +0.048 C 
ATOM      7  C   UNL     1      32.467  -8.147 -23.648  0.00  0.00    +0.004 C 
ATOM      8  C   UNL     1      31.796  -8.230 -22.391  0.00  0.00    +0.017 C 
ATOM      9  C   UNL     1      32.686 -11.749 -22.668  0.00  0.00    +0.006 C 
ATOM     10  C   UNL     1      32.139 -12.268 -21.468  0.00  0.00    +0.018 C 
ATOM     11  C   UNL     1      32.591  -6.950 -24.333  0.00  0.00    +0.040 C 
ATOM     12  C   UNL     1      31.235  -7.112 -21.798  0.00  0.00    +0.041 C 
ATOM     13  C   UNL     1      32.023  -5.848 -23.720  0.00  0.00    +0.176 C 
ATOM     14  C   UNL     1      31.371  -5.927 -22.499  0.00  0.00    +0.176 C 
ATOM     15  C   UNL     1      31.471 -11.405 -20.578  0.00  0.00    +0.062 C 
ATOM     16  C   UNL     1      33.353 -12.614 -23.556  0.00  0.00    +0.040 C 
ATOM     17  C   UNL     1      32.275 -13.636 -21.191  0.00  0.00    +0.041 C 
ATOM     18  C   UNL     1      33.476 -13.971 -23.262  0.00  0.00    +0.172 C 
ATOM     19  C   UNL     1      32.938 -14.481 -22.082  0.00  0.00    +0.172 C 
ATOM     20  C   UNL     1      31.314  -3.871 -23.186  0.00  0.00    +0.429 C 
ATOM     21  H   UNL     1      30.879  -9.503 -20.224  0.00  0.00    +0.152 HD
ENDROOT
BRANCH  18  22
ATOM     22  O   UNL     1      34.125 -14.789 -24.136  0.00  0.00    -0.468 OA
ATOM     23  C   UNL     1      33.415 -15.173 -25.313  0.00  0.00    +0.253 C 
ENDBRANCH  18  22
BRANCH  19  24
ATOM     24  O   UNL     1      33.053 -15.806 -21.787  0.00  0.00    -0.468 OA
ATOM     25  C   UNL     1      34.202 -16.207 -21.043  0.00  0.00    +0.253 C 
ENDBRANCH  19  24
TORSDOF 2
ENDMDL
MODEL 8
REMARK VINA RESULT:      -8.9      9.986     14.342
REMARK  Name = 5287652
REMARK  2 active torsions:
REMARK  status: ('A' for Active; 'I' for Inactive)
REMARK    1  A    between atoms: C_18  and  O_22
REMARK    2  A    between atoms: C_19  and  O_24
REMARK                            x       y       z     vdW  Elec       q    Type
REMARK                         _______ _______ _______ _____ _____    ______ ____
ROOT
ATOM      1  O   UNL     1      30.934  -4.958 -22.295  0.00  0.00    -0.435 OA
ATOM      2  O   UNL     1      32.411  -4.865 -24.196  0.00  0.00    -0.435 OA
ATOM      3  N   UNL     1      33.863 -10.174 -24.823  0.00  0.00    -0.312 N 
ATOM      4  C   UNL     1      32.488 -10.692 -22.947  0.00  0.00    +0.014 C 
ATOM      5  C   UNL     1      31.594  -9.937 -21.982  0.00  0.00    +0.001 C 
ATOM      6  C   UNL     1      33.039  -9.793 -23.858  0.00  0.00    +0.048 C 
ATOM      7  C   UNL     1      31.724  -8.505 -22.481  0.00  0.00    +0.004 C 
ATOM      8  C   UNL     1      32.599  -8.453 -23.608  0.00  0.00    +0.017 C 
ATOM      9  C   UNL     1      32.803 -12.042 -23.035  0.00  0.00    +0.006 C 
ATOM     10  C   UNL     1      33.687 -12.438 -24.071  0.00  0.00    +0.018 C 
ATOM     11  C   UNL     1      31.118  -7.368 -21.973  0.00  0.00    +0.040 C 
ATOM     12  C   UNL     1      32.883  -7.258 -24.246  0.00  0.00    +0.041 C 
ATOM     13  C   UNL     1      31.417  -6.188 -22.627  0.00  0.00    +0.176 C 
ATOM     14  C   UNL     1      32.267  -6.135 -23.722  0.00  0.00    +0.176 C 
ATOM     15  C   UNL     1      34.202 -11.469 -24.954  0.00  0.00    +0.062 C 
ATOM     16  C   UNL     1      32.290 -13.012 -22.154  0.00  0.00    +0.040 C 
ATOM     17  C   UNL     1      34.031 -13.792 -24.196  0.00  0.00    +0.041 C 
ATOM     18  C   UNL     1      32.646 -14.353 -22.296  0.00  0.00    +0.172 C 
ATOM     19  C   UNL     1      33.514 -14.742 -23.314  0.00  0.00    +0.172 C 
ATOM     20  C   UNL     1      31.565  -4.129 -23.290  0.00  0.00    +0.429 C 
ATOM     21  H   UNL     1      34.231  -9.507 -25.447  0.00  0.00    +0.152 HD
ENDROOT
BRANCH  18  22
ATOM     22  O   UNL     1      32.137 -15.275 -21.431  0.00  0.00    -0.468 OA
ATOM     23  C   UNL     1      32.631 -15.250 -20.094  0.00  0.00    +0.253 C 
ENDBRANCH  18  22
BRANCH  19  24
ATOM     24  O   UNL     1      33.867 -16.050 -23.458  0.00  0.00    -0.468 OA
ATOM     25  C   UNL     1      34.535 -16.412 -24.665  0.00  0.00    +0.253 C 
ENDBRANCH  19  24
TORSDOF 2
ENDMDL
MODEL 9
REMARK VINA RESULT:      -8.9      1.197      7.821
REMARK  Name = 5287652
REMARK  2 active torsions:
REMARK  status: ('A' for Active; 'I' for Inactive)
REMARK    1  A    between atoms: C_18  and  O_22
REMARK    2  A    between atoms: C_19  and  O_24
REMARK                            x       y       z     vdW  Elec       q    Type
REMARK                         _______ _______ _______ _____ _____    ______ ____
ROOT
ATOM      1  O   UNL     1      37.549 -24.412 -13.757  0.00  0.00    -0.435 OA
ATOM      2  O   UNL     1      35.237 -25.074 -13.918  0.00  0.00    -0.435 OA
ATOM      3  N   UNL     1      33.524 -22.306 -18.400  0.00  0.00    -0.312 N 
ATOM      4  C   UNL     1      35.724 -21.412 -18.594  0.00  0.00    +0.014 C 
ATOM      5  C   UNL     1      37.040 -21.523 -17.847  0.00  0.00    +0.001 C 
ATOM      6  C   UNL     1      34.772 -22.208 -17.963  0.00  0.00    +0.048 C 
ATOM      7  C   UNL     1      36.687 -22.487 -16.722  0.00  0.00    +0.004 C 
ATOM      8  C   UNL     1      35.317 -22.878 -16.820  0.00  0.00    +0.017 C 
ATOM      9  C   UNL     1      35.374 -20.684 -19.725  0.00  0.00    +0.006 C 
ATOM     10  C   UNL     1      34.037 -20.797 -20.183  0.00  0.00    +0.018 C 
ATOM     11  C   UNL     1      37.512 -22.960 -15.716  0.00  0.00    +0.040 C 
ATOM     12  C   UNL     1      34.750 -23.753 -15.909  0.00  0.00    +0.041 C 
ATOM     13  C   UNL     1      36.923 -23.831 -14.819  0.00  0.00    +0.176 C 
ATOM     14  C   UNL     1      35.593 -24.212 -14.912  0.00  0.00    +0.176 C 
ATOM     15  C   UNL     1      33.132 -21.624 -19.490  0.00  0.00    +0.062 C 
ATOM     16  C   UNL     1      36.277 -19.857 -20.418  0.00  0.00    +0.040 C 
ATOM     17  C   UNL     1      33.642 -20.079 -21.321  0.00  0.00    +0.041 C 
ATOM     18  C   UNL     1      35.863 -19.151 -21.548  0.00  0.00    +0.172 C 
ATOM     19  C   UNL     1      34.549 -19.262 -21.998  0.00  0.00    +0.172 C 
ATOM     20  C   UNL     1      36.479 -25.195 -13.195  0.00  0.00    +0.429 C 
ATOM     21  H   UNL     1      32.881 -22.882 -17.925  0.00  0.00    +0.152 HD
ENDROOT
BRANCH  18  22
ATOM     22  O   UNL     1      36.754 -18.356 -22.203  0.00  0.00    -0.468 OA
ATOM     23  C   UNL     1      38.135 -18.690 -22.076  0.00  0.00    +0.253 C 
ENDBRANCH  18  22
BRANCH  19  24
ATOM     24  O   UNL     1      34.137 -18.575 -23.100  0.00  0.00    -0.468 OA
ATOM     25  C   UNL     1      34.513 -19.103 -24.371  0.00  0.00    +0.253 C 
ENDBRANCH  19  24
TORSDOF 2
ENDMDL
