MODEL 1
REMARK VINA RESULT:     -10.4      0.000      0.000
REMARK  Name = 6102691
REMARK  4 active torsions:
REMARK  status: ('A' for Active; 'I' for Inactive)
REMARK    1  A    between atoms: C_2  and  C_12
REMARK    2  A    between atoms: C_5  and  C_23
REMARK    3  A    between atoms: C_9  and  O_20
REMARK    4  A    between atoms: C_17  and  O_18
REMARK                            x       y       z     vdW  Elec       q    Type
REMARK                         _______ _______ _______ _____ _____    ______ ____
ROOT
ATOM      1  C   UNL     1      33.386 -15.809 -21.454  0.00  0.00    +0.001 C 
ATOM      2  C   UNL     1      34.122 -18.127 -21.486  0.00  0.00    +0.001 C 
ATOM      3  C   UNL     1      33.770 -15.675 -22.809  0.00  0.00    +0.013 C 
ATOM      4  C   UNL     1      33.569 -17.041 -20.806  0.00  0.00    +0.000 C 
ATOM      5  C   UNL     1      34.326 -16.777 -23.478  0.00  0.00    +0.069 C 
ATOM      6  C   UNL     1      34.500 -17.995 -22.820  0.00  0.00    +0.010 C 
ATOM      7  C   UNL     1      32.830 -14.705 -20.785  0.00  0.00    +0.003 C 
ATOM      8  C   UNL     1      33.587 -14.442 -23.456  0.00  0.00    +0.037 C 
ATOM      9  C   UNL     1      33.034 -13.356 -22.777  0.00  0.00    +0.134 C 
ATOM     10  C   UNL     1      32.656 -13.487 -21.444  0.00  0.00    +0.037 C 
ENDROOT
BRANCH   2  12
ATOM     11  F   UNL     1      37.000 -21.581 -19.731  0.00  0.00    -0.201 F 
ATOM     12  C   UNL     1      34.303 -19.390 -20.804  0.00  0.00    +0.002 C 
ATOM     13  C   UNL     1      35.588 -19.890 -20.591  0.00  0.00    +0.033 C 
ATOM     14  C   UNL     1      33.193 -20.109 -20.361  0.00  0.00    +0.003 C 
ATOM     15  C   UNL     1      35.763 -21.107 -19.934  0.00  0.00    +0.174 C 
ATOM     16  C   UNL     1      33.368 -21.326 -19.703  0.00  0.00    +0.039 C 
ATOM     17  C   UNL     1      34.653 -21.825 -19.490  0.00  0.00    +0.161 C 
BRANCH  17  18
ATOM     18  O   UNL     1      34.821 -23.013 -18.847  0.00  0.00    -0.503 OA
ATOM     19  H   UNL     1      34.378 -23.779 -19.154  0.00  0.00    +0.292 HD
ENDBRANCH  17  18
ENDBRANCH   2  12
BRANCH   9  20
ATOM     20  O   UNL     1      32.863 -12.167 -23.418  0.00  0.00    -0.506 OA
ATOM     21  H   UNL     1      32.127 -11.626 -23.213  0.00  0.00    +0.292 HD
ENDBRANCH   9  20
BRANCH   5  23
ATOM     22  N   UNL     1      35.069 -16.664 -25.956  0.00  0.00    -0.191 NA
ATOM     23  C   UNL     1      34.738 -16.714 -24.850  0.00  0.00    +0.100 C 
ENDBRANCH   5  23
TORSDOF 4
ENDMDL
MODEL 2
REMARK VINA RESULT:      -9.9      1.347      1.856
REMARK  Name = 6102691
REMARK  4 active torsions:
REMARK  status: ('A' for Active; 'I' for Inactive)
REMARK    1  A    between atoms: C_2  and  C_12
REMARK    2  A    between atoms: C_5  and  C_23
REMARK    3  A    between atoms: C_9  and  O_20
REMARK    4  A    between atoms: C_17  and  O_18
REMARK                            x       y       z     vdW  Elec       q    Type
REMARK                         _______ _______ _______ _____ _____    ______ ____
ROOT
ATOM      1  C   UNL     1      33.194 -14.911 -21.420  0.00  0.00    +0.001 C 
ATOM      2  C   UNL     1      34.212 -17.091 -21.783  0.00  0.00    +0.001 C 
ATOM      3  C   UNL     1      33.208 -14.680 -22.816  0.00  0.00    +0.013 C 
ATOM      4  C   UNL     1      33.700 -16.122 -20.919  0.00  0.00    +0.000 C 
ATOM      5  C   UNL     1      33.726 -15.666 -23.671  0.00  0.00    +0.069 C 
ATOM      6  C   UNL     1      34.225 -16.863 -23.156  0.00  0.00    +0.010 C 
ATOM      7  C   UNL     1      32.675 -13.925 -20.565  0.00  0.00    +0.003 C 
ATOM      8  C   UNL     1      32.702 -13.469 -23.315  0.00  0.00    +0.037 C 
ATOM      9  C   UNL     1      32.190 -12.500 -22.452  0.00  0.00    +0.134 C 
ATOM     10  C   UNL     1      32.177 -12.727 -21.079  0.00  0.00    +0.037 C 
ENDROOT
BRANCH   2  12
ATOM     11  F   UNL     1      33.499 -21.506 -19.969  0.00  0.00    -0.201 F 
ATOM     12  C   UNL     1      34.729 -18.333 -21.250  0.00  0.00    +0.002 C 
ATOM     13  C   UNL     1      33.850 -19.342 -20.857  0.00  0.00    +0.033 C 
ATOM     14  C   UNL     1      36.105 -18.519 -21.127  0.00  0.00    +0.003 C 
ATOM     15  C   UNL     1      34.348 -20.539 -20.343  0.00  0.00    +0.174 C 
ATOM     16  C   UNL     1      36.603 -19.716 -20.613  0.00  0.00    +0.039 C 
ATOM     17  C   UNL     1      35.725 -20.726 -20.221  0.00  0.00    +0.161 C 
BRANCH  17  18
ATOM     18  O   UNL     1      36.213 -21.894 -19.720  0.00  0.00    -0.503 OA
ATOM     19  H   UNL     1      36.941 -21.883 -19.131  0.00  0.00    +0.292 HD
ENDBRANCH  17  18
ENDBRANCH   2  12
BRANCH   9  20
ATOM     20  O   UNL     1      31.704 -11.331 -22.953  0.00  0.00    -0.506 OA
ATOM     21  H   UNL     1      30.893 -10.986 -22.633  0.00  0.00    +0.292 HD
ENDBRANCH   9  20
BRANCH   5  23
ATOM     22  N   UNL     1      33.809 -15.366 -26.242  0.00  0.00    -0.191 NA
ATOM     23  C   UNL     1      33.772 -15.499 -25.094  0.00  0.00    +0.100 C 
ENDBRANCH   5  23
TORSDOF 4
ENDMDL
MODEL 3
REMARK VINA RESULT:      -9.8      2.131      3.195
REMARK  Name = 6102691
REMARK  4 active torsions:
REMARK  status: ('A' for Active; 'I' for Inactive)
REMARK    1  A    between atoms: C_2  and  C_12
REMARK    2  A    between atoms: C_5  and  C_23
REMARK    3  A    between atoms: C_9  and  O_20
REMARK    4  A    between atoms: C_17  and  O_18
REMARK                            x       y       z     vdW  Elec       q    Type
REMARK                         _______ _______ _______ _____ _____    ______ ____
ROOT
ATOM      1  C   UNL     1      34.450 -18.522 -23.486  0.00  0.00    +0.001 C 
ATOM      2  C   UNL     1      34.526 -19.268 -21.171  0.00  0.00    +0.001 C 
ATOM      3  C   UNL     1      34.459 -17.177 -23.046  0.00  0.00    +0.013 C 
ATOM      4  C   UNL     1      34.484 -19.556 -22.536  0.00  0.00    +0.000 C 
ATOM      5  C   UNL     1      34.501 -16.905 -21.669  0.00  0.00    +0.069 C 
ATOM      6  C   UNL     1      34.535 -17.945 -20.739  0.00  0.00    +0.010 C 
ATOM      7  C   UNL     1      34.407 -18.793 -24.864  0.00  0.00    +0.003 C 
ATOM      8  C   UNL     1      34.425 -16.144 -23.996  0.00  0.00    +0.037 C 
ATOM      9  C   UNL     1      34.382 -16.431 -25.360  0.00  0.00    +0.134 C 
ATOM     10  C   UNL     1      34.373 -17.754 -25.794  0.00  0.00    +0.037 C 
ENDROOT
BRANCH   2  12
ATOM     11  F   UNL     1      36.984 -22.179 -18.209  0.00  0.00    -0.201 F 
ATOM     12  C   UNL     1      34.561 -20.346 -20.207  0.00  0.00    +0.002 C 
ATOM     13  C   UNL     1      35.778 -20.753 -19.661  0.00  0.00    +0.033 C 
ATOM     14  C   UNL     1      33.378 -20.978 -19.825  0.00  0.00    +0.003 C 
ATOM     15  C   UNL     1      35.812 -21.792 -18.731  0.00  0.00    +0.174 C 
ATOM     16  C   UNL     1      33.413 -22.018 -18.896  0.00  0.00    +0.039 C 
ATOM     17  C   UNL     1      34.629 -22.424 -18.349  0.00  0.00    +0.161 C 
BRANCH  17  18
ATOM     18  O   UNL     1      34.660 -23.438 -17.441  0.00  0.00    -0.503 OA
ATOM     19  H   UNL     1      33.963 -24.064 -17.413  0.00  0.00    +0.292 HD
ENDBRANCH  17  18
ENDBRANCH   2  12
BRANCH   9  20
ATOM     20  O   UNL     1      34.349 -15.418 -26.269  0.00  0.00    -0.506 OA
ATOM     21  H   UNL     1      33.565 -14.918 -26.385  0.00  0.00    +0.292 HD
ENDBRANCH   9  20
BRANCH   5  23
ATOM     22  N   UNL     1      34.521 -14.491 -20.733  0.00  0.00    -0.191 NA
ATOM     23  C   UNL     1      34.512 -15.568 -21.151  0.00  0.00    +0.100 C 
ENDBRANCH   5  23
TORSDOF 4
ENDMDL
MODEL 4
REMARK VINA RESULT:      -9.6      7.445      9.548
REMARK  Name = 6102691
REMARK  4 active torsions:
REMARK  status: ('A' for Active; 'I' for Inactive)
REMARK    1  A    between atoms: C_2  and  C_12
REMARK    2  A    between atoms: C_5  and  C_23
REMARK    3  A    between atoms: C_9  and  O_20
REMARK    4  A    between atoms: C_17  and  O_18
REMARK                            x       y       z     vdW  Elec       q    Type
REMARK                         _______ _______ _______ _____ _____    ______ ____
ROOT
ATOM      1  C   UNL     1      31.603 -23.513 -14.961  0.00  0.00    +0.001 C 
ATOM      2  C   UNL     1      33.964 -24.096 -14.897  0.00  0.00    +0.001 C 
ATOM      3  C   UNL     1      31.755 -23.071 -16.297  0.00  0.00    +0.013 C 
ATOM      4  C   UNL     1      32.717 -24.023 -14.274  0.00  0.00    +0.000 C 
ATOM      5  C   UNL     1      33.017 -23.151 -16.907  0.00  0.00    +0.069 C 
ATOM      6  C   UNL     1      34.113 -23.661 -16.211  0.00  0.00    +0.010 C 
ATOM      7  C   UNL     1      30.340 -23.432 -14.350  0.00  0.00    +0.003 C 
ATOM      8  C   UNL     1      30.640 -22.561 -16.982  0.00  0.00    +0.037 C 
ATOM      9  C   UNL     1      29.394 -22.488 -16.360  0.00  0.00    +0.134 C 
ATOM     10  C   UNL     1      29.243 -22.923 -15.047  0.00  0.00    +0.037 C 
ENDROOT
BRANCH   2  12
ATOM     11  F   UNL     1      38.071 -26.628 -14.797  0.00  0.00    -0.201 F 
ATOM     12  C   UNL     1      35.101 -24.624 -14.175  0.00  0.00    +0.002 C 
ATOM     13  C   UNL     1      36.058 -25.387 -14.844  0.00  0.00    +0.033 C 
ATOM     14  C   UNL     1      35.239 -24.372 -12.811  0.00  0.00    +0.003 C 
ATOM     15  C   UNL     1      37.154 -25.897 -14.149  0.00  0.00    +0.174 C 
ATOM     16  C   UNL     1      36.335 -24.881 -12.115  0.00  0.00    +0.039 C 
ATOM     17  C   UNL     1      37.293 -25.643 -12.784  0.00  0.00    +0.161 C 
BRANCH  17  18
ATOM     18  O   UNL     1      38.363 -26.139 -12.103  0.00  0.00    -0.503 OA
ATOM     19  H   UNL     1      38.229 -26.695 -11.361  0.00  0.00    +0.292 HD
ENDBRANCH  17  18
ENDBRANCH   2  12
BRANCH   9  20
ATOM     20  O   UNL     1      28.323 -21.991 -17.039  0.00  0.00    -0.506 OA
ATOM     21  H   UNL     1      27.495 -22.427 -16.992  0.00  0.00    +0.292 HD
ENDBRANCH   9  20
BRANCH   5  23
ATOM     22  N   UNL     1      33.428 -22.375 -19.344  0.00  0.00    -0.191 NA
ATOM     23  C   UNL     1      33.245 -22.722 -18.257  0.00  0.00    +0.100 C 
ENDBRANCH   5  23
TORSDOF 4
ENDMDL
MODEL 5
REMARK VINA RESULT:      -9.5      6.064      8.499
REMARK  Name = 6102691
REMARK  4 active torsions:
REMARK  status: ('A' for Active; 'I' for Inactive)
REMARK    1  A    between atoms: C_2  and  C_12
REMARK    2  A    between atoms: C_5  and  C_23
REMARK    3  A    between atoms: C_9  and  O_20
REMARK    4  A    between atoms: C_17  and  O_18
REMARK                            x       y       z     vdW  Elec       q    Type
REMARK                         _______ _______ _______ _____ _____    ______ ____
ROOT
ATOM      1  C   UNL     1      34.005 -22.065 -18.448  0.00  0.00    +0.001 C 
ATOM      2  C   UNL     1      33.007 -23.246 -16.570  0.00  0.00    +0.001 C 
ATOM      3  C   UNL     1      35.268 -22.140 -17.815  0.00  0.00    +0.013 C 
ATOM      4  C   UNL     1      32.884 -22.623 -17.812  0.00  0.00    +0.000 C 
ATOM      5  C   UNL     1      35.374 -22.770 -16.564  0.00  0.00    +0.069 C 
ATOM      6  C   UNL     1      34.250 -23.319 -15.947  0.00  0.00    +0.010 C 
ATOM      7  C   UNL     1      33.900 -21.435 -19.699  0.00  0.00    +0.003 C 
ATOM      8  C   UNL     1      36.389 -21.581 -18.451  0.00  0.00    +0.037 C 
ATOM      9  C   UNL     1      36.267 -20.959 -19.693  0.00  0.00    +0.134 C 
ATOM     10  C   UNL     1      35.025 -20.885 -20.316  0.00  0.00    +0.037 C 
ENDROOT
BRANCH   2  12
ATOM     11  F   UNL     1      28.249 -24.046 -16.447  0.00  0.00    -0.201 F 
ATOM     12  C   UNL     1      31.841 -23.815 -15.929  0.00  0.00    +0.002 C 
ATOM     13  C   UNL     1      30.581 -23.655 -16.505  0.00  0.00    +0.033 C 
ATOM     14  C   UNL     1      31.977 -24.523 -14.735  0.00  0.00    +0.003 C 
ATOM     15  C   UNL     1      29.457 -24.203 -15.888  0.00  0.00    +0.174 C 
ATOM     16  C   UNL     1      30.854 -25.071 -14.118  0.00  0.00    +0.039 C 
ATOM     17  C   UNL     1      29.594 -24.912 -14.694  0.00  0.00    +0.161 C 
BRANCH  17  18
ATOM     18  O   UNL     1      28.498 -25.448 -14.091  0.00  0.00    -0.503 OA
ATOM     19  H   UNL     1      27.686 -25.502 -14.555  0.00  0.00    +0.292 HD
ENDBRANCH  17  18
ENDBRANCH   2  12
BRANCH   9  20
ATOM     20  O   UNL     1      37.363 -20.422 -20.297  0.00  0.00    -0.506 OA
ATOM     21  H   UNL     1      38.192 -20.437 -19.860  0.00  0.00    +0.292 HD
ENDBRANCH   9  20
BRANCH   5  23
ATOM     22  N   UNL     1      37.625 -22.972 -15.300  0.00  0.00    -0.191 NA
ATOM     23  C   UNL     1      36.621 -22.881 -15.864  0.00  0.00    +0.100 C 
ENDBRANCH   5  23
TORSDOF 4
ENDMDL
MODEL 6
REMARK VINA RESULT:      -9.5      2.015      3.137
REMARK  Name = 6102691
REMARK  4 active torsions:
REMARK  status: ('A' for Active; 'I' for Inactive)
REMARK    1  A    between atoms: C_2  and  C_12
REMARK    2  A    between atoms: C_5  and  C_23
REMARK    3  A    between atoms: C_9  and  O_20
REMARK    4  A    between atoms: C_17  and  O_18
REMARK                            x       y       z     vdW  Elec       q    Type
REMARK                         _______ _______ _______ _____ _____    ______ ____
ROOT
ATOM      1  C   UNL     1      34.117 -16.553 -23.951  0.00  0.00    +0.001 C 
ATOM      2  C   UNL     1      34.339 -17.733 -21.834  0.00  0.00    +0.001 C 
ATOM      3  C   UNL     1      33.611 -15.425 -23.261  0.00  0.00    +0.013 C 
ATOM      4  C   UNL     1      34.477 -17.699 -23.223  0.00  0.00    +0.000 C 
ATOM      5  C   UNL     1      33.479 -15.476 -21.864  0.00  0.00    +0.069 C 
ATOM      6  C   UNL     1      33.841 -16.623 -21.157  0.00  0.00    +0.010 C 
ATOM      7  C   UNL     1      34.249 -16.501 -25.348  0.00  0.00    +0.003 C 
ATOM      8  C   UNL     1      33.252 -14.280 -23.990  0.00  0.00    +0.037 C 
ATOM      9  C   UNL     1      33.389 -14.246 -25.378  0.00  0.00    +0.134 C 
ATOM     10  C   UNL     1      33.887 -15.354 -26.056  0.00  0.00    +0.037 C 
ENDROOT
BRANCH   2  12
ATOM     11  F   UNL     1      33.138 -21.740 -19.428  0.00  0.00    -0.201 F 
ATOM     12  C   UNL     1      34.714 -18.921 -21.100  0.00  0.00    +0.002 C 
ATOM     13  C   UNL     1      33.729 -19.776 -20.607  0.00  0.00    +0.033 C 
ATOM     14  C   UNL     1      36.061 -19.212 -20.885  0.00  0.00    +0.003 C 
ATOM     15  C   UNL     1      34.089 -20.922 -19.899  0.00  0.00    +0.174 C 
ATOM     16  C   UNL     1      36.422 -20.358 -20.176  0.00  0.00    +0.039 C 
ATOM     17  C   UNL     1      35.437 -21.213 -19.684  0.00  0.00    +0.161 C 
BRANCH  17  18
ATOM     18  O   UNL     1      35.791 -22.331 -18.994  0.00  0.00    -0.503 OA
ATOM     19  H   UNL     1      36.185 -23.053 -19.442  0.00  0.00    +0.292 HD
ENDBRANCH  17  18
ENDBRANCH   2  12
BRANCH   9  20
ATOM     20  O   UNL     1      33.037 -13.127 -26.070  0.00  0.00    -0.506 OA
ATOM     21  H   UNL     1      32.366 -13.173 -26.722  0.00  0.00    +0.292 HD
ENDBRANCH   9  20
BRANCH   5  23
ATOM     22  N   UNL     1      32.565 -13.484 -20.486  0.00  0.00    -0.191 NA
ATOM     23  C   UNL     1      32.973 -14.373 -21.101  0.00  0.00    +0.100 C 
ENDBRANCH   5  23
TORSDOF 4
ENDMDL
MODEL 7
REMARK VINA RESULT:      -9.5      4.897      6.813
REMARK  Name = 6102691
REMARK  4 active torsions:
REMARK  status: ('A' for Active; 'I' for Inactive)
REMARK    1  A    between atoms: C_2  and  C_12
REMARK    2  A    between atoms: C_5  and  C_23
REMARK    3  A    between atoms: C_9  and  O_20
REMARK    4  A    between atoms: C_17  and  O_18
REMARK                            x       y       z     vdW  Elec       q    Type
REMARK                         _______ _______ _______ _____ _____    ______ ____
ROOT
ATOM      1  C   UNL     1      33.677 -10.207 -23.706  0.00  0.00    +0.001 C 
ATOM      2  C   UNL     1      33.310 -12.612 -23.678  0.00  0.00    +0.001 C 
ATOM      3  C   UNL     1      32.698 -10.052 -22.697  0.00  0.00    +0.013 C 
ATOM      4  C   UNL     1      33.972 -11.493 -24.187  0.00  0.00    +0.000 C 
ATOM      5  C   UNL     1      32.041 -11.188 -22.197  0.00  0.00    +0.069 C 
ATOM      6  C   UNL     1      32.346 -12.459 -22.685  0.00  0.00    +0.010 C 
ATOM      7  C   UNL     1      34.334  -9.070 -24.206  0.00  0.00    +0.003 C 
ATOM      8  C   UNL     1      32.403  -8.766 -22.217  0.00  0.00    +0.037 C 
ATOM      9  C   UNL     1      33.065  -7.647 -22.725  0.00  0.00    +0.134 C 
ATOM     10  C   UNL     1      34.028  -7.799 -23.718  0.00  0.00    +0.037 C 
ENDROOT
BRANCH   2  12
ATOM     11  F   UNL     1      35.508 -16.882 -23.199  0.00  0.00    -0.201 F 
ATOM     12  C   UNL     1      33.626 -13.930 -24.184  0.00  0.00    +0.002 C 
ATOM     13  C   UNL     1      34.430 -14.789 -23.436  0.00  0.00    +0.033 C 
ATOM     14  C   UNL     1      33.129 -14.339 -25.421  0.00  0.00    +0.003 C 
ATOM     15  C   UNL     1      34.736 -16.060 -23.924  0.00  0.00    +0.174 C 
ATOM     16  C   UNL     1      33.434 -15.610 -25.909  0.00  0.00    +0.039 C 
ATOM     17  C   UNL     1      34.237 -16.470 -25.160  0.00  0.00    +0.161 C 
BRANCH  17  18
ATOM     18  O   UNL     1      34.533 -17.710 -25.638  0.00  0.00    -0.503 OA
ATOM     19  H   UNL     1      35.046 -18.300 -25.122  0.00  0.00    +0.292 HD
ENDBRANCH  17  18
ENDBRANCH   2  12
BRANCH   9  20
ATOM     20  O   UNL     1      32.768  -6.407 -22.250  0.00  0.00    -0.506 OA
ATOM     21  H   UNL     1      32.420  -6.307 -21.385  0.00  0.00    +0.292 HD
ENDBRANCH   9  20
BRANCH   5  23
ATOM     22  N   UNL     1      30.230 -11.041 -20.351  0.00  0.00    -0.191 NA
ATOM     23  C   UNL     1      31.038 -11.107 -21.175  0.00  0.00    +0.100 C 
ENDBRANCH   5  23
TORSDOF 4
ENDMDL
MODEL 8
REMARK VINA RESULT:      -9.4      8.911     10.874
REMARK  Name = 6102691
REMARK  4 active torsions:
REMARK  status: ('A' for Active; 'I' for Inactive)
REMARK    1  A    between atoms: C_2  and  C_12
REMARK    2  A    between atoms: C_5  and  C_23
REMARK    3  A    between atoms: C_9  and  O_20
REMARK    4  A    between atoms: C_17  and  O_18
REMARK                            x       y       z     vdW  Elec       q    Type
REMARK                         _______ _______ _______ _____ _____    ______ ____
ROOT
ATOM      1  C   UNL     1      34.828 -23.860 -13.026  0.00  0.00    +0.001 C 
ATOM      2  C   UNL     1      33.161 -23.603 -14.780  0.00  0.00    +0.001 C 
ATOM      3  C   UNL     1      35.819 -23.358 -13.903  0.00  0.00    +0.013 C 
ATOM      4  C   UNL     1      33.504 -23.977 -13.479  0.00  0.00    +0.000 C 
ATOM      5  C   UNL     1      35.457 -22.988 -15.209  0.00  0.00    +0.069 C 
ATOM      6  C   UNL     1      34.136 -23.110 -15.643  0.00  0.00    +0.010 C 
ATOM      7  C   UNL     1      35.191 -24.230 -11.720  0.00  0.00    +0.003 C 
ATOM      8  C   UNL     1      37.143 -23.242 -13.449  0.00  0.00    +0.037 C 
ATOM      9  C   UNL     1      37.485 -23.615 -12.149  0.00  0.00    +0.134 C 
ATOM     10  C   UNL     1      36.511 -24.108 -11.286  0.00  0.00    +0.037 C 
ENDROOT
BRANCH   2  12
ATOM     11  F   UNL     1      28.850 -25.761 -14.568  0.00  0.00    -0.201 F 
ATOM     12  C   UNL     1      31.793 -23.730 -15.230  0.00  0.00    +0.002 C 
ATOM     13  C   UNL     1      30.962 -24.702 -14.673  0.00  0.00    +0.033 C 
ATOM     14  C   UNL     1      31.304 -22.880 -16.223  0.00  0.00    +0.003 C 
ATOM     15  C   UNL     1      29.643 -24.825 -15.108  0.00  0.00    +0.174 C 
ATOM     16  C   UNL     1      29.984 -23.003 -16.657  0.00  0.00    +0.039 C 
ATOM     17  C   UNL     1      29.154 -23.975 -16.100  0.00  0.00    +0.161 C 
BRANCH  17  18
ATOM     18  O   UNL     1      27.866 -24.092 -16.524  0.00  0.00    -0.503 OA
ATOM     19  H   UNL     1      27.512 -23.468 -17.127  0.00  0.00    +0.292 HD
ENDBRANCH  17  18
ENDBRANCH   2  12
BRANCH   9  20
ATOM     20  O   UNL     1      38.773 -23.497 -11.724  0.00  0.00    -0.506 OA
ATOM     21  H   UNL     1      39.088 -22.673 -11.409  0.00  0.00    +0.292 HD
ENDBRANCH   9  20
BRANCH   5  23
ATOM     22  N   UNL     1      37.173 -22.058 -16.910  0.00  0.00    -0.191 NA
ATOM     23  C   UNL     1      36.407 -22.473 -16.151  0.00  0.00    +0.100 C 
ENDBRANCH   5  23
TORSDOF 4
ENDMDL
MODEL 9
REMARK VINA RESULT:      -9.4      5.269      9.304
REMARK  Name = 6102691
REMARK  4 active torsions:
REMARK  status: ('A' for Active; 'I' for Inactive)
REMARK    1  A    between atoms: C_2  and  C_12
REMARK    2  A    between atoms: C_5  and  C_23
REMARK    3  A    between atoms: C_9  and  O_20
REMARK    4  A    between atoms: C_17  and  O_18
REMARK                            x       y       z     vdW  Elec       q    Type
REMARK                         _______ _______ _______ _____ _____    ______ ____
ROOT
ATOM      1  C   UNL     1      31.891 -23.234 -16.204  0.00  0.00    +0.001 C 
ATOM      2  C   UNL     1      33.652 -22.419 -17.671  0.00  0.00    +0.001 C 
ATOM      3  C   UNL     1      32.868 -23.844 -15.381  0.00  0.00    +0.013 C 
ATOM      4  C   UNL     1      32.299 -22.525 -17.345  0.00  0.00    +0.000 C 
ATOM      5  C   UNL     1      34.225 -23.728 -15.724  0.00  0.00    +0.069 C 
ATOM      6  C   UNL     1      34.613 -23.019 -16.862  0.00  0.00    +0.010 C 
ATOM      7  C   UNL     1      30.534 -23.351 -15.860  0.00  0.00    +0.003 C 
ATOM      8  C   UNL     1      32.458 -24.554 -14.240  0.00  0.00    +0.037 C 
ATOM      9  C   UNL     1      31.106 -24.660 -13.915  0.00  0.00    +0.134 C 
ATOM     10  C   UNL     1      30.145 -24.060 -14.723  0.00  0.00    +0.037 C 
ENDROOT
BRANCH   2  12
ATOM     11  F   UNL     1      37.094 -20.803 -20.643  0.00  0.00    -0.201 F 
ATOM     12  C   UNL     1      34.055 -21.684 -18.850  0.00  0.00    +0.002 C 
ATOM     13  C   UNL     1      35.406 -21.594 -19.187  0.00  0.00    +0.033 C 
ATOM     14  C   UNL     1      33.094 -21.065 -19.649  0.00  0.00    +0.003 C 
ATOM     15  C   UNL     1      35.795 -20.885 -20.324  0.00  0.00    +0.174 C 
ATOM     16  C   UNL     1      33.483 -20.357 -20.785  0.00  0.00    +0.039 C 
ATOM     17  C   UNL     1      34.833 -20.267 -21.123  0.00  0.00    +0.161 C 
BRANCH  17  18
ATOM     18  O   UNL     1      35.211 -19.576 -22.233  0.00  0.00    -0.503 OA
ATOM     19  H   UNL     1      35.974 -19.033 -22.210  0.00  0.00    +0.292 HD
ENDBRANCH  17  18
ENDBRANCH   2  12
BRANCH   9  20
ATOM     20  O   UNL     1      30.726 -25.351 -12.805  0.00  0.00    -0.506 OA
ATOM     21  H   UNL     1      30.948 -25.030 -11.954  0.00  0.00    +0.292 HD
ENDBRANCH   9  20
BRANCH   5  23
ATOM     22  N   UNL     1      36.108 -24.797 -14.305  0.00  0.00    -0.191 NA
ATOM     23  C   UNL     1      35.268 -24.321 -14.938  0.00  0.00    +0.100 C 
ENDBRANCH   5  23
TORSDOF 4
ENDMDL
