MODEL 1
REMARK VINA RESULT:      -8.0      0.000      0.000
REMARK  Name = 9375
REMARK  4 active torsions:
REMARK  status: ('A' for Active; 'I' for Inactive)
REMARK    1  A    between atoms: N_1  and  N_4
REMARK    2  A    between atoms: N_1  and  C_11
REMARK    3  A    between atoms: C_5  and  C_7
REMARK    4  A    between atoms: C_11  and  C_12
REMARK                            x       y       z     vdW  Elec       q    Type
REMARK                         _______ _______ _______ _____ _____    ______ ____
ROOT
ATOM      1  N   UNL     1      32.728 -22.644 -18.346  0.00  0.00    -0.226 NA
ATOM      2  H   UNL     1      32.256 -21.739 -18.369  0.00  0.00    +0.145 HD
ENDROOT
BRANCH   1   4
ATOM      3  O   UNL     1      30.390 -22.658 -16.889  0.00  0.00    -0.274 OA
ATOM      4  N   UNL     1      32.637 -23.174 -17.069  0.00  0.00    -0.249 N 
ATOM      5  C   UNL     1      31.418 -23.138 -16.411  0.00  0.00    +0.234 C 
ATOM      6  H   UNL     1      33.427 -23.572 -16.636  0.00  0.00    +0.169 HD
BRANCH   5   7
ATOM      7  C   UNL     1      31.453 -23.762 -15.000  0.00  0.00    +0.070 C 
ATOM      8  C   UNL     1      30.934 -22.739 -13.974  0.00  0.00    +0.009 C 
ATOM      9  C   UNL     1      32.894 -24.142 -14.628  0.00  0.00    +0.009 C 
ATOM     10  C   UNL     1      30.549 -25.005 -14.953  0.00  0.00    +0.009 C 
ENDBRANCH   5   7
ENDBRANCH   1   4
BRANCH   1  11
ATOM     11  C   UNL     1      34.124 -22.469 -18.720  0.00  0.00    +0.114 C 
BRANCH  11  12
ATOM     12  C   UNL     1      34.316 -21.289 -19.636  0.00  0.00    -0.005 C 
ATOM     13  C   UNL     1      35.601 -20.899 -19.988  0.00  0.00    -0.003 C 
ATOM     14  C   UNL     1      33.206 -20.609 -20.118  0.00  0.00    -0.003 C 
ATOM     15  C   UNL     1      35.780 -19.807 -20.837  0.00  0.00    -0.000 C 
ATOM     16  C   UNL     1      33.384 -19.518 -20.967  0.00  0.00    -0.000 C 
ATOM     17  C   UNL     1      34.672 -19.116 -21.327  0.00  0.00    -0.000 C 
ENDBRANCH  11  12
ENDBRANCH   1  11
TORSDOF 4
ENDMDL
MODEL 2
REMARK VINA RESULT:      -7.7      6.254      9.090
REMARK  Name = 9375
REMARK  4 active torsions:
REMARK  status: ('A' for Active; 'I' for Inactive)
REMARK    1  A    between atoms: N_1  and  N_4
REMARK    2  A    between atoms: N_1  and  C_11
REMARK    3  A    between atoms: C_5  and  C_7
REMARK    4  A    between atoms: C_11  and  C_12
REMARK                            x       y       z     vdW  Elec       q    Type
REMARK                         _______ _______ _______ _____ _____    ______ ____
ROOT
ATOM      1  N   UNL     1      34.765 -14.840 -22.535  0.00  0.00    -0.226 NA
ATOM      2  H   UNL     1      35.464 -14.419 -23.148  0.00  0.00    +0.145 HD
ENDROOT
BRANCH   1   4
ATOM      3  O   UNL     1      35.080 -16.451 -20.323  0.00  0.00    -0.274 OA
ATOM      4  N   UNL     1      34.858 -16.220 -22.614  0.00  0.00    -0.249 N 
ATOM      5  C   UNL     1      35.015 -16.951 -21.446  0.00  0.00    +0.234 C 
ATOM      6  H   UNL     1      34.813 -16.676 -23.485  0.00  0.00    +0.169 HD
BRANCH   5   7
ATOM      7  C   UNL     1      35.103 -18.475 -21.672  0.00  0.00    +0.070 C 
ATOM      8  C   UNL     1      35.148 -18.767 -23.183  0.00  0.00    +0.009 C 
ATOM      9  C   UNL     1      33.868 -19.168 -21.075  0.00  0.00    +0.009 C 
ATOM     10  C   UNL     1      36.383 -19.029 -21.028  0.00  0.00    +0.009 C 
ENDBRANCH   5   7
ENDBRANCH   1   4
BRANCH   1  11
ATOM     11  C   UNL     1      33.438 -14.401 -22.944  0.00  0.00    +0.114 C 
BRANCH  11  12
ATOM     12  C   UNL     1      33.433 -13.865 -24.351  0.00  0.00    -0.005 C 
ATOM     13  C   UNL     1      33.118 -14.712 -25.404  0.00  0.00    -0.003 C 
ATOM     14  C   UNL     1      33.741 -12.530 -24.574  0.00  0.00    -0.003 C 
ATOM     15  C   UNL     1      33.112 -14.215 -26.707  0.00  0.00    -0.000 C 
ATOM     16  C   UNL     1      33.735 -12.033 -25.877  0.00  0.00    -0.000 C 
ATOM     17  C   UNL     1      33.420 -12.876 -26.945  0.00  0.00    -0.000 C 
ENDBRANCH  11  12
ENDBRANCH   1  11
TORSDOF 4
ENDMDL
MODEL 3
REMARK VINA RESULT:      -7.7      4.910      8.003
REMARK  Name = 9375
REMARK  4 active torsions:
REMARK  status: ('A' for Active; 'I' for Inactive)
REMARK    1  A    between atoms: N_1  and  N_4
REMARK    2  A    between atoms: N_1  and  C_11
REMARK    3  A    between atoms: C_5  and  C_7
REMARK    4  A    between atoms: C_11  and  C_12
REMARK                            x       y       z     vdW  Elec       q    Type
REMARK                         _______ _______ _______ _____ _____    ______ ____
ROOT
ATOM      1  N   UNL     1      35.775 -18.210 -22.310  0.00  0.00    -0.226 NA
ATOM      2  H   UNL     1      36.492 -18.011 -23.009  0.00  0.00    +0.145 HD
ENDROOT
BRANCH   1   4
ATOM      3  O   UNL     1      34.110 -16.575 -23.774  0.00  0.00    -0.274 OA
ATOM      4  N   UNL     1      35.269 -17.015 -21.822  0.00  0.00    -0.249 N 
ATOM      5  C   UNL     1      34.437 -16.257 -22.630  0.00  0.00    +0.234 C 
ATOM      6  H   UNL     1      35.497 -16.710 -20.914  0.00  0.00    +0.169 HD
BRANCH   5   7
ATOM      7  C   UNL     1      33.942 -14.955 -21.967  0.00  0.00    +0.070 C 
ATOM      8  C   UNL     1      32.453 -15.099 -21.604  0.00  0.00    +0.009 C 
ATOM      9  C   UNL     1      34.097 -13.776 -22.941  0.00  0.00    +0.009 C 
ATOM     10  C   UNL     1      34.736 -14.685 -20.680  0.00  0.00    +0.009 C 
ENDBRANCH   5   7
ENDBRANCH   1   4
BRANCH   1  11
ATOM     11  C   UNL     1      36.361 -18.988 -21.228  0.00  0.00    +0.114 C 
BRANCH  11  12
ATOM     12  C   UNL     1      35.361 -19.928 -20.607  0.00  0.00    -0.005 C 
ATOM     13  C   UNL     1      34.005 -19.725 -20.826  0.00  0.00    -0.003 C 
ATOM     14  C   UNL     1      35.809 -20.984 -19.828  0.00  0.00    -0.003 C 
ATOM     15  C   UNL     1      33.079 -20.596 -20.252  0.00  0.00    -0.000 C 
ATOM     16  C   UNL     1      34.884 -21.856 -19.254  0.00  0.00    -0.000 C 
ATOM     17  C   UNL     1      33.517 -21.661 -19.466  0.00  0.00    -0.000 C 
ENDBRANCH  11  12
ENDBRANCH   1  11
TORSDOF 4
ENDMDL
MODEL 4
REMARK VINA RESULT:      -7.6      4.581      8.058
REMARK  Name = 9375
REMARK  4 active torsions:
REMARK  status: ('A' for Active; 'I' for Inactive)
REMARK    1  A    between atoms: N_1  and  N_4
REMARK    2  A    between atoms: N_1  and  C_11
REMARK    3  A    between atoms: C_5  and  C_7
REMARK    4  A    between atoms: C_11  and  C_12
REMARK                            x       y       z     vdW  Elec       q    Type
REMARK                         _______ _______ _______ _____ _____    ______ ____
ROOT
ATOM      1  N   UNL     1      35.632 -17.797 -20.804  0.00  0.00    -0.226 NA
ATOM      2  H   UNL     1      35.143 -17.872 -19.912  0.00  0.00    +0.145 HD
ENDROOT
BRANCH   1   4
ATOM      3  O   UNL     1      34.920 -15.203 -20.212  0.00  0.00    -0.274 OA
ATOM      4  N   UNL     1      34.893 -17.002 -21.666  0.00  0.00    -0.249 N 
ATOM      5  C   UNL     1      34.581 -15.707 -21.284  0.00  0.00    +0.234 C 
ATOM      6  H   UNL     1      34.594 -17.351 -22.537  0.00  0.00    +0.169 HD
BRANCH   5   7
ATOM      7  C   UNL     1      33.759 -14.929 -22.332  0.00  0.00    +0.070 C 
ATOM      8  C   UNL     1      34.407 -13.554 -22.574  0.00  0.00    +0.009 C 
ATOM      9  C   UNL     1      32.326 -14.711 -21.821  0.00  0.00    +0.009 C 
ATOM     10  C   UNL     1      33.735 -15.701 -23.660  0.00  0.00    +0.009 C 
ENDBRANCH   5   7
ENDBRANCH   1   4
BRANCH   1  11
ATOM     11  C   UNL     1      35.805 -19.127 -21.372  0.00  0.00    +0.114 C 
BRANCH  11  12
ATOM     12  C   UNL     1      35.127 -20.185 -20.542  0.00  0.00    -0.005 C 
ATOM     13  C   UNL     1      33.741 -20.220 -20.480  0.00  0.00    -0.003 C 
ATOM     14  C   UNL     1      35.896 -21.111 -19.853  0.00  0.00    -0.003 C 
ATOM     15  C   UNL     1      33.111 -21.200 -19.713  0.00  0.00    -0.000 C 
ATOM     16  C   UNL     1      35.268 -22.091 -19.085  0.00  0.00    -0.000 C 
ATOM     17  C   UNL     1      33.874 -22.136 -19.015  0.00  0.00    -0.000 C 
ENDBRANCH  11  12
ENDBRANCH   1  11
TORSDOF 4
ENDMDL
MODEL 5
REMARK VINA RESULT:      -7.5      1.290      1.943
REMARK  Name = 9375
REMARK  4 active torsions:
REMARK  status: ('A' for Active; 'I' for Inactive)
REMARK    1  A    between atoms: N_1  and  N_4
REMARK    2  A    between atoms: N_1  and  C_11
REMARK    3  A    between atoms: C_5  and  C_7
REMARK    4  A    between atoms: C_11  and  C_12
REMARK                            x       y       z     vdW  Elec       q    Type
REMARK                         _______ _______ _______ _____ _____    ______ ____
ROOT
ATOM      1  N   UNL     1      33.073 -22.530 -18.584  0.00  0.00    -0.226 NA
ATOM      2  H   UNL     1      33.230 -23.390 -19.111  0.00  0.00    +0.145 HD
ENDROOT
BRANCH   1   4
ATOM      3  O   UNL     1      33.215 -23.658 -16.075  0.00  0.00    -0.274 OA
ATOM      4  N   UNL     1      31.966 -22.691 -17.765  0.00  0.00    -0.249 N 
ATOM      5  C   UNL     1      32.133 -23.269 -16.516  0.00  0.00    +0.234 C 
ATOM      6  H   UNL     1      31.075 -22.399 -18.065  0.00  0.00    +0.169 HD
BRANCH   5   7
ATOM      7  C   UNL     1      30.825 -23.388 -15.705  0.00  0.00    +0.070 C 
ATOM      8  C   UNL     1      29.727 -22.544 -16.377  0.00  0.00    +0.009 C 
ATOM      9  C   UNL     1      31.042 -22.863 -14.277  0.00  0.00    +0.009 C 
ATOM     10  C   UNL     1      30.363 -24.853 -15.665  0.00  0.00    +0.009 C 
ENDBRANCH   5   7
ENDBRANCH   1   4
BRANCH   1  11
ATOM     11  C   UNL     1      32.855 -21.429 -19.512  0.00  0.00    +0.114 C 
BRANCH  11  12
ATOM     12  C   UNL     1      34.151 -20.792 -19.941  0.00  0.00    -0.005 C 
ATOM     13  C   UNL     1      34.123 -19.674 -20.763  0.00  0.00    -0.003 C 
ATOM     14  C   UNL     1      35.354 -21.331 -19.507  0.00  0.00    -0.003 C 
ATOM     15  C   UNL     1      35.322 -19.083 -21.160  0.00  0.00    -0.000 C 
ATOM     16  C   UNL     1      36.553 -20.741 -19.904  0.00  0.00    -0.000 C 
ATOM     17  C   UNL     1      36.538 -19.616 -20.731  0.00  0.00    -0.000 C 
ENDBRANCH  11  12
ENDBRANCH   1  11
TORSDOF 4
ENDMDL
MODEL 6
REMARK VINA RESULT:      -7.5      5.981      8.554
REMARK  Name = 9375
REMARK  4 active torsions:
REMARK  status: ('A' for Active; 'I' for Inactive)
REMARK    1  A    between atoms: N_1  and  N_4
REMARK    2  A    between atoms: N_1  and  C_11
REMARK    3  A    between atoms: C_5  and  C_7
REMARK    4  A    between atoms: C_11  and  C_12
REMARK                            x       y       z     vdW  Elec       q    Type
REMARK                         _______ _______ _______ _____ _____    ______ ____
ROOT
ATOM      1  N   UNL     1      34.954 -15.378 -22.824  0.00  0.00    -0.226 NA
ATOM      2  H   UNL     1      35.765 -15.121 -23.387  0.00  0.00    +0.145 HD
ENDROOT
BRANCH   1   4
ATOM      3  O   UNL     1      35.222 -16.747 -20.449  0.00  0.00    -0.274 OA
ATOM      4  N   UNL     1      34.877 -16.759 -22.736  0.00  0.00    -0.249 N 
ATOM      5  C   UNL     1      35.024 -17.363 -21.497  0.00  0.00    +0.234 C 
ATOM      6  H   UNL     1      34.721 -17.303 -23.541  0.00  0.00    +0.169 HD
BRANCH   5   7
ATOM      7  C   UNL     1      34.915 -18.901 -21.537  0.00  0.00    +0.070 C 
ATOM      8  C   UNL     1      34.920 -19.378 -23.001  0.00  0.00    +0.009 C 
ATOM      9  C   UNL     1      33.602 -19.354 -20.880  0.00  0.00    +0.009 C 
ATOM     10  C   UNL     1      36.113 -19.533 -20.812  0.00  0.00    +0.009 C 
ENDBRANCH   5   7
ENDBRANCH   1   4
BRANCH   1  11
ATOM     11  C   UNL     1      33.749 -14.846 -23.444  0.00  0.00    +0.114 C 
BRANCH  11  12
ATOM     12  C   UNL     1      33.027 -13.886 -22.535  0.00  0.00    -0.005 C 
ATOM     13  C   UNL     1      32.515 -12.706 -23.056  0.00  0.00    -0.003 C 
ATOM     14  C   UNL     1      32.882 -14.196 -21.190  0.00  0.00    -0.003 C 
ATOM     15  C   UNL     1      31.845 -11.817 -22.215  0.00  0.00    -0.000 C 
ATOM     16  C   UNL     1      32.212 -13.308 -20.349  0.00  0.00    -0.000 C 
ATOM     17  C   UNL     1      31.693 -12.118 -20.862  0.00  0.00    -0.000 C 
ENDBRANCH  11  12
ENDBRANCH   1  11
TORSDOF 4
ENDMDL
MODEL 7
REMARK VINA RESULT:      -7.4      5.340      6.991
REMARK  Name = 9375
REMARK  4 active torsions:
REMARK  status: ('A' for Active; 'I' for Inactive)
REMARK    1  A    between atoms: N_1  and  N_4
REMARK    2  A    between atoms: N_1  and  C_11
REMARK    3  A    between atoms: C_5  and  C_7
REMARK    4  A    between atoms: C_11  and  C_12
REMARK                            x       y       z     vdW  Elec       q    Type
REMARK                         _______ _______ _______ _____ _____    ______ ____
ROOT
ATOM      1  N   UNL     1      33.188 -23.656 -13.069  0.00  0.00    -0.226 NA
ATOM      2  H   UNL     1      32.748 -22.762 -13.290  0.00  0.00    +0.145 HD
ENDROOT
BRANCH   1   4
ATOM      3  O   UNL     1      34.999 -24.902 -11.410  0.00  0.00    -0.274 OA
ATOM      4  N   UNL     1      34.560 -23.542 -13.228  0.00  0.00    -0.249 N 
ATOM      5  C   UNL     1      35.397 -24.205 -12.344  0.00  0.00    +0.234 C 
ATOM      6  H   UNL     1      34.936 -22.998 -13.958  0.00  0.00    +0.169 HD
BRANCH   5   7
ATOM      7  C   UNL     1      36.898 -23.998 -12.633  0.00  0.00    +0.070 C 
ATOM      8  C   UNL     1      37.085 -23.576 -14.101  0.00  0.00    +0.009 C 
ATOM      9  C   UNL     1      37.665 -25.309 -12.399  0.00  0.00    +0.009 C 
ATOM     10  C   UNL     1      37.460 -22.890 -11.728  0.00  0.00    +0.009 C 
ENDBRANCH   5   7
ENDBRANCH   1   4
BRANCH   1  11
ATOM     11  C   UNL     1      32.663 -24.683 -13.957  0.00  0.00    +0.114 C 
BRANCH  11  12
ATOM     12  C   UNL     1      31.309 -24.316 -14.502  0.00  0.00    -0.005 C 
ATOM     13  C   UNL     1      31.095 -23.037 -14.998  0.00  0.00    -0.003 C 
ATOM     14  C   UNL     1      30.293 -25.261 -14.503  0.00  0.00    -0.003 C 
ATOM     15  C   UNL     1      29.841 -22.696 -15.504  0.00  0.00    -0.000 C 
ATOM     16  C   UNL     1      29.038 -24.921 -15.010  0.00  0.00    -0.000 C 
ATOM     17  C   UNL     1      28.813 -23.638 -15.510  0.00  0.00    -0.000 C 
ENDBRANCH  11  12
ENDBRANCH   1  11
TORSDOF 4
ENDMDL
MODEL 8
REMARK VINA RESULT:      -7.4      6.350      9.120
REMARK  Name = 9375
REMARK  4 active torsions:
REMARK  status: ('A' for Active; 'I' for Inactive)
REMARK    1  A    between atoms: N_1  and  N_4
REMARK    2  A    between atoms: N_1  and  C_11
REMARK    3  A    between atoms: C_5  and  C_7
REMARK    4  A    between atoms: C_11  and  C_12
REMARK                            x       y       z     vdW  Elec       q    Type
REMARK                         _______ _______ _______ _____ _____    ______ ____
ROOT
ATOM      1  N   UNL     1      34.825 -15.117 -22.895  0.00  0.00    -0.226 NA
ATOM      2  H   UNL     1      35.685 -14.755 -23.309  0.00  0.00    +0.145 HD
ENDROOT
BRANCH   1   4
ATOM      3  O   UNL     1      35.062 -16.481 -20.513  0.00  0.00    -0.274 OA
ATOM      4  N   UNL     1      34.899 -16.499 -22.821  0.00  0.00    -0.249 N 
ATOM      5  C   UNL     1      35.017 -17.100 -21.577  0.00  0.00    +0.234 C 
ATOM      6  H   UNL     1      34.868 -17.046 -23.638  0.00  0.00    +0.169 HD
BRANCH   5   7
ATOM      7  C   UNL     1      35.087 -18.641 -21.634  0.00  0.00    +0.070 C 
ATOM      8  C   UNL     1      35.082 -19.100 -23.103  0.00  0.00    +0.009 C 
ATOM      9  C   UNL     1      33.866 -19.249 -20.926  0.00  0.00    +0.009 C 
ATOM     10  C   UNL     1      36.382 -19.133 -20.971  0.00  0.00    +0.009 C 
ENDBRANCH   5   7
ENDBRANCH   1   4
BRANCH   1  11
ATOM     11  C   UNL     1      33.690 -14.717 -23.714  0.00  0.00    +0.114 C 
BRANCH  11  12
ATOM     12  C   UNL     1      33.232 -13.319 -23.395  0.00  0.00    -0.005 C 
ATOM     13  C   UNL     1      32.265 -13.122 -22.420  0.00  0.00    -0.003 C 
ATOM     14  C   UNL     1      33.785 -12.246 -24.080  0.00  0.00    -0.003 C 
ATOM     15  C   UNL     1      31.841 -11.827 -22.123  0.00  0.00    -0.000 C 
ATOM     16  C   UNL     1      33.362 -10.950 -23.784  0.00  0.00    -0.000 C 
ATOM     17  C   UNL     1      32.389 -10.741 -22.805  0.00  0.00    -0.000 C 
ENDBRANCH  11  12
ENDBRANCH   1  11
TORSDOF 4
ENDMDL
MODEL 9
REMARK VINA RESULT:      -7.4      3.057      3.848
REMARK  Name = 9375
REMARK  4 active torsions:
REMARK  status: ('A' for Active; 'I' for Inactive)
REMARK    1  A    between atoms: N_1  and  N_4
REMARK    2  A    between atoms: N_1  and  C_11
REMARK    3  A    between atoms: C_5  and  C_7
REMARK    4  A    between atoms: C_11  and  C_12
REMARK                            x       y       z     vdW  Elec       q    Type
REMARK                         _______ _______ _______ _____ _____    ______ ____
ROOT
ATOM      1  N   UNL     1      35.684 -22.260 -17.661  0.00  0.00    -0.226 NA
ATOM      2  H   UNL     1      36.551 -22.571 -18.102  0.00  0.00    +0.145 HD
ENDROOT
BRANCH   1   4
ATOM      3  O   UNL     1      37.751 -22.937 -15.971  0.00  0.00    -0.274 OA
ATOM      4  N   UNL     1      35.495 -22.959 -16.480  0.00  0.00    -0.249 N 
ATOM      5  C   UNL     1      36.595 -23.256 -15.691  0.00  0.00    +0.234 C 
ATOM      6  H   UNL     1      34.593 -23.241 -16.204  0.00  0.00    +0.169 HD
BRANCH   5   7
ATOM      7  C   UNL     1      36.247 -24.034 -14.404  0.00  0.00    +0.070 C 
ATOM      8  C   UNL     1      34.718 -24.123 -14.257  0.00  0.00    +0.009 C 
ATOM      9  C   UNL     1      36.817 -23.305 -13.178  0.00  0.00    +0.009 C 
ATOM     10  C   UNL     1      36.816 -25.460 -14.482  0.00  0.00    +0.009 C 
ENDBRANCH   5   7
ENDBRANCH   1   4
BRANCH   1  11
ATOM     11  C   UNL     1      34.571 -22.495 -18.569  0.00  0.00    +0.114 C 
BRANCH  11  12
ATOM     12  C   UNL     1      34.391 -21.361 -19.543  0.00  0.00    -0.005 C 
ATOM     13  C   UNL     1      33.112 -20.904 -19.831  0.00  0.00    -0.003 C 
ATOM     14  C   UNL     1      35.505 -20.787 -20.138  0.00  0.00    -0.003 C 
ATOM     15  C   UNL     1      32.945 -19.854 -20.733  0.00  0.00    -0.000 C 
ATOM     16  C   UNL     1      35.339 -19.736 -21.039  0.00  0.00    -0.000 C 
ATOM     17  C   UNL     1      34.057 -19.269 -21.337  0.00  0.00    -0.000 C 
ENDBRANCH  11  12
ENDBRANCH   1  11
TORSDOF 4
ENDMDL
