MODEL 1
REMARK VINA RESULT:      -6.0      0.000      0.000
REMARK  Name = 193653
REMARK  8 active torsions:
REMARK  status: ('A' for Active; 'I' for Inactive)
REMARK    1  A    between atoms: C_1  and  N_2
REMARK    2  A    between atoms: C_1  and  C_7
REMARK    3  A    between atoms: C_1  and  C_10
REMARK    4  A    between atoms: C_7  and  O_8
REMARK    5  A    between atoms: C_10  and  S_11
REMARK    6  A    between atoms: S_11  and  C_12
REMARK    7  A    between atoms: C_12  and  C_14
REMARK    8  A    between atoms: C_14  and  O_15
REMARK                            x       y       z     vdW  Elec       q    Type
REMARK                         _______ _______ _______ _____ _____    ______ ____
ROOT
ATOM      1  C   UNK     1      38.994 -25.096 -14.555  0.00  0.00    +0.047 C 
ENDROOT
BRANCH   1   2
ATOM      2  N   UNK     1      37.875 -25.758 -15.229  0.00  0.00    +0.389 N 
ATOM      3  H   UNK     1      38.216 -26.585 -15.719  0.00  0.00    -0.088 HD
ATOM      4  H   UNK     1      37.453 -25.115 -15.899  0.00  0.00    -0.088 HD
ATOM      5  H   UNK     1      37.178 -26.035 -14.538  0.00  0.00    -0.088 HD
ENDBRANCH   1   2
BRANCH   1   7
ATOM      6  O   UNK     1      40.905 -26.444 -13.938  0.00  0.00    -0.253 OA
ATOM      7  C   UNK     1      40.240 -25.919 -14.823  0.00  0.00    +0.294 C 
BRANCH   7   8
ATOM      8  O   UNK     1      40.576 -25.992 -16.136  0.00  0.00    -0.482 OA
ATOM      9  H   UNK     1      40.545 -26.816 -16.582  0.00  0.00    +0.295 HD
ENDBRANCH   7   8
ENDBRANCH   1   7
BRANCH   1  10
ATOM     10  C   UNK     1      38.700 -24.961 -13.059  0.00  0.00    +0.047 C 
BRANCH  10  11
ATOM     11  S   UNK     1      37.087 -25.680 -12.614  0.00  0.00    -0.130 S 
BRANCH  11  12
ATOM     12  C   UNK     1      36.183 -24.138 -12.351  0.00  0.00    +0.167 C 
BRANCH  12  14
ATOM     13  O   UNK     1      36.335 -24.037  -9.948  0.00  0.00    -0.249 OA
ATOM     14  C   UNK     1      36.591 -23.539 -11.036  0.00  0.00    +0.325 C 
BRANCH  14  15
ATOM     15  O   UNK     1      37.295 -22.388 -11.182  0.00  0.00    -0.480 OA
ATOM     16  H   UNK     1      37.315 -21.951 -12.010  0.00  0.00    +0.295 HD
ENDBRANCH  14  15
ENDBRANCH  12  14
ENDBRANCH  11  12
ENDBRANCH  10  11
ENDBRANCH   1  10
TORSDOF 8
ENDMDL
MODEL 2
REMARK VINA RESULT:      -5.9      1.398      1.710
REMARK  Name = 193653
REMARK  8 active torsions:
REMARK  status: ('A' for Active; 'I' for Inactive)
REMARK    1  A    between atoms: C_1  and  N_2
REMARK    2  A    between atoms: C_1  and  C_7
REMARK    3  A    between atoms: C_1  and  C_10
REMARK    4  A    between atoms: C_7  and  O_8
REMARK    5  A    between atoms: C_10  and  S_11
REMARK    6  A    between atoms: S_11  and  C_12
REMARK    7  A    between atoms: C_12  and  C_14
REMARK    8  A    between atoms: C_14  and  O_15
REMARK                            x       y       z     vdW  Elec       q    Type
REMARK                         _______ _______ _______ _____ _____    ______ ____
ROOT
ATOM      1  C   UNK     1      38.742 -25.725 -14.528  0.00  0.00    +0.047 C 
ENDROOT
BRANCH   1   2
ATOM      2  N   UNK     1      38.810 -26.192 -13.142  0.00  0.00    +0.389 N 
ATOM      3  H   UNK     1      39.742 -26.013 -12.769  0.00  0.00    -0.088 HD
ATOM      4  H   UNK     1      38.617 -27.193 -13.110  0.00  0.00    -0.088 HD
ATOM      5  H   UNK     1      38.118 -25.694 -12.582  0.00  0.00    -0.088 HD
ENDBRANCH   1   2
BRANCH   1   7
ATOM      6  O   UNK     1      40.896 -24.641 -14.338  0.00  0.00    -0.253 OA
ATOM      7  C   UNK     1      40.156 -25.388 -14.965  0.00  0.00    +0.294 C 
BRANCH   7   8
ATOM      8  O   UNK     1      40.518 -25.965 -16.140  0.00  0.00    -0.482 OA
ATOM      9  H   UNK     1      39.909 -25.998 -16.852  0.00  0.00    +0.295 HD
ENDBRANCH   7   8
ENDBRANCH   1   7
BRANCH   1  10
ATOM     10  C   UNK     1      37.802 -24.522 -14.631  0.00  0.00    +0.047 C 
BRANCH  10  11
ATOM     11  S   UNK     1      36.231 -24.807 -13.756  0.00  0.00    -0.130 S 
BRANCH  11  12
ATOM     12  C   UNK     1      36.216 -23.300 -12.760  0.00  0.00    +0.167 C 
BRANCH  12  14
ATOM     13  O   UNK     1      38.240 -22.374 -11.834  0.00  0.00    -0.249 OA
ATOM     14  C   UNK     1      37.421 -23.283 -11.863  0.00  0.00    +0.325 C 
BRANCH  14  15
ATOM     15  O   UNK     1      37.498 -24.382 -11.070  0.00  0.00    -0.480 OA
ATOM     16  H   UNK     1      38.263 -24.923 -11.090  0.00  0.00    +0.295 HD
ENDBRANCH  14  15
ENDBRANCH  12  14
ENDBRANCH  11  12
ENDBRANCH  10  11
ENDBRANCH   1  10
TORSDOF 8
ENDMDL
MODEL 3
REMARK VINA RESULT:      -5.9      1.906      5.279
REMARK  Name = 193653
REMARK  8 active torsions:
REMARK  status: ('A' for Active; 'I' for Inactive)
REMARK    1  A    between atoms: C_1  and  N_2
REMARK    2  A    between atoms: C_1  and  C_7
REMARK    3  A    between atoms: C_1  and  C_10
REMARK    4  A    between atoms: C_7  and  O_8
REMARK    5  A    between atoms: C_10  and  S_11
REMARK    6  A    between atoms: S_11  and  C_12
REMARK    7  A    between atoms: C_12  and  C_14
REMARK    8  A    between atoms: C_14  and  O_15
REMARK                            x       y       z     vdW  Elec       q    Type
REMARK                         _______ _______ _______ _____ _____    ______ ____
ROOT
ATOM      1  C   UNK     1      36.931 -24.450 -12.192  0.00  0.00    +0.047 C 
ENDROOT
BRANCH   1   2
ATOM      2  N   UNK     1      37.845 -23.669 -11.357  0.00  0.00    +0.389 N 
ATOM      3  H   UNK     1      38.595 -24.272 -11.019  0.00  0.00    -0.088 HD
ATOM      4  H   UNK     1      37.334 -23.284 -10.562  0.00  0.00    -0.088 HD
ATOM      5  H   UNK     1      38.242 -22.908 -11.907  0.00  0.00    -0.088 HD
ENDBRANCH   1   2
BRANCH   1   7
ATOM      6  O   UNK     1      35.344 -25.130 -10.497  0.00  0.00    -0.253 OA
ATOM      7  C   UNK     1      35.580 -24.467 -11.500  0.00  0.00    +0.294 C 
BRANCH   7   8
ATOM      8  O   UNK     1      34.641 -23.704 -12.115  0.00  0.00    -0.482 OA
ATOM      9  H   UNK     1      34.814 -22.800 -12.291  0.00  0.00    +0.295 HD
ENDBRANCH   7   8
ENDBRANCH   1   7
BRANCH   1  10
ATOM     10  C   UNK     1      37.489 -25.859 -12.405  0.00  0.00    +0.047 C 
BRANCH  10  11
ATOM     11  S   UNK     1      37.594 -26.292 -14.171  0.00  0.00    -0.130 S 
BRANCH  11  12
ATOM     12  C   UNK     1      38.883 -25.117 -14.646  0.00  0.00    +0.167 C 
BRANCH  12  14
ATOM     13  O   UNK     1      40.843 -26.313 -13.914  0.00  0.00    -0.249 OA
ATOM     14  C   UNK     1      40.180 -25.850 -14.833  0.00  0.00    +0.325 C 
BRANCH  14  15
ATOM     15  O   UNK     1      40.534 -25.962 -16.138  0.00  0.00    -0.480 OA
ATOM     16  H   UNK     1      39.963 -25.643 -16.808  0.00  0.00    +0.295 HD
ENDBRANCH  14  15
ENDBRANCH  12  14
ENDBRANCH  11  12
ENDBRANCH  10  11
ENDBRANCH   1  10
TORSDOF 8
ENDMDL
MODEL 4
REMARK VINA RESULT:      -5.9      2.355      2.676
REMARK  Name = 193653
REMARK  8 active torsions:
REMARK  status: ('A' for Active; 'I' for Inactive)
REMARK    1  A    between atoms: C_1  and  N_2
REMARK    2  A    between atoms: C_1  and  C_7
REMARK    3  A    between atoms: C_1  and  C_10
REMARK    4  A    between atoms: C_7  and  O_8
REMARK    5  A    between atoms: C_10  and  S_11
REMARK    6  A    between atoms: S_11  and  C_12
REMARK    7  A    between atoms: C_12  and  C_14
REMARK    8  A    between atoms: C_14  and  O_15
REMARK                            x       y       z     vdW  Elec       q    Type
REMARK                         _______ _______ _______ _____ _____    ______ ____
ROOT
ATOM      1  C   UNK     1      36.965 -25.399 -14.915  0.00  0.00    +0.047 C 
ENDROOT
BRANCH   1   2
ATOM      2  N   UNK     1      35.504 -25.410 -14.806  0.00  0.00    +0.389 N 
ATOM      3  H   UNK     1      35.212 -24.738 -14.096  0.00  0.00    -0.088 HD
ATOM      4  H   UNK     1      35.191 -26.344 -14.540  0.00  0.00    -0.088 HD
ATOM      5  H   UNK     1      35.094 -25.156 -15.704  0.00  0.00    -0.088 HD
ENDBRANCH   1   2
BRANCH   1   7
ATOM      6  O   UNK     1      38.394 -27.339 -14.704  0.00  0.00    -0.253 OA
ATOM      7  C   UNK     1      37.482 -26.660 -14.248  0.00  0.00    +0.294 C 
BRANCH   7   8
ATOM      8  O   UNK     1      36.817 -26.990 -13.112  0.00  0.00    -0.482 OA
ATOM      9  H   UNK     1      36.729 -26.362 -12.421  0.00  0.00    +0.295 HD
ENDBRANCH   7   8
ENDBRANCH   1   7
BRANCH   1  10
ATOM     10  C   UNK     1      37.529 -24.130 -14.272  0.00  0.00    +0.047 C 
BRANCH  10  11
ATOM     11  S   UNK     1      36.259 -23.215 -13.341  0.00  0.00    -0.130 S 
BRANCH  11  12
ATOM     12  C   UNK     1      36.772 -23.691 -11.674  0.00  0.00    +0.167 C 
BRANCH  12  14
ATOM     13  O   UNK     1      35.498 -24.485  -9.789  0.00  0.00    -0.249 OA
ATOM     14  C   UNK     1      35.653 -24.434 -11.002  0.00  0.00    +0.325 C 
BRANCH  14  15
ATOM     15  O   UNK     1      34.817 -25.033 -11.887  0.00  0.00    -0.480 OA
ATOM     16  H   UNK     1      34.569 -25.928 -11.766  0.00  0.00    +0.295 HD
ENDBRANCH  14  15
ENDBRANCH  12  14
ENDBRANCH  11  12
ENDBRANCH  10  11
ENDBRANCH   1  10
TORSDOF 8
ENDMDL
MODEL 5
REMARK VINA RESULT:      -5.8      2.521      4.909
REMARK  Name = 193653
REMARK  8 active torsions:
REMARK  status: ('A' for Active; 'I' for Inactive)
REMARK    1  A    between atoms: C_1  and  N_2
REMARK    2  A    between atoms: C_1  and  C_7
REMARK    3  A    between atoms: C_1  and  C_10
REMARK    4  A    between atoms: C_7  and  O_8
REMARK    5  A    between atoms: C_10  and  S_11
REMARK    6  A    between atoms: S_11  and  C_12
REMARK    7  A    between atoms: C_12  and  C_14
REMARK    8  A    between atoms: C_14  and  O_15
REMARK                            x       y       z     vdW  Elec       q    Type
REMARK                         _______ _______ _______ _____ _____    ______ ____
ROOT
ATOM      1  C   UNK     1      36.681 -23.340 -11.751  0.00  0.00    +0.047 C 
ENDROOT
BRANCH   1   2
ATOM      2  N   UNK     1      38.048 -23.862 -11.717  0.00  0.00    +0.389 N 
ATOM      3  H   UNK     1      38.025 -24.879 -11.798  0.00  0.00    -0.088 HD
ATOM      4  H   UNK     1      38.490 -23.602 -10.835  0.00  0.00    -0.088 HD
ATOM      5  H   UNK     1      38.581 -23.471 -12.493  0.00  0.00    -0.088 HD
ENDBRANCH   1   2
BRANCH   1   7
ATOM      6  O   UNK     1      35.918 -24.289  -9.661  0.00  0.00    -0.253 OA
ATOM      7  C   UNK     1      35.825 -24.243 -10.881  0.00  0.00    +0.294 C 
BRANCH   7   8
ATOM      8  O   UNK     1      34.967 -25.026 -11.583  0.00  0.00    -0.482 OA
ATOM      9  H   UNK     1      34.338 -25.554 -11.132  0.00  0.00    +0.295 HD
ENDBRANCH   7   8
ENDBRANCH   1   7
BRANCH   1  10
ATOM     10  C   UNK     1      36.177 -23.281 -13.195  0.00  0.00    +0.047 C 
BRANCH  10  11
ATOM     11  S   UNK     1      37.430 -23.870 -14.378  0.00  0.00    -0.130 S 
BRANCH  11  12
ATOM     12  C   UNK     1      36.682 -25.468 -14.768  0.00  0.00    +0.167 C 
BRANCH  12  14
ATOM     13  O   UNK     1      37.070 -26.752 -12.765  0.00  0.00    -0.249 OA
ATOM     14  C   UNK     1      37.335 -26.539 -13.941  0.00  0.00    +0.325 C 
BRANCH  14  15
ATOM     15  O   UNK     1      38.243 -27.261 -14.643  0.00  0.00    -0.480 OA
ATOM     16  H   UNK     1      38.948 -26.828 -15.085  0.00  0.00    +0.295 HD
ENDBRANCH  14  15
ENDBRANCH  12  14
ENDBRANCH  11  12
ENDBRANCH  10  11
ENDBRANCH   1  10
TORSDOF 8
ENDMDL
MODEL 6
REMARK VINA RESULT:      -5.8      1.616      5.145
REMARK  Name = 193653
REMARK  8 active torsions:
REMARK  status: ('A' for Active; 'I' for Inactive)
REMARK    1  A    between atoms: C_1  and  N_2
REMARK    2  A    between atoms: C_1  and  C_7
REMARK    3  A    between atoms: C_1  and  C_10
REMARK    4  A    between atoms: C_7  and  O_8
REMARK    5  A    between atoms: C_10  and  S_11
REMARK    6  A    between atoms: S_11  and  C_12
REMARK    7  A    between atoms: C_12  and  C_14
REMARK    8  A    between atoms: C_14  and  O_15
REMARK                            x       y       z     vdW  Elec       q    Type
REMARK                         _______ _______ _______ _____ _____    ______ ____
ROOT
ATOM      1  C   UNK     1      36.656 -24.457 -12.291  0.00  0.00    +0.047 C 
ENDROOT
BRANCH   1   2
ATOM      2  N   UNK     1      35.253 -24.783 -12.554  0.00  0.00    +0.389 N 
ATOM      3  H   UNK     1      34.668 -23.984 -12.310  0.00  0.00    -0.088 HD
ATOM      4  H   UNK     1      34.980 -25.589 -11.991  0.00  0.00    -0.088 HD
ATOM      5  H   UNK     1      35.134 -25.002 -13.543  0.00  0.00    -0.088 HD
ENDBRANCH   1   2
BRANCH   1   7
ATOM      6  O   UNK     1      36.247 -24.044  -9.943  0.00  0.00    -0.253 OA
ATOM      7  C   UNK     1      36.704 -23.648 -11.008  0.00  0.00    +0.294 C 
BRANCH   7   8
ATOM      8  O   UNK     1      37.270 -22.423 -11.154  0.00  0.00    -0.482 OA
ATOM      9  H   UNK     1      37.588 -22.151 -11.993  0.00  0.00    +0.295 HD
ENDBRANCH   7   8
ENDBRANCH   1   7
BRANCH   1  10
ATOM     10  C   UNK     1      37.248 -23.694 -13.479  0.00  0.00    +0.047 C 
BRANCH  10  11
ATOM     11  S   UNK     1      37.532 -24.780 -14.913  0.00  0.00    -0.130 S 
BRANCH  11  12
ATOM     12  C   UNK     1      38.870 -25.776 -14.219  0.00  0.00    +0.167 C 
BRANCH  12  14
ATOM     13  O   UNK     1      40.975 -24.605 -14.318  0.00  0.00    -0.249 OA
ATOM     14  C   UNK     1      40.172 -25.365 -14.845  0.00  0.00    +0.325 C 
BRANCH  14  15
ATOM     15  O   UNK     1      40.376 -25.941 -16.056  0.00  0.00    -0.480 OA
ATOM     16  H   UNK     1      39.863 -25.675 -16.794  0.00  0.00    +0.295 HD
ENDBRANCH  14  15
ENDBRANCH  12  14
ENDBRANCH  11  12
ENDBRANCH  10  11
ENDBRANCH   1  10
TORSDOF 8
ENDMDL
MODEL 7
REMARK VINA RESULT:      -5.7      2.597      2.884
REMARK  Name = 193653
REMARK  8 active torsions:
REMARK  status: ('A' for Active; 'I' for Inactive)
REMARK    1  A    between atoms: C_1  and  N_2
REMARK    2  A    between atoms: C_1  and  C_7
REMARK    3  A    between atoms: C_1  and  C_10
REMARK    4  A    between atoms: C_7  and  O_8
REMARK    5  A    between atoms: C_10  and  S_11
REMARK    6  A    between atoms: S_11  and  C_12
REMARK    7  A    between atoms: C_12  and  C_14
REMARK    8  A    between atoms: C_14  and  O_15
REMARK                            x       y       z     vdW  Elec       q    Type
REMARK                         _______ _______ _______ _____ _____    ______ ____
ROOT
ATOM      1  C   UNK     1      37.845 -26.368 -14.501  0.00  0.00    +0.047 C 
ENDROOT
BRANCH   1   2
ATOM      2  N   UNK     1      38.684 -25.247 -14.930  0.00  0.00    +0.389 N 
ATOM      3  H   UNK     1      38.141 -24.628 -15.533  0.00  0.00    -0.088 HD
ATOM      4  H   UNK     1      39.490 -25.602 -15.444  0.00  0.00    -0.088 HD
ATOM      5  H   UNK     1      39.004 -24.729 -14.111  0.00  0.00    -0.088 HD
ENDBRANCH   1   2
BRANCH   1   7
ATOM      6  O   UNK     1      35.664 -25.702 -15.309  0.00  0.00    -0.253 OA
ATOM      7  C   UNK     1      36.647 -26.423 -15.431  0.00  0.00    +0.294 C 
BRANCH   7   8
ATOM      8  O   UNK     1      36.746 -27.373 -16.395  0.00  0.00    -0.482 OA
ATOM      9  H   UNK     1      37.006 -28.245 -16.169  0.00  0.00    +0.295 HD
ENDBRANCH   7   8
ENDBRANCH   1   7
BRANCH   1  10
ATOM     10  C   UNK     1      37.434 -26.187 -13.038  0.00  0.00    +0.047 C 
BRANCH  10  11
ATOM     11  S   UNK     1      38.011 -24.598 -12.361  0.00  0.00    -0.130 S 
BRANCH  11  12
ATOM     12  C   UNK     1      36.441 -23.706 -12.428  0.00  0.00    +0.167 C 
BRANCH  12  14
ATOM     13  O   UNK     1      35.404 -24.968 -10.656  0.00  0.00    -0.249 OA
ATOM     14  C   UNK     1      35.364 -24.545 -11.805  0.00  0.00    +0.325 C 
BRANCH  14  15
ATOM     15  O   UNK     1      34.325 -24.775 -12.647  0.00  0.00    -0.480 OA
ATOM     16  H   UNK     1      33.457 -24.523 -12.402  0.00  0.00    +0.295 HD
ENDBRANCH  14  15
ENDBRANCH  12  14
ENDBRANCH  11  12
ENDBRANCH  10  11
ENDBRANCH   1  10
TORSDOF 8
ENDMDL
MODEL 8
REMARK VINA RESULT:      -5.4      2.640      2.949
REMARK  Name = 193653
REMARK  8 active torsions:
REMARK  status: ('A' for Active; 'I' for Inactive)
REMARK    1  A    between atoms: C_1  and  N_2
REMARK    2  A    between atoms: C_1  and  C_7
REMARK    3  A    between atoms: C_1  and  C_10
REMARK    4  A    between atoms: C_7  and  O_8
REMARK    5  A    between atoms: C_10  and  S_11
REMARK    6  A    between atoms: S_11  and  C_12
REMARK    7  A    between atoms: C_12  and  C_14
REMARK    8  A    between atoms: C_14  and  O_15
REMARK                            x       y       z     vdW  Elec       q    Type
REMARK                         _______ _______ _______ _____ _____    ______ ____
ROOT
ATOM      1  C   UNK     1      38.749 -25.713 -14.402  0.00  0.00    +0.047 C 
ENDROOT
BRANCH   1   2
ATOM      2  N   UNK     1      37.995 -26.961 -14.272  0.00  0.00    +0.389 N 
ATOM      3  H   UNK     1      37.032 -26.809 -14.574  0.00  0.00    -0.088 HD
ATOM      4  H   UNK     1      38.002 -27.263 -13.298  0.00  0.00    -0.088 HD
ATOM      5  H   UNK     1      38.424 -27.681 -14.854  0.00  0.00    -0.088 HD
ENDBRANCH   1   2
BRANCH   1   7
ATOM      6  O   UNK     1      41.005 -26.445 -13.924  0.00  0.00    -0.253 OA
ATOM      7  C   UNK     1      40.180 -26.080 -14.753  0.00  0.00    +0.294 C 
BRANCH   7   8
ATOM      8  O   UNK     1      40.476 -25.931 -16.069  0.00  0.00    -0.482 OA
ATOM      9  H   UNK     1      40.500 -25.075 -16.450  0.00  0.00    +0.295 HD
ENDBRANCH   7   8
ENDBRANCH   1   7
BRANCH   1  10
ATOM     10  C   UNK     1      38.659 -24.908 -13.104  0.00  0.00    +0.047 C 
BRANCH  10  11
ATOM     11  S   UNK     1      37.078 -24.015 -12.964  0.00  0.00    -0.130 S 
BRANCH  11  12
ATOM     12  C   UNK     1      36.835 -23.649 -14.717  0.00  0.00    +0.167 C 
BRANCH  12  14
ATOM     13  O   UNK     1      34.972 -24.000 -16.205  0.00  0.00    -0.249 OA
ATOM     14  C   UNK     1      35.586 -24.330 -15.199  0.00  0.00    +0.325 C 
BRANCH  14  15
ATOM     15  O   UNK     1      35.216 -25.367 -14.406  0.00  0.00    -0.480 OA
ATOM     16  H   UNK     1      34.623 -26.016 -14.729  0.00  0.00    +0.295 HD
ENDBRANCH  14  15
ENDBRANCH  12  14
ENDBRANCH  11  12
ENDBRANCH  10  11
ENDBRANCH   1  10
TORSDOF 8
ENDMDL
MODEL 9
REMARK VINA RESULT:      -5.4      2.873      5.251
REMARK  Name = 193653
REMARK  8 active torsions:
REMARK  status: ('A' for Active; 'I' for Inactive)
REMARK    1  A    between atoms: C_1  and  N_2
REMARK    2  A    between atoms: C_1  and  C_7
REMARK    3  A    between atoms: C_1  and  C_10
REMARK    4  A    between atoms: C_7  and  O_8
REMARK    5  A    between atoms: C_10  and  S_11
REMARK    6  A    between atoms: S_11  and  C_12
REMARK    7  A    between atoms: C_12  and  C_14
REMARK    8  A    between atoms: C_14  and  O_15
REMARK                            x       y       z     vdW  Elec       q    Type
REMARK                         _______ _______ _______ _____ _____    ______ ____
ROOT
ATOM      1  C   UNK     1      36.003 -24.169 -12.537  0.00  0.00    +0.047 C 
ENDROOT
BRANCH   1   2
ATOM      2  N   UNK     1      34.644 -23.742 -12.877  0.00  0.00    +0.389 N 
ATOM      3  H   UNK     1      34.666 -22.782 -13.219  0.00  0.00    -0.088 HD
ATOM      4  H   UNK     1      34.054 -23.793 -12.046  0.00  0.00    -0.088 HD
ATOM      5  H   UNK     1      34.267 -24.353 -13.601  0.00  0.00    -0.088 HD
ENDBRANCH   1   2
BRANCH   1   7
ATOM      6  O   UNK     1      36.973 -23.279 -10.507  0.00  0.00    -0.253 OA
ATOM      7  C   UNK     1      36.162 -24.031 -11.033  0.00  0.00    +0.294 C 
BRANCH   7   8
ATOM      8  O   UNK     1      35.345 -24.847 -10.320  0.00  0.00    -0.482 OA
ATOM      9  H   UNK     1      35.405 -24.868  -9.385  0.00  0.00    +0.295 HD
ENDBRANCH   7   8
ENDBRANCH   1   7
BRANCH   1  10
ATOM     10  C   UNK     1      37.025 -23.329 -13.306  0.00  0.00    +0.047 C 
BRANCH  10  11
ATOM     11  S   UNK     1      37.196 -23.878 -15.034  0.00  0.00    -0.130 S 
BRANCH  11  12
ATOM     12  C   UNK     1      37.593 -25.612 -14.713  0.00  0.00    +0.167 C 
BRANCH  12  14
ATOM     13  O   UNK     1      36.841 -27.370 -16.181  0.00  0.00    -0.249 OA
ATOM     14  C   UNK     1      36.569 -26.488 -15.377  0.00  0.00    +0.325 C 
BRANCH  14  15
ATOM     15  O   UNK     1      35.303 -26.209 -14.976  0.00  0.00    -0.480 OA
ATOM     16  H   UNK     1      34.632 -26.057 -15.612  0.00  0.00    +0.295 HD
ENDBRANCH  14  15
ENDBRANCH  12  14
ENDBRANCH  11  12
ENDBRANCH  10  11
ENDBRANCH   1  10
TORSDOF 8
ENDMDL
