MODEL 1
REMARK VINA RESULT:      -9.5      0.000      0.000
REMARK  Name = 5289232
REMARK  8 active torsions:
REMARK  status: ('A' for Active; 'I' for Inactive)
REMARK    1  A    between atoms: N_2  and  C_14
REMARK    2  A    between atoms: C_6  and  C_19
REMARK    3  A    between atoms: C_14  and  C_15
REMARK    4  A    between atoms: C_15  and  C_16
REMARK    5  A    between atoms: C_16  and  C_17
REMARK    6  A    between atoms: C_19  and  C_20
REMARK    7  A    between atoms: C_21  and  O_26
REMARK    8  A    between atoms: C_23  and  O_28
REMARK                            x       y       z     vdW  Elec       q    Type
REMARK                         _______ _______ _______ _____ _____    ______ ____
ROOT
ATOM      1  F   UNL     1      33.720  -6.824 -23.322  0.00  0.00    -0.098 F 
ATOM      2  N   UNL     1      32.385 -11.287 -22.790  0.00  0.00    -0.238 N 
ATOM      3  N   UNL     1      33.946 -12.103 -24.157  0.00  0.00    -0.383 NA
ATOM      4  N   UNL     1      32.914  -8.919 -22.921  0.00  0.00    -0.299 NA
ATOM      5  N   UNL     1      34.807  -8.514 -24.406  0.00  0.00    -0.300 NA
ATOM      6  C   UNL     1      32.931 -12.400 -23.371  0.00  0.00    +0.170 C 
ATOM      7  C   UNL     1      33.100 -10.210 -23.234  0.00  0.00    +0.237 C 
ATOM      8  C   UNL     1      34.062 -10.737 -24.081  0.00  0.00    +0.222 C 
ATOM      9  C   UNL     1      34.937  -9.835 -24.678  0.00  0.00    +0.225 C 
ATOM     10  C   UNL     1      33.818  -8.144 -23.558  0.00  0.00    +0.300 C 
ATOM     11  N   UNL     1      35.945 -10.283 -25.548  0.00  0.00    -0.330 N 
ATOM     12  H   UNL     1      36.559  -9.636 -25.965  0.00  0.00    +0.145 HD
ATOM     13  H   UNL     1      36.038 -11.244 -25.742  0.00  0.00    +0.145 HD
ENDROOT
BRANCH   2  14
ATOM     14  C   UNL     1      31.267 -11.250 -21.877  0.00  0.00    +0.101 C 
BRANCH  14  15
ATOM     15  C   UNL     1      31.655 -11.728 -20.475  0.00  0.00    +0.036 C 
BRANCH  15  16
ATOM     16  C   UNL     1      31.223 -10.754 -19.379  0.00  0.00    +0.079 C 
BRANCH  16  17
ATOM     17  C   UNL     1      31.733  -9.395 -19.609  0.00  0.00    -0.078 C 
ATOM     18  C   UNL     1      32.149  -8.284 -19.794  0.00  0.00    -0.014 C 
ENDBRANCH  16  17
ENDBRANCH  15  16
ENDBRANCH  14  15
ENDBRANCH   2  14
BRANCH   6  19
ATOM     19  C   UNL     1      32.408 -13.757 -23.112  0.00  0.00    +0.105 C 
BRANCH  19  20
ATOM     20  C   UNL     1      33.333 -14.874 -23.578  0.00  0.00    +0.023 C 
ATOM     21  C   UNL     1      33.355 -15.233 -24.909  0.00  0.00    +0.135 C 
ATOM     22  C   UNL     1      34.128 -15.497 -22.636  0.00  0.00    +0.036 C 
ATOM     23  C   UNL     1      34.980 -16.524 -23.045  0.00  0.00    +0.139 C 
ATOM     24  C   UNL     1      34.207 -16.259 -25.318  0.00  0.00    +0.040 C 
ATOM     25  C   UNL     1      35.020 -16.903 -24.387  0.00  0.00    +0.040 C 
BRANCH  21  26
ATOM     26  O   UNL     1      32.567 -14.614 -25.834  0.00  0.00    -0.472 OA
ATOM     27  C   UNL     1      33.221 -14.052 -26.969  0.00  0.00    +0.252 C 
ENDBRANCH  21  26
BRANCH  23  28
ATOM     28  O   UNL     1      35.774 -17.152 -22.135  0.00  0.00    -0.471 OA
ATOM     29  C   UNL     1      35.664 -18.571 -22.047  0.00  0.00    +0.252 C 
ENDBRANCH  23  28
ENDBRANCH  19  20
ENDBRANCH   6  19
TORSDOF 8
ENDMDL
MODEL 2
REMARK VINA RESULT:      -9.2      1.250      2.176
REMARK  Name = 5289232
REMARK  8 active torsions:
REMARK  status: ('A' for Active; 'I' for Inactive)
REMARK    1  A    between atoms: N_2  and  C_14
REMARK    2  A    between atoms: C_6  and  C_19
REMARK    3  A    between atoms: C_14  and  C_15
REMARK    4  A    between atoms: C_15  and  C_16
REMARK    5  A    between atoms: C_16  and  C_17
REMARK    6  A    between atoms: C_19  and  C_20
REMARK    7  A    between atoms: C_21  and  O_26
REMARK    8  A    between atoms: C_23  and  O_28
REMARK                            x       y       z     vdW  Elec       q    Type
REMARK                         _______ _______ _______ _____ _____    ______ ____
ROOT
ATOM      1  F   UNL     1      33.877  -6.907 -23.262  0.00  0.00    -0.098 F 
ATOM      2  N   UNL     1      32.381 -11.334 -22.875  0.00  0.00    -0.238 N 
ATOM      3  N   UNL     1      33.889 -12.156 -24.295  0.00  0.00    -0.383 NA
ATOM      4  N   UNL     1      32.997  -8.984 -22.926  0.00  0.00    -0.299 NA
ATOM      5  N   UNL     1      34.883  -8.595 -24.425  0.00  0.00    -0.300 NA
ATOM      6  C   UNL     1      32.876 -12.444 -23.505  0.00  0.00    +0.170 C 
ATOM      7  C   UNL     1      33.129 -10.269 -23.290  0.00  0.00    +0.237 C 
ATOM      8  C   UNL     1      34.058 -10.799 -24.170  0.00  0.00    +0.222 C 
ATOM      9  C   UNL     1      34.958  -9.909 -24.747  0.00  0.00    +0.225 C 
ATOM     10  C   UNL     1      33.921  -8.220 -23.548  0.00  0.00    +0.300 C 
ATOM     11  N   UNL     1      35.936 -10.361 -25.649  0.00  0.00    -0.330 N 
ATOM     12  H   UNL     1      36.568  -9.722 -26.052  0.00  0.00    +0.145 HD
ATOM     13  H   UNL     1      35.990 -11.318 -25.880  0.00  0.00    +0.145 HD
ENDROOT
BRANCH   2  14
ATOM     14  C   UNL     1      31.278 -11.289 -21.944  0.00  0.00    +0.101 C 
BRANCH  14  15
ATOM     15  C   UNL     1      31.733 -11.539 -20.503  0.00  0.00    +0.036 C 
BRANCH  15  16
ATOM     16  C   UNL     1      31.168 -10.514 -19.520  0.00  0.00    +0.079 C 
BRANCH  16  17
ATOM     17  C   UNL     1      31.779  -9.188 -19.686  0.00  0.00    -0.078 C 
ATOM     18  C   UNL     1      32.281  -8.105 -19.821  0.00  0.00    -0.014 C 
ENDBRANCH  16  17
ENDBRANCH  15  16
ENDBRANCH  14  15
ENDBRANCH   2  14
BRANCH   6  19
ATOM     19  C   UNL     1      32.305 -13.789 -23.288  0.00  0.00    +0.105 C 
BRANCH  19  20
ATOM     20  C   UNL     1      33.348 -14.895 -23.202  0.00  0.00    +0.023 C 
ATOM     21  C   UNL     1      33.966 -15.158 -21.997  0.00  0.00    +0.135 C 
ATOM     22  C   UNL     1      33.643 -15.605 -24.348  0.00  0.00    +0.036 C 
ATOM     23  C   UNL     1      34.597 -16.621 -24.287  0.00  0.00    +0.139 C 
ATOM     24  C   UNL     1      34.920 -16.174 -21.935  0.00  0.00    +0.040 C 
ATOM     25  C   UNL     1      35.235 -16.906 -23.079  0.00  0.00    +0.040 C 
BRANCH  21  26
ATOM     26  O   UNL     1      33.671 -14.453 -20.868  0.00  0.00    -0.472 OA
ATOM     27  C   UNL     1      32.677 -15.000 -20.005  0.00  0.00    +0.252 C 
ENDBRANCH  21  26
BRANCH  23  28
ATOM     28  O   UNL     1      34.903 -17.335 -25.404  0.00  0.00    -0.471 OA
ATOM     29  C   UNL     1      34.523 -18.710 -25.421  0.00  0.00    +0.252 C 
ENDBRANCH  23  28
ENDBRANCH  19  20
ENDBRANCH   6  19
TORSDOF 8
ENDMDL
MODEL 3
REMARK VINA RESULT:      -9.1     11.117     14.167
REMARK  Name = 5289232
REMARK  8 active torsions:
REMARK  status: ('A' for Active; 'I' for Inactive)
REMARK    1  A    between atoms: N_2  and  C_14
REMARK    2  A    between atoms: C_6  and  C_19
REMARK    3  A    between atoms: C_14  and  C_15
REMARK    4  A    between atoms: C_15  and  C_16
REMARK    5  A    between atoms: C_16  and  C_17
REMARK    6  A    between atoms: C_19  and  C_20
REMARK    7  A    between atoms: C_21  and  O_26
REMARK    8  A    between atoms: C_23  and  O_28
REMARK                            x       y       z     vdW  Elec       q    Type
REMARK                         _______ _______ _______ _____ _____    ______ ____
ROOT
ATOM      1  F   UNL     1      32.754 -21.076 -20.500  0.00  0.00    -0.098 F 
ATOM      2  N   UNL     1      33.225 -23.494 -16.510  0.00  0.00    -0.238 N 
ATOM      3  N   UNL     1      35.434 -23.218 -16.395  0.00  0.00    -0.383 NA
ATOM      4  N   UNL     1      32.760 -22.280 -18.562  0.00  0.00    -0.299 NA
ATOM      5  N   UNL     1      34.801 -21.356 -19.528  0.00  0.00    -0.300 NA
ATOM      6  C   UNL     1      34.377 -23.748 -15.815  0.00  0.00    +0.170 C 
ATOM      7  C   UNL     1      33.571 -22.754 -17.605  0.00  0.00    +0.237 C 
ATOM      8  C   UNL     1      34.945 -22.594 -17.516  0.00  0.00    +0.222 C 
ATOM      9  C   UNL     1      35.560 -21.864 -18.527  0.00  0.00    +0.225 C 
ATOM     10  C   UNL     1      33.468 -21.593 -19.484  0.00  0.00    +0.300 C 
ATOM     11  N   UNL     1      36.949 -21.651 -18.515  0.00  0.00    -0.330 N 
ATOM     12  H   UNL     1      37.374 -21.133 -19.236  0.00  0.00    +0.145 HD
ATOM     13  H   UNL     1      37.498 -22.020 -17.785  0.00  0.00    +0.145 HD
ENDROOT
BRANCH   2  14
ATOM     14  C   UNL     1      31.892 -23.922 -16.158  0.00  0.00    +0.101 C 
BRANCH  14  15
ATOM     15  C   UNL     1      31.111 -22.826 -15.429  0.00  0.00    +0.036 C 
BRANCH  15  16
ATOM     16  C   UNL     1      29.776 -23.322 -14.873  0.00  0.00    +0.079 C 
BRANCH  16  17
ATOM     17  C   UNL     1      28.630 -22.815 -15.642  0.00  0.00    -0.078 C 
ATOM     18  C   UNL     1      27.695 -22.403 -16.272  0.00  0.00    -0.014 C 
ENDBRANCH  16  17
ENDBRANCH  15  16
ENDBRANCH  14  15
ENDBRANCH   2  14
BRANCH   6  19
ATOM     19  C   UNL     1      34.381 -24.529 -14.561  0.00  0.00    +0.105 C 
BRANCH  19  20
ATOM     20  C   UNL     1      35.775 -24.830 -14.026  0.00  0.00    +0.023 C 
ATOM     21  C   UNL     1      36.054 -24.622 -12.692  0.00  0.00    +0.135 C 
ATOM     22  C   UNL     1      36.722 -25.308 -14.909  0.00  0.00    +0.036 C 
ATOM     23  C   UNL     1      38.005 -25.588 -14.436  0.00  0.00    +0.139 C 
ATOM     24  C   UNL     1      37.337 -24.902 -12.219  0.00  0.00    +0.040 C 
ATOM     25  C   UNL     1      38.311 -25.386 -13.090  0.00  0.00    +0.040 C 
BRANCH  21  26
ATOM     26  O   UNL     1      35.114 -24.150 -11.825  0.00  0.00    -0.472 OA
ATOM     27  C   UNL     1      35.395 -24.276 -10.433  0.00  0.00    +0.252 C 
ENDBRANCH  21  26
BRANCH  23  28
ATOM     28  O   UNL     1      38.955 -26.061 -15.288  0.00  0.00    -0.471 OA
ATOM     29  C   UNL     1      40.311 -25.718 -15.005  0.00  0.00    +0.252 C 
ENDBRANCH  23  28
ENDBRANCH  19  20
ENDBRANCH   6  19
TORSDOF 8
ENDMDL
MODEL 4
REMARK VINA RESULT:      -9.1      8.986     12.535
REMARK  Name = 5289232
REMARK  8 active torsions:
REMARK  status: ('A' for Active; 'I' for Inactive)
REMARK    1  A    between atoms: N_2  and  C_14
REMARK    2  A    between atoms: C_6  and  C_19
REMARK    3  A    between atoms: C_14  and  C_15
REMARK    4  A    between atoms: C_15  and  C_16
REMARK    5  A    between atoms: C_16  and  C_17
REMARK    6  A    between atoms: C_19  and  C_20
REMARK    7  A    between atoms: C_21  and  O_26
REMARK    8  A    between atoms: C_23  and  O_28
REMARK                            x       y       z     vdW  Elec       q    Type
REMARK                         _______ _______ _______ _____ _____    ______ ____
ROOT
ATOM      1  F   UNL     1      36.701 -18.666 -21.504  0.00  0.00    -0.098 F 
ATOM      2  N   UNL     1      35.370 -21.968 -18.452  0.00  0.00    -0.238 N 
ATOM      3  N   UNL     1      33.231 -21.937 -19.079  0.00  0.00    -0.383 NA
ATOM      4  N   UNL     1      36.269 -20.284 -19.955  0.00  0.00    -0.299 NA
ATOM      5  N   UNL     1      34.528 -19.361 -21.394  0.00  0.00    -0.300 NA
ATOM      6  C   UNL     1      34.114 -22.482 -18.268  0.00  0.00    +0.170 C 
ATOM      7  C   UNL     1      35.281 -21.036 -19.447  0.00  0.00    +0.237 C 
ATOM      8  C   UNL     1      33.946 -21.031 -19.821  0.00  0.00    +0.222 C 
ATOM      9  C   UNL     1      33.581 -20.151 -20.835  0.00  0.00    +0.225 C 
ATOM     10  C   UNL     1      35.794 -19.474 -20.926  0.00  0.00    +0.300 C 
ATOM     11  N   UNL     1      32.249 -20.082 -21.279  0.00  0.00    -0.330 N 
ATOM     12  H   UNL     1      32.001 -19.456 -21.997  0.00  0.00    +0.145 HD
ATOM     13  H   UNL     1      31.563 -20.660 -20.871  0.00  0.00    +0.145 HD
ENDROOT
BRANCH   2  14
ATOM     14  C   UNL     1      36.569 -22.339 -17.738  0.00  0.00    +0.101 C 
BRANCH  14  15
ATOM     15  C   UNL     1      36.484 -21.983 -16.251  0.00  0.00    +0.036 C 
BRANCH  15  16
ATOM     16  C   UNL     1      37.530 -22.713 -15.409  0.00  0.00    +0.079 C 
BRANCH  16  17
ATOM     17  C   UNL     1      37.194 -24.130 -15.209  0.00  0.00    -0.078 C 
ATOM     18  C   UNL     1      36.920 -25.287 -15.048  0.00  0.00    -0.014 C 
ENDBRANCH  16  17
ENDBRANCH  15  16
ENDBRANCH  14  15
ENDBRANCH   2  14
BRANCH   6  19
ATOM     19  C   UNL     1      33.835 -23.529 -17.264  0.00  0.00    +0.105 C 
BRANCH  19  20
ATOM     20  C   UNL     1      32.609 -23.248 -16.404  0.00  0.00    +0.023 C 
ATOM     21  C   UNL     1      32.724 -23.251 -15.030  0.00  0.00    +0.135 C 
ATOM     22  C   UNL     1      31.410 -22.997 -17.041  0.00  0.00    +0.036 C 
ATOM     23  C   UNL     1      30.277 -22.739 -16.268  0.00  0.00    +0.139 C 
ATOM     24  C   UNL     1      31.591 -22.992 -14.258  0.00  0.00    +0.040 C 
ATOM     25  C   UNL     1      30.369 -22.736 -14.876  0.00  0.00    +0.040 C 
BRANCH  21  26
ATOM     26  O   UNL     1      33.911 -23.500 -14.408  0.00  0.00    -0.472 OA
ATOM     27  C   UNL     1      33.860 -24.226 -13.182  0.00  0.00    +0.252 C 
ENDBRANCH  21  26
BRANCH  23  28
ATOM     28  O   UNL     1      29.084 -22.488 -16.873  0.00  0.00    -0.471 OA
ATOM     29  C   UNL     1      27.922 -22.493 -16.047  0.00  0.00    +0.252 C 
ENDBRANCH  23  28
ENDBRANCH  19  20
ENDBRANCH   6  19
TORSDOF 8
ENDMDL
MODEL 5
REMARK VINA RESULT:      -8.7      3.610      6.122
REMARK  Name = 5289232
REMARK  8 active torsions:
REMARK  status: ('A' for Active; 'I' for Inactive)
REMARK    1  A    between atoms: N_2  and  C_14
REMARK    2  A    between atoms: C_6  and  C_19
REMARK    3  A    between atoms: C_14  and  C_15
REMARK    4  A    between atoms: C_15  and  C_16
REMARK    5  A    between atoms: C_16  and  C_17
REMARK    6  A    between atoms: C_19  and  C_20
REMARK    7  A    between atoms: C_21  and  O_26
REMARK    8  A    between atoms: C_23  and  O_28
REMARK                            x       y       z     vdW  Elec       q    Type
REMARK                         _______ _______ _______ _____ _____    ______ ____
ROOT
ATOM      1  F   UNL     1      36.052 -18.331 -20.776  0.00  0.00    -0.098 F 
ATOM      2  N   UNL     1      33.853 -14.584 -22.541  0.00  0.00    -0.238 N 
ATOM      3  N   UNL     1      33.622 -15.457 -24.578  0.00  0.00    -0.383 NA
ATOM      4  N   UNL     1      34.999 -16.416 -21.430  0.00  0.00    -0.299 NA
ATOM      5  N   UNL     1      35.366 -18.286 -22.954  0.00  0.00    -0.300 NA
ATOM      6  C   UNL     1      33.389 -14.409 -23.817  0.00  0.00    +0.170 C 
ATOM      7  C   UNL     1      34.419 -15.827 -22.486  0.00  0.00    +0.237 C 
ATOM      8  C   UNL     1      34.266 -16.351 -23.760  0.00  0.00    +0.222 C 
ATOM      9  C   UNL     1      34.767 -17.631 -23.977  0.00  0.00    +0.225 C 
ATOM     10  C   UNL     1      35.444 -17.647 -21.761  0.00  0.00    +0.300 C 
ATOM     11  N   UNL     1      34.653 -18.241 -25.238  0.00  0.00    -0.330 N 
ATOM     12  H   UNL     1      35.011 -19.147 -25.380  0.00  0.00    +0.145 HD
ATOM     13  H   UNL     1      34.215 -17.762 -25.979  0.00  0.00    +0.145 HD
ENDROOT
BRANCH   2  14
ATOM     14  C   UNL     1      33.764 -13.640 -21.451  0.00  0.00    +0.101 C 
BRANCH  14  15
ATOM     15  C   UNL     1      32.363 -13.609 -20.833  0.00  0.00    +0.036 C 
BRANCH  15  16
ATOM     16  C   UNL     1      31.633 -12.292 -21.093  0.00  0.00    +0.079 C 
BRANCH  16  17
ATOM     17  C   UNL     1      31.532 -11.463 -19.884  0.00  0.00    -0.078 C 
ATOM     18  C   UNL     1      31.448 -10.784 -18.897  0.00  0.00    -0.014 C 
ENDBRANCH  16  17
ENDBRANCH  15  16
ENDBRANCH  14  15
ENDBRANCH   2  14
BRANCH   6  19
ATOM     19  C   UNL     1      32.708 -13.168 -24.240  0.00  0.00    +0.105 C 
BRANCH  19  20
ATOM     20  C   UNL     1      33.648 -12.106 -24.794  0.00  0.00    +0.023 C 
ATOM     21  C   UNL     1      34.119 -12.218 -26.086  0.00  0.00    +0.135 C 
ATOM     22  C   UNL     1      34.001 -11.055 -23.972  0.00  0.00    +0.036 C 
ATOM     23  C   UNL     1      34.863 -10.074 -24.464  0.00  0.00    +0.139 C 
ATOM     24  C   UNL     1      34.981 -11.237 -26.577  0.00  0.00    +0.040 C 
ATOM     25  C   UNL     1      35.352 -10.166 -25.767  0.00  0.00    +0.040 C 
BRANCH  21  26
ATOM     26  O   UNL     1      33.767 -13.259 -26.892  0.00  0.00    -0.472 OA
ATOM     27  C   UNL     1      32.496 -13.179 -27.535  0.00  0.00    +0.252 C 
ENDBRANCH  21  26
BRANCH  23  28
ATOM     28  O   UNL     1      35.225  -9.028 -23.672  0.00  0.00    -0.471 OA
ATOM     29  C   UNL     1      34.436  -7.842 -23.761  0.00  0.00    +0.252 C 
ENDBRANCH  23  28
ENDBRANCH  19  20
ENDBRANCH   6  19
TORSDOF 8
ENDMDL
MODEL 6
REMARK VINA RESULT:      -8.7     10.784     13.812
REMARK  Name = 5289232
REMARK  8 active torsions:
REMARK  status: ('A' for Active; 'I' for Inactive)
REMARK    1  A    between atoms: N_2  and  C_14
REMARK    2  A    between atoms: C_6  and  C_19
REMARK    3  A    between atoms: C_14  and  C_15
REMARK    4  A    between atoms: C_15  and  C_16
REMARK    5  A    between atoms: C_16  and  C_17
REMARK    6  A    between atoms: C_19  and  C_20
REMARK    7  A    between atoms: C_21  and  O_26
REMARK    8  A    between atoms: C_23  and  O_28
REMARK                            x       y       z     vdW  Elec       q    Type
REMARK                         _______ _______ _______ _____ _____    ______ ____
ROOT
ATOM      1  F   UNL     1      32.627 -20.852 -20.755  0.00  0.00    -0.098 F 
ATOM      2  N   UNL     1      33.154 -23.244 -16.757  0.00  0.00    -0.238 N 
ATOM      3  N   UNL     1      35.374 -23.047 -16.723  0.00  0.00    -0.383 NA
ATOM      4  N   UNL     1      32.659 -22.035 -18.805  0.00  0.00    -0.299 NA
ATOM      5  N   UNL     1      34.697 -21.195 -19.852  0.00  0.00    -0.300 NA
ATOM      6  C   UNL     1      34.320 -23.532 -16.099  0.00  0.00    +0.170 C 
ATOM      7  C   UNL     1      33.487 -22.527 -17.871  0.00  0.00    +0.237 C 
ATOM      8  C   UNL     1      34.868 -22.417 -17.832  0.00  0.00    +0.222 C 
ATOM      9  C   UNL     1      35.472 -21.720 -18.874  0.00  0.00    +0.225 C 
ATOM     10  C   UNL     1      33.358 -21.383 -19.759  0.00  0.00    +0.300 C 
ATOM     11  N   UNL     1      36.868 -21.557 -18.913  0.00  0.00    -0.330 N 
ATOM     12  H   UNL     1      37.285 -21.062 -19.654  0.00  0.00    +0.145 HD
ATOM     13  H   UNL     1      37.428 -21.938 -18.198  0.00  0.00    +0.145 HD
ENDROOT
BRANCH   2  14
ATOM     14  C   UNL     1      31.820 -23.620 -16.353  0.00  0.00    +0.101 C 
BRANCH  14  15
ATOM     15  C   UNL     1      31.320 -22.782 -15.173  0.00  0.00    +0.036 C 
BRANCH  15  16
ATOM     16  C   UNL     1      29.847 -23.035 -14.852  0.00  0.00    +0.079 C 
BRANCH  16  17
ATOM     17  C   UNL     1      28.989 -22.904 -16.039  0.00  0.00    -0.078 C 
ATOM     18  C   UNL     1      28.287 -22.795 -17.007  0.00  0.00    -0.014 C 
ENDBRANCH  16  17
ENDBRANCH  15  16
ENDBRANCH  14  15
ENDBRANCH   2  14
BRANCH   6  19
ATOM     19  C   UNL     1      34.341 -24.299 -14.837  0.00  0.00    +0.105 C 
BRANCH  19  20
ATOM     20  C   UNL     1      35.717 -24.383 -14.189  0.00  0.00    +0.023 C 
ATOM     21  C   UNL     1      36.660 -25.249 -14.699  0.00  0.00    +0.135 C 
ATOM     22  C   UNL     1      35.973 -23.578 -13.097  0.00  0.00    +0.036 C 
ATOM     23  C   UNL     1      37.227 -23.644 -12.490  0.00  0.00    +0.139 C 
ATOM     24  C   UNL     1      37.915 -25.315 -14.092  0.00  0.00    +0.040 C 
ATOM     25  C   UNL     1      38.198 -24.511 -12.989  0.00  0.00    +0.040 C 
BRANCH  21  26
ATOM     26  O   UNL     1      36.401 -26.042 -15.778  0.00  0.00    -0.472 OA
ATOM     27  C   UNL     1      36.808 -27.406 -15.692  0.00  0.00    +0.252 C 
ENDBRANCH  21  26
BRANCH  23  28
ATOM     28  O   UNL     1      37.503 -22.859 -11.413  0.00  0.00    -0.471 OA
ATOM     29  C   UNL     1      36.596 -22.921 -10.313  0.00  0.00    +0.252 C 
ENDBRANCH  23  28
ENDBRANCH  19  20
ENDBRANCH   6  19
TORSDOF 8
ENDMDL
MODEL 7
REMARK VINA RESULT:      -8.6      3.577      7.024
REMARK  Name = 5289232
REMARK  8 active torsions:
REMARK  status: ('A' for Active; 'I' for Inactive)
REMARK    1  A    between atoms: N_2  and  C_14
REMARK    2  A    between atoms: C_6  and  C_19
REMARK    3  A    between atoms: C_14  and  C_15
REMARK    4  A    between atoms: C_15  and  C_16
REMARK    5  A    between atoms: C_16  and  C_17
REMARK    6  A    between atoms: C_19  and  C_20
REMARK    7  A    between atoms: C_21  and  O_26
REMARK    8  A    between atoms: C_23  and  O_28
REMARK                            x       y       z     vdW  Elec       q    Type
REMARK                         _______ _______ _______ _____ _____    ______ ____
ROOT
ATOM      1  F   UNL     1      35.290 -17.388 -25.565  0.00  0.00    -0.098 F 
ATOM      2  N   UNL     1      33.386 -14.319 -22.573  0.00  0.00    -0.238 N 
ATOM      3  N   UNL     1      32.111 -13.337 -24.114  0.00  0.00    -0.383 NA
ATOM      4  N   UNL     1      34.487 -15.993 -23.948  0.00  0.00    -0.299 NA
ATOM      5  N   UNL     1      33.749 -15.857 -26.270  0.00  0.00    -0.300 NA
ATOM      6  C   UNL     1      32.460 -13.349 -22.845  0.00  0.00    +0.170 C 
ATOM      7  C   UNL     1      33.643 -14.970 -23.747  0.00  0.00    +0.237 C 
ATOM      8  C   UNL     1      32.843 -14.345 -24.690  0.00  0.00    +0.222 C 
ATOM      9  C   UNL     1      32.917 -14.825 -25.994  0.00  0.00    +0.225 C 
ATOM     10  C   UNL     1      34.472 -16.369 -25.245  0.00  0.00    +0.300 C 
ATOM     11  N   UNL     1      32.138 -14.252 -27.014  0.00  0.00    -0.330 N 
ATOM     12  H   UNL     1      32.198 -14.599 -27.934  0.00  0.00    +0.145 HD
ATOM     13  H   UNL     1      31.532 -13.502 -26.810  0.00  0.00    +0.145 HD
ENDROOT
BRANCH   2  14
ATOM     14  C   UNL     1      33.982 -14.610 -21.290  0.00  0.00    +0.101 C 
BRANCH  14  15
ATOM     15  C   UNL     1      33.678 -16.038 -20.827  0.00  0.00    +0.036 C 
BRANCH  15  16
ATOM     16  C   UNL     1      34.923 -16.923 -20.789  0.00  0.00    +0.079 C 
BRANCH  16  17
ATOM     17  C   UNL     1      34.658 -18.278 -21.293  0.00  0.00    -0.078 C 
ATOM     18  C   UNL     1      34.443 -19.386 -21.703  0.00  0.00    -0.014 C 
ENDBRANCH  16  17
ENDBRANCH  15  16
ENDBRANCH  14  15
ENDBRANCH   2  14
BRANCH   6  19
ATOM     19  C   UNL     1      31.941 -12.445 -21.798  0.00  0.00    +0.105 C 
BRANCH  19  20
ATOM     20  C   UNL     1      32.269 -10.976 -22.032  0.00  0.00    +0.023 C 
ATOM     21  C   UNL     1      31.724 -10.015 -21.207  0.00  0.00    +0.135 C 
ATOM     22  C   UNL     1      33.112 -10.655 -23.077  0.00  0.00    +0.036 C 
ATOM     23  C   UNL     1      33.423  -9.315 -23.306  0.00  0.00    +0.139 C 
ATOM     24  C   UNL     1      32.035  -8.674 -21.437  0.00  0.00    +0.040 C 
ATOM     25  C   UNL     1      32.884  -8.324 -22.485  0.00  0.00    +0.040 C 
BRANCH  21  26
ATOM     26  O   UNL     1      30.892 -10.338 -20.177  0.00  0.00    -0.472 OA
ATOM     27  C   UNL     1      31.476 -10.442 -18.881  0.00  0.00    +0.252 C 
ENDBRANCH  21  26
BRANCH  23  28
ATOM     28  O   UNL     1      34.253  -8.974 -24.330  0.00  0.00    -0.471 OA
ATOM     29  C   UNL     1      35.142  -9.982 -24.808  0.00  0.00    +0.252 C 
ENDBRANCH  23  28
ENDBRANCH  19  20
ENDBRANCH   6  19
TORSDOF 8
ENDMDL
MODEL 8
REMARK VINA RESULT:      -8.5     11.544     15.333
REMARK  Name = 5289232
REMARK  8 active torsions:
REMARK  status: ('A' for Active; 'I' for Inactive)
REMARK    1  A    between atoms: N_2  and  C_14
REMARK    2  A    between atoms: C_6  and  C_19
REMARK    3  A    between atoms: C_14  and  C_15
REMARK    4  A    between atoms: C_15  and  C_16
REMARK    5  A    between atoms: C_16  and  C_17
REMARK    6  A    between atoms: C_19  and  C_20
REMARK    7  A    between atoms: C_21  and  O_26
REMARK    8  A    between atoms: C_23  and  O_28
REMARK                            x       y       z     vdW  Elec       q    Type
REMARK                         _______ _______ _______ _____ _____    ______ ____
ROOT
ATOM      1  F   UNL     1      40.555 -25.102 -14.535  0.00  0.00    -0.098 F 
ATOM      2  N   UNL     1      36.405 -23.266 -15.714  0.00  0.00    -0.238 N 
ATOM      3  N   UNL     1      35.281 -25.170 -15.427  0.00  0.00    -0.383 NA
ATOM      4  N   UNL     1      38.643 -24.013 -15.135  0.00  0.00    -0.299 NA
ATOM      5  N   UNL     1      38.661 -26.378 -14.535  0.00  0.00    -0.300 NA
ATOM      6  C   UNL     1      35.192 -23.900 -15.763  0.00  0.00    +0.170 C 
ATOM      7  C   UNL     1      37.327 -24.194 -15.318  0.00  0.00    +0.237 C 
ATOM      8  C   UNL     1      36.610 -25.368 -15.147  0.00  0.00    +0.222 C 
ATOM      9  C   UNL     1      37.327 -26.488 -14.739  0.00  0.00    +0.225 C 
ATOM     10  C   UNL     1      39.228 -25.165 -14.743  0.00  0.00    +0.300 C 
ATOM     11  N   UNL     1      36.680 -27.719 -14.538  0.00  0.00    -0.330 N 
ATOM     12  H   UNL     1      37.196 -28.506 -14.250  0.00  0.00    +0.145 HD
ATOM     13  H   UNL     1      35.708 -27.795 -14.686  0.00  0.00    +0.145 HD
ENDROOT
BRANCH   2  14
ATOM     14  C   UNL     1      36.668 -21.879 -16.017  0.00  0.00    +0.101 C 
BRANCH  14  15
ATOM     15  C   UNL     1      37.241 -21.698 -17.425  0.00  0.00    +0.036 C 
BRANCH  15  16
ATOM     16  C   UNL     1      36.161 -21.717 -18.508  0.00  0.00    +0.079 C 
BRANCH  16  17
ATOM     17  C   UNL     1      36.431 -20.748 -19.579  0.00  0.00    -0.078 C 
ATOM     18  C   UNL     1      36.653 -19.955 -20.453  0.00  0.00    -0.014 C 
ENDBRANCH  16  17
ENDBRANCH  15  16
ENDBRANCH  14  15
ENDBRANCH   2  14
BRANCH   6  19
ATOM     19  C   UNL     1      33.954 -23.194 -16.153  0.00  0.00    +0.105 C 
BRANCH  19  20
ATOM     20  C   UNL     1      32.720 -23.641 -15.380  0.00  0.00    +0.023 C 
ATOM     21  C   UNL     1      32.758 -23.694 -14.003  0.00  0.00    +0.135 C 
ATOM     22  C   UNL     1      31.591 -23.984 -16.097  0.00  0.00    +0.036 C 
ATOM     23  C   UNL     1      30.452 -24.398 -15.405  0.00  0.00    +0.139 C 
ATOM     24  C   UNL     1      31.619 -24.107 -13.311  0.00  0.00    +0.040 C 
ATOM     25  C   UNL     1      30.467 -24.458 -14.011  0.00  0.00    +0.040 C 
BRANCH  21  26
ATOM     26  O   UNL     1      33.877 -23.354 -13.301  0.00  0.00    -0.472 OA
ATOM     27  C   UNL     1      34.342 -24.291 -12.332  0.00  0.00    +0.252 C 
ENDBRANCH  21  26
BRANCH  23  28
ATOM     28  O   UNL     1      29.327 -24.739 -16.090  0.00  0.00    -0.471 OA
ATOM     29  C   UNL     1      28.542 -23.675 -16.624  0.00  0.00    +0.252 C 
ENDBRANCH  23  28
ENDBRANCH  19  20
ENDBRANCH   6  19
TORSDOF 8
ENDMDL
MODEL 9
REMARK VINA RESULT:      -8.5      1.752      3.709
REMARK  Name = 5289232
REMARK  8 active torsions:
REMARK  status: ('A' for Active; 'I' for Inactive)
REMARK    1  A    between atoms: N_2  and  C_14
REMARK    2  A    between atoms: C_6  and  C_19
REMARK    3  A    between atoms: C_14  and  C_15
REMARK    4  A    between atoms: C_15  and  C_16
REMARK    5  A    between atoms: C_16  and  C_17
REMARK    6  A    between atoms: C_19  and  C_20
REMARK    7  A    between atoms: C_21  and  O_26
REMARK    8  A    between atoms: C_23  and  O_28
REMARK                            x       y       z     vdW  Elec       q    Type
REMARK                         _______ _______ _______ _____ _____    ______ ____
ROOT
ATOM      1  F   UNL     1      32.857  -6.913 -20.022  0.00  0.00    -0.098 F 
ATOM      2  N   UNL     1      32.298 -10.744 -22.668  0.00  0.00    -0.238 N 
ATOM      3  N   UNL     1      31.475 -11.986 -21.010  0.00  0.00    -0.383 NA
ATOM      4  N   UNL     1      32.664  -8.656 -21.482  0.00  0.00    -0.299 NA
ATOM      5  N   UNL     1      32.006  -8.840 -19.139  0.00  0.00    -0.300 NA
ATOM      6  C   UNL     1      31.808 -11.964 -22.284  0.00  0.00    +0.170 C 
ATOM      7  C   UNL     1      32.275  -9.937 -21.566  0.00  0.00    +0.237 C 
ATOM      8  C   UNL     1      31.762 -10.726 -20.549  0.00  0.00    +0.222 C 
ATOM      9  C   UNL     1      31.632 -10.132 -19.297  0.00  0.00    +0.225 C 
ATOM     10  C   UNL     1      32.492  -8.192 -20.225  0.00  0.00    +0.300 C 
ATOM     11  N   UNL     1      31.119 -10.858 -18.209  0.00  0.00    -0.330 N 
ATOM     12  H   UNL     1      31.031 -10.428 -17.327  0.00  0.00    +0.145 HD
ATOM     13  H   UNL     1      30.846 -11.797 -18.328  0.00  0.00    +0.145 HD
ENDROOT
BRANCH   2  14
ATOM     14  C   UNL     1      32.753 -10.373 -23.987  0.00  0.00    +0.101 C 
BRANCH  14  15
ATOM     15  C   UNL     1      34.194 -10.822 -24.244  0.00  0.00    +0.036 C 
BRANCH  15  16
ATOM     16  C   UNL     1      35.054  -9.719 -24.862  0.00  0.00    +0.079 C 
BRANCH  16  17
ATOM     17  C   UNL     1      34.879  -8.429 -24.180  0.00  0.00    -0.078 C 
ATOM     18  C   UNL     1      34.739  -7.374 -23.623  0.00  0.00    -0.014 C 
ENDBRANCH  16  17
ENDBRANCH  15  16
ENDBRANCH  14  15
ENDBRANCH   2  14
BRANCH   6  19
ATOM     19  C   UNL     1      31.684 -13.092 -23.229  0.00  0.00    +0.105 C 
BRANCH  19  20
ATOM     20  C   UNL     1      32.853 -14.067 -23.183  0.00  0.00    +0.023 C 
ATOM     21  C   UNL     1      33.519 -14.389 -24.347  0.00  0.00    +0.135 C 
ATOM     22  C   UNL     1      33.210 -14.601 -21.962  0.00  0.00    +0.036 C 
ATOM     23  C   UNL     1      34.278 -15.496 -21.902  0.00  0.00    +0.139 C 
ATOM     24  C   UNL     1      34.587 -15.285 -24.288  0.00  0.00    +0.040 C 
ATOM     25  C   UNL     1      34.967 -15.837 -23.066  0.00  0.00    +0.040 C 
BRANCH  21  26
ATOM     26  O   UNL     1      33.161 -13.859 -25.551  0.00  0.00    -0.472 OA
ATOM     27  C   UNL     1      33.102 -14.752 -26.661  0.00  0.00    +0.252 C 
ENDBRANCH  21  26
BRANCH  23  28
ATOM     28  O   UNL     1      34.648 -16.035 -20.708  0.00  0.00    -0.471 OA
ATOM     29  C   UNL     1      35.268 -17.319 -20.738  0.00  0.00    +0.252 C 
ENDBRANCH  23  28
ENDBRANCH  19  20
ENDBRANCH   6  19
TORSDOF 8
ENDMDL
