MODEL 1
REMARK VINA RESULT:     -10.5      0.000      0.000
REMARK  Name = 9933197
REMARK  7 active torsions:
REMARK  status: ('A' for Active; 'I' for Inactive)
REMARK    1  A    between atoms: C_1  and  S_7
REMARK    2  A    between atoms: C_6  and  O_22
REMARK    3  A    between atoms: S_7  and  C_11
REMARK    4  A    between atoms: C_11  and  C_18
REMARK    5  A    between atoms: N_17  and  O_20
REMARK    6  A    between atoms: O_22  and  C_23
REMARK    7  A    between atoms: C_26  and  C_32
REMARK                            x       y       z     vdW  Elec       q    Type
REMARK                         _______ _______ _______ _____ _____    ______ ____
ROOT
ATOM      1  C   UNL     1      35.832 -22.779 -15.697  0.00  0.00    +0.106 C 
ATOM      2  C   UNL     1      36.863 -22.218 -16.435  0.00  0.00    +0.021 C 
ATOM      3  C   UNL     1      34.635 -23.141 -16.296  0.00  0.00    +0.021 C 
ATOM      4  C   UNL     1      36.694 -22.014 -17.804  0.00  0.00    +0.039 C 
ATOM      5  C   UNL     1      34.466 -22.937 -17.665  0.00  0.00    +0.039 C 
ATOM      6  C   UNL     1      35.495 -22.374 -18.419  0.00  0.00    +0.145 C 
ENDROOT
BRANCH   1   7
ATOM      7  S   UNL     1      36.047 -23.036 -13.965  0.00  0.00    +0.014 S 
ATOM      8  O   UNL     1      37.008 -22.062 -13.497  0.00  0.00    -0.168 OA
ATOM      9  O   UNL     1      34.740 -23.150 -13.354  0.00  0.00    -0.168 OA
BRANCH   7  11
ATOM     10  O   UNL     1      38.130 -26.700 -15.431  0.00  0.00    -0.354 OA
ATOM     11  C   UNL     1      36.807 -24.648 -13.878  0.00  0.00    +0.189 C 
ATOM     12  C   UNL     1      36.048 -25.627 -14.783  0.00  0.00    +0.063 C 
ATOM     13  C   UNL     1      38.277 -24.551 -14.305  0.00  0.00    +0.063 C 
ATOM     14  C   UNL     1      36.806 -26.939 -14.957  0.00  0.00    +0.144 C 
ATOM     15  C   UNL     1      38.898 -25.929 -14.509  0.00  0.00    +0.144 C 
BRANCH  11  18
ATOM     16  O   UNL     1      36.765 -26.273 -12.126  0.00  0.00    -0.271 OA
ATOM     17  N   UNL     1      36.570 -24.037 -11.569  0.00  0.00    -0.196 N 
ATOM     18  C   UNL     1      36.710 -25.086 -12.439  0.00  0.00    +0.265 C 
ATOM     19  H   UNL     1      36.531 -23.102 -11.876  0.00  0.00    +0.182 HD
BRANCH  17  20
ATOM     20  O   UNL     1      36.485 -24.380 -10.212  0.00  0.00    -0.295 OA
ATOM     21  H   UNL     1      36.431 -23.572  -9.678  0.00  0.00    +0.241 HD
ENDBRANCH  17  20
ENDBRANCH  11  18
ENDBRANCH   7  11
ENDBRANCH   1   7
BRANCH   6  22
ATOM     22  O   UNL     1      35.330 -22.176 -19.756  0.00  0.00    -0.453 OA
BRANCH  22  23
ATOM     23  C   UNL     1      35.061 -20.889 -20.187  0.00  0.00    +0.145 C 
ATOM     24  C   UNL     1      33.745 -20.474 -20.289  0.00  0.00    +0.037 C 
ATOM     25  C   UNL     1      36.114 -20.050 -20.506  0.00  0.00    +0.037 C 
ATOM     26  C   UNL     1      34.521 -18.317 -21.051  0.00  0.00    +0.072 C 
ATOM     27  C   UNL     1      33.472 -19.177 -20.725  0.00  0.00    +0.007 C 
ATOM     28  C   UNL     1      35.841 -18.754 -20.942  0.00  0.00    +0.007 C 
BRANCH  26  32
ATOM     29  F   UNL     1      33.013 -16.460 -21.112  0.00  0.00    -0.166 F 
ATOM     30  F   UNL     1      35.134 -16.005 -21.075  0.00  0.00    -0.166 F 
ATOM     31  F   UNL     1      34.231 -16.822 -22.877  0.00  0.00    -0.166 F 
ATOM     32  C   UNL     1      34.230 -16.930 -21.517  0.00  0.00    +0.419 C 
ENDBRANCH  26  32
ENDBRANCH  22  23
ENDBRANCH   6  22
TORSDOF 7
ENDMDL
MODEL 2
REMARK VINA RESULT:     -10.2      1.750      2.469
REMARK  Name = 9933197
REMARK  7 active torsions:
REMARK  status: ('A' for Active; 'I' for Inactive)
REMARK    1  A    between atoms: C_1  and  S_7
REMARK    2  A    between atoms: C_6  and  O_22
REMARK    3  A    between atoms: S_7  and  C_11
REMARK    4  A    between atoms: C_11  and  C_18
REMARK    5  A    between atoms: N_17  and  O_20
REMARK    6  A    between atoms: O_22  and  C_23
REMARK    7  A    between atoms: C_26  and  C_32
REMARK                            x       y       z     vdW  Elec       q    Type
REMARK                         _______ _______ _______ _____ _____    ______ ____
ROOT
ATOM      1  C   UNL     1      35.817 -23.487 -15.052  0.00  0.00    +0.106 C 
ATOM      2  C   UNL     1      36.405 -22.706 -16.034  0.00  0.00    +0.021 C 
ATOM      3  C   UNL     1      34.538 -23.999 -15.212  0.00  0.00    +0.021 C 
ATOM      4  C   UNL     1      35.699 -22.429 -17.205  0.00  0.00    +0.039 C 
ATOM      5  C   UNL     1      33.832 -23.722 -16.382  0.00  0.00    +0.039 C 
ATOM      6  C   UNL     1      34.412 -22.937 -17.379  0.00  0.00    +0.145 C 
ENDROOT
BRANCH   1   7
ATOM      7  S   UNL     1      36.710 -23.837 -13.573  0.00  0.00    +0.014 S 
ATOM      8  O   UNL     1      37.286 -22.594 -13.108  0.00  0.00    -0.168 OA
ATOM      9  O   UNL     1      35.871 -24.640 -12.710  0.00  0.00    -0.168 OA
BRANCH   7  11
ATOM     10  O   UNL     1      40.896 -25.005 -14.588  0.00  0.00    -0.354 OA
ATOM     11  C   UNL     1      38.042 -24.886 -14.132  0.00  0.00    +0.189 C 
ATOM     12  C   UNL     1      38.716 -24.257 -15.357  0.00  0.00    +0.063 C 
ATOM     13  C   UNL     1      39.058 -25.082 -13.000  0.00  0.00    +0.063 C 
ATOM     14  C   UNL     1      40.018 -24.966 -15.711  0.00  0.00    +0.144 C 
ATOM     15  C   UNL     1      40.340 -25.740 -13.499  0.00  0.00    +0.144 C 
BRANCH  11  18
ATOM     16  O   UNL     1      37.209 -27.076 -13.658  0.00  0.00    -0.271 OA
ATOM     17  N   UNL     1      37.106 -26.299 -15.833  0.00  0.00    -0.196 N 
ATOM     18  C   UNL     1      37.414 -26.206 -14.502  0.00  0.00    +0.265 C 
ATOM     19  H   UNL     1      37.292 -25.567 -16.467  0.00  0.00    +0.182 HD
BRANCH  17  20
ATOM     20  O   UNL     1      36.507 -27.500 -16.238  0.00  0.00    -0.295 OA
ATOM     21  H   UNL     1      35.749 -27.692 -15.663  0.00  0.00    +0.241 HD
ENDBRANCH  17  20
ENDBRANCH  11  18
ENDBRANCH   7  11
ENDBRANCH   1   7
BRANCH   6  22
ATOM     22  O   UNL     1      33.723 -22.668 -18.521  0.00  0.00    -0.453 OA
BRANCH  22  23
ATOM     23  C   UNL     1      34.188 -21.643 -19.327  0.00  0.00    +0.145 C 
ATOM     24  C   UNL     1      33.282 -20.747 -19.865  0.00  0.00    +0.037 C 
ATOM     25  C   UNL     1      35.545 -21.541 -19.573  0.00  0.00    +0.037 C 
ATOM     26  C   UNL     1      35.114 -19.594 -20.938  0.00  0.00    +0.072 C 
ATOM     27  C   UNL     1      33.749 -19.713 -20.677  0.00  0.00    +0.007 C 
ATOM     28  C   UNL     1      36.012 -20.508 -20.386  0.00  0.00    +0.007 C 
BRANCH  26  32
ATOM     29  F   UNL     1      35.062 -18.483 -23.056  0.00  0.00    -0.166 F 
ATOM     30  F   UNL     1      35.368 -17.244 -21.301  0.00  0.00    -0.166 F 
ATOM     31  F   UNL     1      36.963 -18.545 -22.002  0.00  0.00    -0.166 F 
ATOM     32  C   UNL     1      35.614 -18.489 -21.806  0.00  0.00    +0.419 C 
ENDBRANCH  26  32
ENDBRANCH  22  23
ENDBRANCH   6  22
TORSDOF 7
ENDMDL
MODEL 3
REMARK VINA RESULT:     -10.1      0.858      1.268
REMARK  Name = 9933197
REMARK  7 active torsions:
REMARK  status: ('A' for Active; 'I' for Inactive)
REMARK    1  A    between atoms: C_1  and  S_7
REMARK    2  A    between atoms: C_6  and  O_22
REMARK    3  A    between atoms: S_7  and  C_11
REMARK    4  A    between atoms: C_11  and  C_18
REMARK    5  A    between atoms: N_17  and  O_20
REMARK    6  A    between atoms: O_22  and  C_23
REMARK    7  A    between atoms: C_26  and  C_32
REMARK                            x       y       z     vdW  Elec       q    Type
REMARK                         _______ _______ _______ _____ _____    ______ ____
ROOT
ATOM      1  C   UNL     1      35.217 -22.945 -16.224  0.00  0.00    +0.106 C 
ATOM      2  C   UNL     1      36.381 -22.284 -16.582  0.00  0.00    +0.021 C 
ATOM      3  C   UNL     1      34.224 -23.208 -17.157  0.00  0.00    +0.021 C 
ATOM      4  C   UNL     1      36.559 -21.875 -17.904  0.00  0.00    +0.039 C 
ATOM      5  C   UNL     1      34.402 -22.799 -18.479  0.00  0.00    +0.039 C 
ATOM      6  C   UNL     1      35.569 -22.133 -18.852  0.00  0.00    +0.145 C 
ENDROOT
BRANCH   1   7
ATOM      7  S   UNL     1      34.993 -23.462 -14.553  0.00  0.00    +0.014 S 
ATOM      8  O   UNL     1      35.254 -22.319 -13.706  0.00  0.00    -0.168 OA
ATOM      9  O   UNL     1      33.746 -24.190 -14.462  0.00  0.00    -0.168 OA
BRANCH   7  11
ATOM     10  O   UNL     1      38.237 -26.317 -15.665  0.00  0.00    -0.354 OA
ATOM     11  C   UNL     1      36.308 -24.643 -14.306  0.00  0.00    +0.189 C 
ATOM     12  C   UNL     1      35.934 -25.977 -14.966  0.00  0.00    +0.063 C 
ATOM     13  C   UNL     1      37.613 -24.097 -14.898  0.00  0.00    +0.063 C 
ATOM     14  C   UNL     1      37.122 -26.931 -15.021  0.00  0.00    +0.144 C 
ATOM     15  C   UNL     1      38.698 -25.167 -14.958  0.00  0.00    +0.144 C 
BRANCH  11  18
ATOM     16  O   UNL     1      37.546 -24.814 -12.269  0.00  0.00    -0.271 OA
ATOM     17  N   UNL     1      35.240 -24.968 -12.180  0.00  0.00    -0.196 N 
ATOM     18  C   UNL     1      36.445 -24.819 -12.816  0.00  0.00    +0.265 C 
ATOM     19  H   UNL     1      34.386 -24.964 -12.670  0.00  0.00    +0.182 HD
BRANCH  17  20
ATOM     20  O   UNL     1      35.302 -25.124 -10.789  0.00  0.00    -0.295 OA
ATOM     21  H   UNL     1      35.530 -26.042 -10.576  0.00  0.00    +0.241 HD
ENDBRANCH  17  20
ENDBRANCH  11  18
ENDBRANCH   7  11
ENDBRANCH   1   7
BRANCH   6  22
ATOM     22  O   UNL     1      35.742 -21.735 -20.142  0.00  0.00    -0.453 OA
BRANCH  22  23
ATOM     23  C   UNL     1      35.333 -20.456 -20.482  0.00  0.00    +0.145 C 
ATOM     24  C   UNL     1      36.288 -19.492 -20.744  0.00  0.00    +0.037 C 
ATOM     25  C   UNL     1      33.980 -20.177 -20.550  0.00  0.00    +0.037 C 
ATOM     26  C   UNL     1      34.517 -17.902 -21.159  0.00  0.00    +0.072 C 
ATOM     27  C   UNL     1      35.878 -18.203 -21.086  0.00  0.00    +0.007 C 
ATOM     28  C   UNL     1      33.569 -18.888 -20.891  0.00  0.00    +0.007 C 
BRANCH  26  32
ATOM     29  F   UNL     1      32.883 -16.164 -20.967  0.00  0.00    -0.166 F 
ATOM     30  F   UNL     1      34.957 -15.551 -21.143  0.00  0.00    -0.166 F 
ATOM     31  F   UNL     1      33.915 -16.365 -22.871  0.00  0.00    -0.166 F 
ATOM     32  C   UNL     1      34.077 -16.524 -21.525  0.00  0.00    +0.419 C 
ENDBRANCH  26  32
ENDBRANCH  22  23
ENDBRANCH   6  22
TORSDOF 7
ENDMDL
MODEL 4
REMARK VINA RESULT:     -10.0      1.816      2.560
REMARK  Name = 9933197
REMARK  7 active torsions:
REMARK  status: ('A' for Active; 'I' for Inactive)
REMARK    1  A    between atoms: C_1  and  S_7
REMARK    2  A    between atoms: C_6  and  O_22
REMARK    3  A    between atoms: S_7  and  C_11
REMARK    4  A    between atoms: C_11  and  C_18
REMARK    5  A    between atoms: N_17  and  O_20
REMARK    6  A    between atoms: O_22  and  C_23
REMARK    7  A    between atoms: C_26  and  C_32
REMARK                            x       y       z     vdW  Elec       q    Type
REMARK                         _______ _______ _______ _____ _____    ______ ____
ROOT
ATOM      1  C   UNL     1      33.342 -23.546 -15.183  0.00  0.00    +0.106 C 
ATOM      2  C   UNL     1      34.382 -23.563 -16.099  0.00  0.00    +0.021 C 
ATOM      3  C   UNL     1      32.062 -23.165 -15.558  0.00  0.00    +0.021 C 
ATOM      4  C   UNL     1      34.139 -23.190 -17.421  0.00  0.00    +0.039 C 
ATOM      5  C   UNL     1      31.818 -22.792 -16.880  0.00  0.00    +0.039 C 
ATOM      6  C   UNL     1      32.856 -22.805 -17.811  0.00  0.00    +0.145 C 
ENDROOT
BRANCH   1   7
ATOM      7  S   UNL     1      33.650 -24.017 -13.512  0.00  0.00    +0.014 S 
ATOM      8  O   UNL     1      33.183 -22.942 -12.665  0.00  0.00    -0.168 OA
ATOM      9  O   UNL     1      33.183 -25.373 -13.325  0.00  0.00    -0.168 OA
BRANCH   7  11
ATOM     10  O   UNL     1      37.850 -24.432 -14.960  0.00  0.00    -0.354 OA
ATOM     11  C   UNL     1      35.432 -24.059 -13.417  0.00  0.00    +0.189 C 
ATOM     12  C   UNL     1      35.940 -25.441 -13.848  0.00  0.00    +0.063 C 
ATOM     13  C   UNL     1      36.025 -22.964 -14.314  0.00  0.00    +0.063 C 
ATOM     14  C   UNL     1      37.452 -25.450 -14.045  0.00  0.00    +0.144 C 
ATOM     15  C   UNL     1      37.531 -23.126 -14.482  0.00  0.00    +0.144 C 
BRANCH  11  18
ATOM     16  O   UNL     1      36.492 -22.847 -11.651  0.00  0.00    -0.271 OA
ATOM     17  N   UNL     1      35.235 -24.713 -11.115  0.00  0.00    -0.196 N 
ATOM     18  C   UNL     1      35.786 -23.800 -11.975  0.00  0.00    +0.265 C 
ATOM     19  H   UNL     1      34.674 -25.458 -11.432  0.00  0.00    +0.182 HD
BRANCH  17  20
ATOM     20  O   UNL     1      35.518 -24.517  -9.757  0.00  0.00    -0.295 OA
ATOM     21  H   UNL     1      35.062 -25.194  -9.231  0.00  0.00    +0.241 HD
ENDBRANCH  17  20
ENDBRANCH  11  18
ENDBRANCH   7  11
ENDBRANCH   1   7
BRANCH   6  22
ATOM     22  O   UNL     1      32.618 -22.442 -19.101  0.00  0.00    -0.453 OA
BRANCH  22  23
ATOM     23  C   UNL     1      33.470 -21.516 -19.677  0.00  0.00    +0.145 C 
ATOM     24  C   UNL     1      32.933 -20.406 -20.303  0.00  0.00    +0.037 C 
ATOM     25  C   UNL     1      34.836 -21.724 -19.612  0.00  0.00    +0.037 C 
ATOM     26  C   UNL     1      35.171 -19.664 -20.830  0.00  0.00    +0.072 C 
ATOM     27  C   UNL     1      33.790 -19.471 -20.884  0.00  0.00    +0.007 C 
ATOM     28  C   UNL     1      35.693 -20.790 -20.195  0.00  0.00    +0.007 C 
BRANCH  26  32
ATOM     29  F   UNL     1      37.407 -18.883 -21.169  0.00  0.00    -0.166 F 
ATOM     30  F   UNL     1      36.016 -18.632 -22.815  0.00  0.00    -0.166 F 
ATOM     31  F   UNL     1      35.832 -17.390 -21.040  0.00  0.00    -0.166 F 
ATOM     32  C   UNL     1      36.088 -18.665 -21.451  0.00  0.00    +0.419 C 
ENDBRANCH  26  32
ENDBRANCH  22  23
ENDBRANCH   6  22
TORSDOF 7
ENDMDL
MODEL 5
REMARK VINA RESULT:      -9.4      1.598      2.838
REMARK  Name = 9933197
REMARK  7 active torsions:
REMARK  status: ('A' for Active; 'I' for Inactive)
REMARK    1  A    between atoms: C_1  and  S_7
REMARK    2  A    between atoms: C_6  and  O_22
REMARK    3  A    between atoms: S_7  and  C_11
REMARK    4  A    between atoms: C_11  and  C_18
REMARK    5  A    between atoms: N_17  and  O_20
REMARK    6  A    between atoms: O_22  and  C_23
REMARK    7  A    between atoms: C_26  and  C_32
REMARK                            x       y       z     vdW  Elec       q    Type
REMARK                         _______ _______ _______ _____ _____    ______ ____
ROOT
ATOM      1  C   UNL     1      34.388 -23.149 -16.421  0.00  0.00    +0.106 C 
ATOM      2  C   UNL     1      33.598 -23.447 -17.520  0.00  0.00    +0.021 C 
ATOM      3  C   UNL     1      35.563 -22.424 -16.557  0.00  0.00    +0.021 C 
ATOM      4  C   UNL     1      33.990 -23.010 -18.786  0.00  0.00    +0.039 C 
ATOM      5  C   UNL     1      35.955 -21.987 -17.822  0.00  0.00    +0.039 C 
ATOM      6  C   UNL     1      35.169 -22.280 -18.936  0.00  0.00    +0.145 C 
ENDROOT
BRANCH   1   7
ATOM      7  S   UNL     1      33.892 -23.702 -14.822  0.00  0.00    +0.014 S 
ATOM      8  O   UNL     1      33.321 -22.569 -14.128  0.00  0.00    -0.168 OA
ATOM      9  O   UNL     1      33.152 -24.936 -14.974  0.00  0.00    -0.168 OA
BRANCH   7  11
ATOM     10  O   UNL     1      37.035 -23.692 -11.654  0.00  0.00    -0.354 OA
ATOM     11  C   UNL     1      35.438 -24.113 -14.029  0.00  0.00    +0.189 C 
ATOM     12  C   UNL     1      36.250 -22.834 -13.788  0.00  0.00    +0.063 C 
ATOM     13  C   UNL     1      35.164 -24.835 -12.704  0.00  0.00    +0.063 C 
ATOM     14  C   UNL     1      37.447 -23.090 -12.879  0.00  0.00    +0.144 C 
ATOM     15  C   UNL     1      36.428 -24.967 -11.862  0.00  0.00    +0.144 C 
BRANCH  11  18
ATOM     16  O   UNL     1      37.178 -24.651 -15.577  0.00  0.00    -0.271 OA
ATOM     17  N   UNL     1      35.604 -26.269 -15.073  0.00  0.00    -0.196 N 
ATOM     18  C   UNL     1      36.171 -25.025 -14.978  0.00  0.00    +0.265 C 
ATOM     19  H   UNL     1      34.795 -26.515 -14.569  0.00  0.00    +0.182 HD
BRANCH  17  20
ATOM     20  O   UNL     1      36.249 -27.168 -15.933  0.00  0.00    -0.295 OA
ATOM     21  H   UNL     1      36.671 -26.678 -16.656  0.00  0.00    +0.241 HD
ENDBRANCH  17  20
ENDBRANCH  11  18
ENDBRANCH   7  11
ENDBRANCH   1   7
BRANCH   6  22
ATOM     22  O   UNL     1      35.551 -21.852 -20.171  0.00  0.00    -0.453 OA
BRANCH  22  23
ATOM     23  C   UNL     1      35.306 -20.530 -20.498  0.00  0.00    +0.145 C 
ATOM     24  C   UNL     1      33.999 -20.104 -20.642  0.00  0.00    +0.037 C 
ATOM     25  C   UNL     1      36.375 -19.669 -20.674  0.00  0.00    +0.037 C 
ATOM     26  C   UNL     1      34.814 -17.889 -21.154  0.00  0.00    +0.072 C 
ATOM     27  C   UNL     1      33.750 -18.772 -20.973  0.00  0.00    +0.007 C 
ATOM     28  C   UNL     1      36.126 -18.337 -21.005  0.00  0.00    +0.007 C 
BRANCH  26  32
ATOM     29  F   UNL     1      35.216 -16.043 -22.624  0.00  0.00    -0.166 F 
ATOM     30  F   UNL     1      33.232 -16.199 -21.759  0.00  0.00    -0.166 F 
ATOM     31  F   UNL     1      34.914 -15.600 -20.516  0.00  0.00    -0.166 F 
ATOM     32  C   UNL     1      34.549 -16.464 -21.508  0.00  0.00    +0.419 C 
ENDBRANCH  26  32
ENDBRANCH  22  23
ENDBRANCH   6  22
TORSDOF 7
ENDMDL
MODEL 6
REMARK VINA RESULT:      -9.3      1.594      2.452
REMARK  Name = 9933197
REMARK  7 active torsions:
REMARK  status: ('A' for Active; 'I' for Inactive)
REMARK    1  A    between atoms: C_1  and  S_7
REMARK    2  A    between atoms: C_6  and  O_22
REMARK    3  A    between atoms: S_7  and  C_11
REMARK    4  A    between atoms: C_11  and  C_18
REMARK    5  A    between atoms: N_17  and  O_20
REMARK    6  A    between atoms: O_22  and  C_23
REMARK    7  A    between atoms: C_26  and  C_32
REMARK                            x       y       z     vdW  Elec       q    Type
REMARK                         _______ _______ _______ _____ _____    ______ ____
ROOT
ATOM      1  C   UNL     1      35.636 -23.005 -15.396  0.00  0.00    +0.106 C 
ATOM      2  C   UNL     1      34.313 -23.411 -15.475  0.00  0.00    +0.021 C 
ATOM      3  C   UNL     1      36.279 -22.435 -16.485  0.00  0.00    +0.021 C 
ATOM      4  C   UNL     1      33.615 -23.245 -16.671  0.00  0.00    +0.039 C 
ATOM      5  C   UNL     1      35.581 -22.268 -17.681  0.00  0.00    +0.039 C 
ATOM      6  C   UNL     1      34.249 -22.673 -17.774  0.00  0.00    +0.145 C 
ENDROOT
BRANCH   1   7
ATOM      7  S   UNL     1      36.518 -23.217 -13.884  0.00  0.00    +0.014 S 
ATOM      8  O   UNL     1      37.617 -22.276 -13.886  0.00  0.00    -0.168 OA
ATOM      9  O   UNL     1      35.563 -23.248 -12.797  0.00  0.00    -0.168 OA
BRANCH   7  11
ATOM     10  O   UNL     1      36.519 -27.665 -14.239  0.00  0.00    -0.354 OA
ATOM     11  C   UNL     1      37.198 -24.861 -14.029  0.00  0.00    +0.189 C 
ATOM     12  C   UNL     1      36.769 -25.706 -12.823  0.00  0.00    +0.063 C 
ATOM     13  C   UNL     1      36.720 -25.505 -15.336  0.00  0.00    +0.063 C 
ATOM     14  C   UNL     1      37.092 -27.182 -13.025  0.00  0.00    +0.144 C 
ATOM     15  C   UNL     1      37.045 -26.994 -15.383  0.00  0.00    +0.144 C 
BRANCH  11  18
ATOM     16  O   UNL     1      39.342 -24.604 -13.004  0.00  0.00    -0.271 OA
ATOM     17  N   UNL     1      39.220 -24.684 -15.312  0.00  0.00    -0.196 N 
ATOM     18  C   UNL     1      38.696 -24.699 -14.046  0.00  0.00    +0.265 C 
ATOM     19  H   UNL     1      38.654 -24.764 -16.114  0.00  0.00    +0.182 HD
BRANCH  17  20
ATOM     20  O   UNL     1      40.613 -24.548 -15.393  0.00  0.00    -0.295 OA
ATOM     21  H   UNL     1      41.014 -25.419 -15.540  0.00  0.00    +0.241 HD
ENDBRANCH  17  20
ENDBRANCH  11  18
ENDBRANCH   7  11
ENDBRANCH   1   7
BRANCH   6  22
ATOM     22  O   UNL     1      33.568 -22.509 -18.941  0.00  0.00    -0.453 OA
BRANCH  22  23
ATOM     23  C   UNL     1      33.884 -21.410 -19.722  0.00  0.00    +0.145 C 
ATOM     24  C   UNL     1      35.197 -21.219 -20.113  0.00  0.00    +0.037 C 
ATOM     25  C   UNL     1      32.880 -20.533 -20.090  0.00  0.00    +0.037 C 
ATOM     26  C   UNL     1      34.518 -19.216 -21.281  0.00  0.00    +0.072 C 
ATOM     27  C   UNL     1      35.517 -20.112 -20.900  0.00  0.00    +0.007 C 
ATOM     28  C   UNL     1      33.201 -19.426 -20.876  0.00  0.00    +0.007 C 
BRANCH  26  32
ATOM     29  F   UNL     1      34.385 -16.851 -21.625  0.00  0.00    -0.166 F 
ATOM     30  F   UNL     1      36.205 -17.840 -22.273  0.00  0.00    -0.166 F 
ATOM     31  F   UNL     1      34.358 -18.125 -23.388  0.00  0.00    -0.166 F 
ATOM     32  C   UNL     1      34.860 -18.032 -22.122  0.00  0.00    +0.419 C 
ENDBRANCH  26  32
ENDBRANCH  22  23
ENDBRANCH   6  22
TORSDOF 7
ENDMDL
MODEL 7
REMARK VINA RESULT:      -9.1      1.450      2.073
REMARK  Name = 9933197
REMARK  7 active torsions:
REMARK  status: ('A' for Active; 'I' for Inactive)
REMARK    1  A    between atoms: C_1  and  S_7
REMARK    2  A    between atoms: C_6  and  O_22
REMARK    3  A    between atoms: S_7  and  C_11
REMARK    4  A    between atoms: C_11  and  C_18
REMARK    5  A    between atoms: N_17  and  O_20
REMARK    6  A    between atoms: O_22  and  C_23
REMARK    7  A    between atoms: C_26  and  C_32
REMARK                            x       y       z     vdW  Elec       q    Type
REMARK                         _______ _______ _______ _____ _____    ______ ____
ROOT
ATOM      1  C   UNL     1      34.900 -23.122 -16.261  0.00  0.00    +0.106 C 
ATOM      2  C   UNL     1      35.987 -22.356 -16.649  0.00  0.00    +0.021 C 
ATOM      3  C   UNL     1      33.925 -23.500 -17.173  0.00  0.00    +0.021 C 
ATOM      4  C   UNL     1      36.105 -21.958 -17.981  0.00  0.00    +0.039 C 
ATOM      5  C   UNL     1      34.043 -23.102 -18.504  0.00  0.00    +0.039 C 
ATOM      6  C   UNL     1      35.133 -22.331 -18.909  0.00  0.00    +0.145 C 
ENDROOT
BRANCH   1   7
ATOM      7  S   UNL     1      34.751 -23.624 -14.577  0.00  0.00    +0.014 S 
ATOM      8  O   UNL     1      34.912 -22.445 -13.756  0.00  0.00    -0.168 OA
ATOM      9  O   UNL     1      33.582 -24.468 -14.453  0.00  0.00    -0.168 OA
BRANCH   7  11
ATOM     10  O   UNL     1      37.028 -27.345 -13.640  0.00  0.00    -0.354 OA
ATOM     11  C   UNL     1      36.177 -24.668 -14.330  0.00  0.00    +0.189 C 
ATOM     12  C   UNL     1      36.191 -25.191 -12.888  0.00  0.00    +0.063 C 
ATOM     13  C   UNL     1      36.145 -25.834 -15.326  0.00  0.00    +0.063 C 
ATOM     14  C   UNL     1      37.228 -26.293 -12.698  0.00  0.00    +0.144 C 
ATOM     15  C   UNL     1      37.184 -26.897 -14.985  0.00  0.00    +0.144 C 
BRANCH  11  18
ATOM     16  O   UNL     1      37.613 -22.806 -13.897  0.00  0.00    -0.271 OA
ATOM     17  N   UNL     1      38.163 -24.253 -15.615  0.00  0.00    -0.196 N 
ATOM     18  C   UNL     1      37.385 -23.801 -14.581  0.00  0.00    +0.265 C 
ATOM     19  H   UNL     1      37.932 -25.059 -16.131  0.00  0.00    +0.182 HD
BRANCH  17  20
ATOM     20  O   UNL     1      39.309 -23.494 -15.890  0.00  0.00    -0.295 OA
ATOM     21  H   UNL     1      40.093 -24.062 -15.834  0.00  0.00    +0.241 HD
ENDBRANCH  17  20
ENDBRANCH  11  18
ENDBRANCH   7  11
ENDBRANCH   1   7
BRANCH   6  22
ATOM     22  O   UNL     1      35.248 -21.944 -20.208  0.00  0.00    -0.453 OA
BRANCH  22  23
ATOM     23  C   UNL     1      35.058 -20.604 -20.500  0.00  0.00    +0.145 C 
ATOM     24  C   UNL     1      33.769 -20.110 -20.581  0.00  0.00    +0.037 C 
ATOM     25  C   UNL     1      36.160 -19.795 -20.704  0.00  0.00    +0.037 C 
ATOM     26  C   UNL     1      34.675 -17.928 -21.085  0.00  0.00    +0.072 C 
ATOM     27  C   UNL     1      33.574 -18.761 -20.875  0.00  0.00    +0.007 C 
ATOM     28  C   UNL     1      35.967 -18.446 -21.000  0.00  0.00    +0.007 C 
BRANCH  26  32
ATOM     29  F   UNL     1      33.152 -16.129 -21.497  0.00  0.00    -0.166 F 
ATOM     30  F   UNL     1      34.997 -15.641 -20.464  0.00  0.00    -0.166 F 
ATOM     31  F   UNL     1      35.036 -16.120 -22.585  0.00  0.00    -0.166 F 
ATOM     32  C   UNL     1      34.468 -16.485 -21.400  0.00  0.00    +0.419 C 
ENDBRANCH  26  32
ENDBRANCH  22  23
ENDBRANCH   6  22
TORSDOF 7
ENDMDL
MODEL 8
REMARK VINA RESULT:      -9.1      1.441      2.839
REMARK  Name = 9933197
REMARK  7 active torsions:
REMARK  status: ('A' for Active; 'I' for Inactive)
REMARK    1  A    between atoms: C_1  and  S_7
REMARK    2  A    between atoms: C_6  and  O_22
REMARK    3  A    between atoms: S_7  and  C_11
REMARK    4  A    between atoms: C_11  and  C_18
REMARK    5  A    between atoms: N_17  and  O_20
REMARK    6  A    between atoms: O_22  and  C_23
REMARK    7  A    between atoms: C_26  and  C_32
REMARK                            x       y       z     vdW  Elec       q    Type
REMARK                         _______ _______ _______ _____ _____    ______ ____
ROOT
ATOM      1  C   UNL     1      36.358 -22.667 -16.506  0.00  0.00    +0.106 C 
ATOM      2  C   UNL     1      35.031 -23.066 -16.514  0.00  0.00    +0.021 C 
ATOM      3  C   UNL     1      36.914 -21.999 -17.587  0.00  0.00    +0.021 C 
ATOM      4  C   UNL     1      34.239 -22.792 -17.629  0.00  0.00    +0.039 C 
ATOM      5  C   UNL     1      36.123 -21.725 -18.702  0.00  0.00    +0.039 C 
ATOM      6  C   UNL     1      34.785 -22.121 -18.723  0.00  0.00    +0.145 C 
ENDROOT
BRANCH   1   7
ATOM      7  S   UNL     1      37.359 -23.014 -15.096  0.00  0.00    +0.014 S 
ATOM      8  O   UNL     1      38.537 -23.714 -15.561  0.00  0.00    -0.168 OA
ATOM      9  O   UNL     1      37.470 -21.808 -14.305  0.00  0.00    -0.168 OA
BRANCH   7  11
ATOM     10  O   UNL     1      34.461 -24.390 -11.995  0.00  0.00    -0.354 OA
ATOM     11  C   UNL     1      36.367 -24.165 -14.159  0.00  0.00    +0.189 C 
ATOM     12  C   UNL     1      36.775 -24.114 -12.681  0.00  0.00    +0.063 C 
ATOM     13  C   UNL     1      34.882 -23.818 -14.319  0.00  0.00    +0.063 C 
ATOM     14  C   UNL     1      35.789 -24.870 -11.797  0.00  0.00    +0.144 C 
ATOM     15  C   UNL     1      34.012 -24.592 -13.334  0.00  0.00    +0.144 C 
BRANCH  11  18
ATOM     16  O   UNL     1      35.888 -26.053 -15.544  0.00  0.00    -0.271 OA
ATOM     17  N   UNL     1      37.810 -26.081 -14.258  0.00  0.00    -0.196 N 
ATOM     18  C   UNL     1      36.648 -25.530 -14.731  0.00  0.00    +0.265 C 
ATOM     19  H   UNL     1      38.383 -25.617 -13.605  0.00  0.00    +0.182 HD
BRANCH  17  20
ATOM     20  O   UNL     1      38.133 -27.348 -14.763  0.00  0.00    -0.295 OA
ATOM     21  H   UNL     1      39.031 -27.588 -14.486  0.00  0.00    +0.241 HD
ENDBRANCH  17  20
ENDBRANCH  11  18
ENDBRANCH   7  11
ENDBRANCH   1   7
BRANCH   6  22
ATOM     22  O   UNL     1      34.013 -21.853 -19.811  0.00  0.00    -0.453 OA
BRANCH  22  23
ATOM     23  C   UNL     1      34.138 -20.605 -20.397  0.00  0.00    +0.145 C 
ATOM     24  C   UNL     1      35.358 -20.232 -20.930  0.00  0.00    +0.037 C 
ATOM     25  C   UNL     1      33.041 -19.764 -20.434  0.00  0.00    +0.037 C 
ATOM     26  C   UNL     1      34.391 -18.112 -21.567  0.00  0.00    +0.072 C 
ATOM     27  C   UNL     1      35.487 -18.974 -21.521  0.00  0.00    +0.007 C 
ATOM     28  C   UNL     1      33.169 -18.506 -21.024  0.00  0.00    +0.007 C 
BRANCH  26  32
ATOM     29  F   UNL     1      33.775 -16.614 -23.330  0.00  0.00    -0.166 F 
ATOM     30  F   UNL     1      34.153 -15.739 -21.381  0.00  0.00    -0.166 F 
ATOM     31  F   UNL     1      35.810 -16.490 -22.572  0.00  0.00    -0.166 F 
ATOM     32  C   UNL     1      34.527 -16.767 -22.199  0.00  0.00    +0.419 C 
ENDBRANCH  26  32
ENDBRANCH  22  23
ENDBRANCH   6  22
TORSDOF 7
ENDMDL
MODEL 9
REMARK VINA RESULT:      -8.9      9.889     14.553
REMARK  Name = 9933197
REMARK  7 active torsions:
REMARK  status: ('A' for Active; 'I' for Inactive)
REMARK    1  A    between atoms: C_1  and  S_7
REMARK    2  A    between atoms: C_6  and  O_22
REMARK    3  A    between atoms: S_7  and  C_11
REMARK    4  A    between atoms: C_11  and  C_18
REMARK    5  A    between atoms: N_17  and  O_20
REMARK    6  A    between atoms: O_22  and  C_23
REMARK    7  A    between atoms: C_26  and  C_32
REMARK                            x       y       z     vdW  Elec       q    Type
REMARK                         _______ _______ _______ _____ _____    ______ ____
ROOT
ATOM      1  C   UNL     1      32.328 -10.900 -22.968  0.00  0.00    +0.106 C 
ATOM      2  C   UNL     1      33.217 -10.677 -24.009  0.00  0.00    +0.021 C 
ATOM      3  C   UNL     1      32.082 -12.180 -22.496  0.00  0.00    +0.021 C 
ATOM      4  C   UNL     1      33.875 -11.759 -24.592  0.00  0.00    +0.039 C 
ATOM      5  C   UNL     1      32.741 -13.263 -23.079  0.00  0.00    +0.039 C 
ATOM      6  C   UNL     1      33.637 -13.053 -24.126  0.00  0.00    +0.145 C 
ENDROOT
BRANCH   1   7
ATOM      7  S   UNL     1      31.496  -9.531 -22.232  0.00  0.00    +0.014 S 
ATOM      8  O   UNL     1      30.248  -9.349 -22.940  0.00  0.00    -0.168 OA
ATOM      9  O   UNL     1      31.522  -9.698 -20.795  0.00  0.00    -0.168 OA
BRANCH   7  11
ATOM     10  O   UNL     1      34.351  -7.056 -24.605  0.00  0.00    -0.354 OA
ATOM     11  C   UNL     1      32.555  -8.147 -22.617  0.00  0.00    +0.189 C 
ATOM     12  C   UNL     1      33.999  -8.635 -22.792  0.00  0.00    +0.063 C 
ATOM     13  C   UNL     1      32.062  -7.457 -23.896  0.00  0.00    +0.063 C 
ATOM     14  C   UNL     1      34.893  -7.550 -23.382  0.00  0.00    +0.144 C 
ATOM     15  C   UNL     1      33.076  -6.445 -24.419  0.00  0.00    +0.144 C 
BRANCH  11  18
ATOM     16  O   UNL     1      31.775  -6.184 -21.499  0.00  0.00    -0.271 OA
ATOM     17  N   UNL     1      33.196  -7.614 -20.366  0.00  0.00    -0.196 N 
ATOM     18  C   UNL     1      32.461  -7.203 -21.447  0.00  0.00    +0.265 C 
ATOM     19  H   UNL     1      33.729  -8.441 -20.379  0.00  0.00    +0.182 HD
BRANCH  17  20
ATOM     20  O   UNL     1      33.139  -6.781 -19.239  0.00  0.00    -0.295 OA
ATOM     21  H   UNL     1      33.787  -6.065 -19.334  0.00  0.00    +0.241 HD
ENDBRANCH  17  20
ENDBRANCH  11  18
ENDBRANCH   7  11
ENDBRANCH   1   7
BRANCH   6  22
ATOM     22  O   UNL     1      34.280 -14.109 -24.694  0.00  0.00    -0.453 OA
BRANCH  22  23
ATOM     23  C   UNL     1      34.469 -15.240 -23.919  0.00  0.00    +0.145 C 
ATOM     24  C   UNL     1      34.583 -15.104 -22.547  0.00  0.00    +0.037 C 
ATOM     25  C   UNL     1      34.539 -16.477 -24.535  0.00  0.00    +0.037 C 
ATOM     26  C   UNL     1      34.847 -17.499 -22.368  0.00  0.00    +0.072 C 
ATOM     27  C   UNL     1      34.773 -16.243 -21.764  0.00  0.00    +0.007 C 
ATOM     28  C   UNL     1      34.731 -17.615 -23.752  0.00  0.00    +0.007 C 
BRANCH  26  32
ATOM     29  F   UNL     1      36.210 -18.697 -20.807  0.00  0.00    -0.166 F 
ATOM     30  F   UNL     1      34.061 -18.920 -20.612  0.00  0.00    -0.166 F 
ATOM     31  F   UNL     1      35.103 -19.861 -22.274  0.00  0.00    -0.166 F 
ATOM     32  C   UNL     1      35.051 -18.717 -21.531  0.00  0.00    +0.419 C 
ENDBRANCH  26  32
ENDBRANCH  22  23
ENDBRANCH   6  22
TORSDOF 7
ENDMDL
