MODEL 1
REMARK VINA RESULT:     -11.9      0.000      0.000
REMARK  Name = 11511120
REMARK  6 active torsions:
REMARK  status: ('A' for Active; 'I' for Inactive)
REMARK    1  A    between atoms: N_1  and  C_15
REMARK    2  A    between atoms: C_4  and  N_22
REMARK    3  A    between atoms: C_7  and  O_35
REMARK    4  A    between atoms: C_23  and  C_26
REMARK    5  A    between atoms: C_25  and  C_27
REMARK    6  A    between atoms: C_27  and  N_28
REMARK                            x       y       z     vdW  Elec       q    Type
REMARK                         _______ _______ _______ _____ _____    ______ ____
ROOT
ATOM      1  N   UNL     1      34.764 -18.596 -21.465  0.00  0.00    -0.298 N 
ATOM      2  N   UNL     1      34.611 -18.083 -25.568  0.00  0.00    -0.248 NA
ATOM      3  N   UNL     1      35.071 -19.448 -23.636  0.00  0.00    -0.230 NA
ATOM      4  C   UNL     1      33.502 -14.915 -23.129  0.00  0.00    +0.081 C 
ATOM      5  C   UNL     1      34.286 -17.176 -23.372  0.00  0.00    +0.046 C 
ATOM      6  C   UNL     1      33.908 -16.101 -22.549  0.00  0.00    +0.021 C 
ATOM      7  C   UNL     1      33.462 -14.773 -24.502  0.00  0.00    +0.135 C 
ATOM      8  C   UNL     1      34.254 -17.060 -24.771  0.00  0.00    +0.066 C 
ATOM      9  C   UNL     1      34.706 -18.403 -22.867  0.00  0.00    +0.131 C 
ATOM     10  C   UNL     1      33.838 -15.847 -25.314  0.00  0.00    +0.111 C 
ATOM     11  C   UNL     1      35.001 -19.220 -24.958  0.00  0.00    +0.252 C 
ATOM     12  H   UNL     1      34.952 -17.772 -20.959  0.00  0.00    +0.154 HD
ENDROOT
BRANCH   1  15
ATOM     13 CL   UNL     1      36.893 -22.046 -18.325  0.00  0.00    -0.080 Cl
ATOM     14  F   UNL     1      34.116 -23.083 -18.279  0.00  0.00    -0.203 F 
ATOM     15  C   UNL     1      34.604 -19.733 -20.657  0.00  0.00    +0.050 C 
ATOM     16  C   UNL     1      35.698 -20.268 -19.970  0.00  0.00    +0.028 C 
ATOM     17  C   UNL     1      33.350 -20.338 -20.534  0.00  0.00    +0.017 C 
ATOM     18  C   UNL     1      35.538 -21.397 -19.167  0.00  0.00    +0.086 C 
ATOM     19  C   UNL     1      33.191 -21.468 -19.732  0.00  0.00    +0.032 C 
ATOM     20  C   UNL     1      34.285 -21.998 -19.048  0.00  0.00    +0.151 C 
ENDBRANCH   1  15
BRANCH   4  22
ATOM     21  O   UNL     1      32.309 -14.920 -20.374  0.00  0.00    -0.270 OA
ATOM     22  N   UNL     1      33.125 -13.837 -22.291  0.00  0.00    -0.278 N 
ATOM     23  C   UNL     1      32.575 -13.912 -21.019  0.00  0.00    +0.249 C 
ATOM     24  H   UNL     1      33.270 -12.932 -22.652  0.00  0.00    +0.155 HD
BRANCH  23  26
ATOM     25  C   UNL     1      31.598 -11.657 -21.162  0.00  0.00    -0.044 C 
ATOM     26  C   UNL     1      32.317 -12.549 -20.466  0.00  0.00    +0.051 C 
BRANCH  25  27
ATOM     27  C   UNL     1      31.295 -10.276 -20.661  0.00  0.00    -0.050 C 
BRANCH  27  28
ATOM     28  N   UNL     1      31.755  -9.252 -21.599  0.00  0.00    +0.390 N 
ATOM     29  C   UNL     1      33.767  -7.693 -23.036  0.00  0.00    -0.004 C 
ATOM     30  C   UNL     1      32.975  -8.811 -23.706  0.00  0.00    -0.023 C 
ATOM     31  C   UNL     1      32.989  -7.123 -21.855  0.00  0.00    -0.023 C 
ATOM     32  C   UNL     1      32.528  -9.862 -22.689  0.00  0.00    -0.077 C 
ATOM     33  C   UNL     1      32.542  -8.229 -20.897  0.00  0.00    -0.077 C 
ATOM     34  H   UNL     1      30.940  -8.795 -22.009  0.00  0.00    -0.079 HD
ENDBRANCH  27  28
ENDBRANCH  25  27
ENDBRANCH  23  26
ENDBRANCH   4  22
BRANCH   7  35
ATOM     35  O   UNL     1      33.063 -13.609 -25.089  0.00  0.00    -0.474 OA
ATOM     36  C   UNL     1      33.102 -13.555 -26.512  0.00  0.00    +0.252 C 
ENDBRANCH   7  35
TORSDOF 6
ENDMDL
MODEL 2
REMARK VINA RESULT:     -10.7      4.096      9.786
REMARK  Name = 11511120
REMARK  6 active torsions:
REMARK  status: ('A' for Active; 'I' for Inactive)
REMARK    1  A    between atoms: N_1  and  C_15
REMARK    2  A    between atoms: C_4  and  N_22
REMARK    3  A    between atoms: C_7  and  O_35
REMARK    4  A    between atoms: C_23  and  C_26
REMARK    5  A    between atoms: C_25  and  C_27
REMARK    6  A    between atoms: C_27  and  N_28
REMARK                            x       y       z     vdW  Elec       q    Type
REMARK                         _______ _______ _______ _____ _____    ______ ____
ROOT
ATOM      1  N   UNL     1      32.543 -13.768 -22.766  0.00  0.00    -0.298 N 
ATOM      2  N   UNL     1      33.501 -15.302 -26.488  0.00  0.00    -0.248 NA
ATOM      3  N   UNL     1      32.479 -13.608 -25.112  0.00  0.00    -0.230 NA
ATOM      4  C   UNL     1      34.698 -17.394 -23.111  0.00  0.00    +0.081 C 
ATOM      5  C   UNL     1      33.588 -15.503 -24.100  0.00  0.00    +0.046 C 
ATOM      6  C   UNL     1      33.996 -16.214 -22.957  0.00  0.00    +0.021 C 
ATOM      7  C   UNL     1      35.002 -17.881 -24.366  0.00  0.00    +0.135 C 
ATOM      8  C   UNL     1      33.885 -15.975 -25.389  0.00  0.00    +0.066 C 
ATOM      9  C   UNL     1      32.879 -14.307 -24.032  0.00  0.00    +0.131 C 
ATOM     10  C   UNL     1      34.594 -17.168 -25.496  0.00  0.00    +0.111 C 
ATOM     11  C   UNL     1      32.818 -14.156 -26.290  0.00  0.00    +0.252 C 
ATOM     12  H   UNL     1      32.415 -14.449 -22.066  0.00  0.00    +0.154 HD
ENDROOT
BRANCH   1  15
ATOM     13 CL   UNL     1      30.919 -10.616 -19.062  0.00  0.00    -0.080 Cl
ATOM     14  F   UNL     1      31.822  -8.565 -21.003  0.00  0.00    -0.203 F 
ATOM     15  C   UNL     1      32.358 -12.451 -22.316  0.00  0.00    +0.050 C 
ATOM     16  C   UNL     1      31.795 -12.209 -21.059  0.00  0.00    +0.028 C 
ATOM     17  C   UNL     1      32.736 -11.373 -23.121  0.00  0.00    +0.017 C 
ATOM     18  C   UNL     1      31.612 -10.900 -20.612  0.00  0.00    +0.086 C 
ATOM     19  C   UNL     1      32.552 -10.064 -22.674  0.00  0.00    +0.032 C 
ATOM     20  C   UNL     1      31.990  -9.828 -21.419  0.00  0.00    +0.151 C 
ENDBRANCH   1  15
BRANCH   4  22
ATOM     21  O   UNL     1      33.480 -19.791 -21.773  0.00  0.00    -0.270 OA
ATOM     22  N   UNL     1      35.104 -18.104 -21.954  0.00  0.00    -0.278 N 
ATOM     23  C   UNL     1      34.489 -19.212 -21.387  0.00  0.00    +0.249 C 
ATOM     24  H   UNL     1      35.914 -17.774 -21.502  0.00  0.00    +0.155 HD
BRANCH  23  26
ATOM     25  C   UNL     1      35.707 -20.916 -20.094  0.00  0.00    -0.044 C 
ATOM     26  C   UNL     1      35.226 -19.668 -20.171  0.00  0.00    +0.051 C 
BRANCH  25  27
ATOM     27  C   UNL     1      36.463 -21.435 -18.907  0.00  0.00    -0.050 C 
BRANCH  27  28
ATOM     28  N   UNL     1      35.561 -21.816 -17.820  0.00  0.00    +0.390 N 
ATOM     29  C   UNL     1      34.261 -23.697 -15.999  0.00  0.00    -0.004 C 
ATOM     30  C   UNL     1      35.395 -22.783 -15.548  0.00  0.00    -0.023 C 
ATOM     31  C   UNL     1      33.537 -23.096 -17.200  0.00  0.00    -0.023 C 
ATOM     32  C   UNL     1      36.316 -22.423 -16.714  0.00  0.00    -0.077 C 
ATOM     33  C   UNL     1      34.518 -22.726 -18.313  0.00  0.00    -0.077 C 
ATOM     34  H   UNL     1      35.104 -20.976 -17.464  0.00  0.00    -0.079 HD
ENDBRANCH  27  28
ENDBRANCH  25  27
ENDBRANCH  23  26
ENDBRANCH   4  22
BRANCH   7  35
ATOM     35  O   UNL     1      35.694 -19.045 -24.532  0.00  0.00    -0.474 OA
ATOM     36  C   UNL     1      34.962 -20.173 -25.003  0.00  0.00    +0.252 C 
ENDBRANCH   7  35
TORSDOF 6
ENDMDL
MODEL 3
REMARK VINA RESULT:     -10.3      5.569     11.660
REMARK  Name = 11511120
REMARK  6 active torsions:
REMARK  status: ('A' for Active; 'I' for Inactive)
REMARK    1  A    between atoms: N_1  and  C_15
REMARK    2  A    between atoms: C_4  and  N_22
REMARK    3  A    between atoms: C_7  and  O_35
REMARK    4  A    between atoms: C_23  and  C_26
REMARK    5  A    between atoms: C_25  and  C_27
REMARK    6  A    between atoms: C_27  and  N_28
REMARK                            x       y       z     vdW  Elec       q    Type
REMARK                         _______ _______ _______ _____ _____    ______ ____
ROOT
ATOM      1  N   UNL     1      32.787  -7.397 -23.494  0.00  0.00    -0.298 N 
ATOM      2  N   UNL     1      31.829  -8.261 -19.562  0.00  0.00    -0.248 NA
ATOM      3  N   UNL     1      32.331  -6.672 -21.303  0.00  0.00    -0.230 NA
ATOM      4  C   UNL     1      32.241 -11.403 -22.241  0.00  0.00    +0.081 C 
ATOM      5  C   UNL     1      32.289  -9.041 -21.782  0.00  0.00    +0.046 C 
ATOM      6  C   UNL     1      32.427 -10.109 -22.688  0.00  0.00    +0.021 C 
ATOM      7  C   UNL     1      31.923 -11.660 -20.922  0.00  0.00    +0.135 C 
ATOM      8  C   UNL     1      31.965  -9.274 -20.436  0.00  0.00    +0.066 C 
ATOM      9  C   UNL     1      32.459  -7.710 -22.152  0.00  0.00    +0.131 C 
ATOM     10  C   UNL     1      31.786 -10.594 -20.029  0.00  0.00    +0.111 C 
ATOM     11  C   UNL     1      32.021  -7.016 -20.042  0.00  0.00    +0.252 C 
ATOM     12  H   UNL     1      33.308  -8.098 -23.949  0.00  0.00    +0.154 HD
ENDROOT
BRANCH   1  15
ATOM     13 CL   UNL     1      34.277  -4.293 -27.294  0.00  0.00    -0.080 Cl
ATOM     14  F   UNL     1      31.685  -2.994 -26.672  0.00  0.00    -0.203 F 
ATOM     15  C   UNL     1      32.512  -6.282 -24.301  0.00  0.00    +0.050 C 
ATOM     16  C   UNL     1      33.422  -5.882 -25.284  0.00  0.00    +0.028 C 
ATOM     17  C   UNL     1      31.325  -5.563 -24.127  0.00  0.00    +0.017 C 
ATOM     18  C   UNL     1      33.148  -4.774 -26.086  0.00  0.00    +0.086 C 
ATOM     19  C   UNL     1      31.052  -4.455 -24.928  0.00  0.00    +0.032 C 
ATOM     20  C   UNL     1      31.963  -4.060 -25.908  0.00  0.00    +0.151 C 
ENDBRANCH   1  15
BRANCH   4  22
ATOM     21  O   UNL     1      34.139 -11.748 -24.541  0.00  0.00    -0.270 OA
ATOM     22  N   UNL     1      32.383 -12.471 -23.160  0.00  0.00    -0.278 N 
ATOM     23  C   UNL     1      33.289 -12.566 -24.207  0.00  0.00    +0.249 C 
ATOM     24  H   UNL     1      31.770 -13.232 -23.042  0.00  0.00    +0.155 HD
BRANCH  23  26
ATOM     25  C   UNL     1      33.962 -14.873 -24.740  0.00  0.00    -0.044 C 
ATOM     26  C   UNL     1      33.119 -13.852 -24.946  0.00  0.00    +0.051 C 
BRANCH  25  27
ATOM     27  C   UNL     1      33.843 -16.193 -25.442  0.00  0.00    -0.050 C 
BRANCH  27  28
ATOM     28  N   UNL     1      34.620 -17.232 -24.768  0.00  0.00    +0.390 N 
ATOM     29  C   UNL     1      35.035 -19.404 -22.856  0.00  0.00    -0.004 C 
ATOM     30  C   UNL     1      34.853 -19.660 -24.348  0.00  0.00    -0.023 C 
ATOM     31  C   UNL     1      35.577 -17.998 -22.619  0.00  0.00    -0.023 C 
ATOM     32  C   UNL     1      34.024 -18.555 -25.004  0.00  0.00    -0.077 C 
ATOM     33  C   UNL     1      34.725 -16.946 -23.331  0.00  0.00    -0.077 C 
ATOM     34  H   UNL     1      35.563 -17.239 -25.158  0.00  0.00    -0.079 HD
ENDBRANCH  27  28
ENDBRANCH  25  27
ENDBRANCH  23  26
ENDBRANCH   4  22
BRANCH   7  35
ATOM     35  O   UNL     1      31.736 -12.932 -20.468  0.00  0.00    -0.474 OA
ATOM     36  C   UNL     1      32.838 -13.829 -20.582  0.00  0.00    +0.252 C 
ENDBRANCH   7  35
TORSDOF 6
ENDMDL
MODEL 4
REMARK VINA RESULT:     -10.3      5.873     10.000
REMARK  Name = 11511120
REMARK  6 active torsions:
REMARK  status: ('A' for Active; 'I' for Inactive)
REMARK    1  A    between atoms: N_1  and  C_15
REMARK    2  A    between atoms: C_4  and  N_22
REMARK    3  A    between atoms: C_7  and  O_35
REMARK    4  A    between atoms: C_23  and  C_26
REMARK    5  A    between atoms: C_25  and  C_27
REMARK    6  A    between atoms: C_27  and  N_28
REMARK                            x       y       z     vdW  Elec       q    Type
REMARK                         _______ _______ _______ _____ _____    ______ ____
ROOT
ATOM      1  N   UNL     1      34.764 -24.261 -14.591  0.00  0.00    -0.298 N 
ATOM      2  N   UNL     1      30.805 -24.515 -13.411  0.00  0.00    -0.248 NA
ATOM      3  N   UNL     1      33.146 -24.937 -13.022  0.00  0.00    -0.230 NA
ATOM      4  C   UNL     1      31.684 -22.690 -17.032  0.00  0.00    +0.081 C 
ATOM      5  C   UNL     1      32.423 -23.811 -15.036  0.00  0.00    +0.046 C 
ATOM      6  C   UNL     1      32.717 -23.191 -16.263  0.00  0.00    +0.021 C 
ATOM      7  C   UNL     1      30.373 -22.790 -16.612  0.00  0.00    +0.135 C 
ATOM      8  C   UNL     1      31.098 -23.925 -14.584  0.00  0.00    +0.066 C 
ATOM      9  C   UNL     1      33.404 -24.340 -14.202  0.00  0.00    +0.131 C 
ATOM     10  C   UNL     1      30.089 -23.407 -15.391  0.00  0.00    +0.111 C 
ATOM     11  C   UNL     1      31.844 -24.990 -12.695  0.00  0.00    +0.252 C 
ATOM     12  H   UNL     1      34.899 -24.270 -15.566  0.00  0.00    +0.154 HD
ENDROOT
BRANCH   1  15
ATOM     13 CL   UNL     1      39.629 -25.761 -13.977  0.00  0.00    -0.080 Cl
ATOM     14  F   UNL     1      39.462 -23.898 -11.677  0.00  0.00    -0.203 F 
ATOM     15  C   UNL     1      35.956 -24.172 -13.855  0.00  0.00    +0.050 C 
ATOM     16  C   UNL     1      37.074 -24.922 -14.232  0.00  0.00    +0.028 C 
ATOM     17  C   UNL     1      36.033 -23.333 -12.739  0.00  0.00    +0.017 C 
ATOM     18  C   UNL     1      38.259 -24.833 -13.501  0.00  0.00    +0.086 C 
ATOM     19  C   UNL     1      37.217 -23.246 -12.008  0.00  0.00    +0.032 C 
ATOM     20  C   UNL     1      38.331 -23.995 -12.389  0.00  0.00    +0.151 C 
ENDBRANCH   1  15
BRANCH   4  22
ATOM     21  O   UNL     1      34.339 -22.080 -18.295  0.00  0.00    -0.270 OA
ATOM     22  N   UNL     1      31.991 -22.068 -18.267  0.00  0.00    -0.278 N 
ATOM     23  C   UNL     1      33.250 -21.816 -18.794  0.00  0.00    +0.249 C 
ATOM     24  H   UNL     1      31.223 -21.783 -18.814  0.00  0.00    +0.155 HD
BRANCH  23  26
ATOM     25  C   UNL     1      34.133 -20.343 -20.557  0.00  0.00    -0.044 C 
ATOM     26  C   UNL     1      33.149 -21.142 -20.122  0.00  0.00    +0.051 C 
BRANCH  25  27
ATOM     27  C   UNL     1      34.099 -19.643 -21.883  0.00  0.00    -0.050 C 
BRANCH  27  28
ATOM     28  N   UNL     1      34.601 -18.273 -21.782  0.00  0.00    +0.390 N 
ATOM     29  C   UNL     1      34.451 -15.371 -22.092  0.00  0.00    -0.004 C 
ATOM     30  C   UNL     1      34.282 -16.052 -20.739  0.00  0.00    -0.023 C 
ATOM     31  C   UNL     1      35.274 -16.247 -23.031  0.00  0.00    -0.023 C 
ATOM     32  C   UNL     1      33.743 -17.475 -20.895  0.00  0.00    -0.077 C 
ATOM     33  C   UNL     1      34.703 -17.663 -23.114  0.00  0.00    -0.077 C 
ATOM     34  H   UNL     1      35.537 -18.298 -21.374  0.00  0.00    -0.079 HD
ENDBRANCH  27  28
ENDBRANCH  25  27
ENDBRANCH  23  26
ENDBRANCH   4  22
BRANCH   7  35
ATOM     35  O   UNL     1      29.344 -22.300 -17.361  0.00  0.00    -0.474 OA
ATOM     36  C   UNL     1      28.049 -22.843 -17.116  0.00  0.00    +0.252 C 
ENDBRANCH   7  35
TORSDOF 6
ENDMDL
MODEL 5
REMARK VINA RESULT:      -9.8      1.607      2.057
REMARK  Name = 11511120
REMARK  6 active torsions:
REMARK  status: ('A' for Active; 'I' for Inactive)
REMARK    1  A    between atoms: N_1  and  C_15
REMARK    2  A    between atoms: C_4  and  N_22
REMARK    3  A    between atoms: C_7  and  O_35
REMARK    4  A    between atoms: C_23  and  C_26
REMARK    5  A    between atoms: C_25  and  C_27
REMARK    6  A    between atoms: C_27  and  N_28
REMARK                            x       y       z     vdW  Elec       q    Type
REMARK                         _______ _______ _______ _____ _____    ______ ____
ROOT
ATOM      1  N   UNL     1      35.420 -18.457 -21.918  0.00  0.00    -0.298 N 
ATOM      2  N   UNL     1      34.385 -18.626 -25.921  0.00  0.00    -0.248 NA
ATOM      3  N   UNL     1      35.327 -19.641 -23.949  0.00  0.00    -0.230 NA
ATOM      4  C   UNL     1      33.594 -15.142 -23.812  0.00  0.00    +0.081 C 
ATOM      5  C   UNL     1      34.462 -17.385 -23.871  0.00  0.00    +0.046 C 
ATOM      6  C   UNL     1      34.191 -16.203 -23.159  0.00  0.00    +0.021 C 
ATOM      7  C   UNL     1      33.261 -15.227 -25.149  0.00  0.00    +0.135 C 
ATOM      8  C   UNL     1      34.132 -17.500 -25.231  0.00  0.00    +0.066 C 
ATOM      9  C   UNL     1      35.060 -18.498 -23.287  0.00  0.00    +0.131 C 
ATOM     10  C   UNL     1      33.532 -16.406 -25.849  0.00  0.00    +0.111 C 
ATOM     11  C   UNL     1      34.970 -19.634 -25.244  0.00  0.00    +0.252 C 
ATOM     12  H   UNL     1      35.652 -17.556 -21.596  0.00  0.00    +0.154 HD
ENDROOT
BRANCH   1  15
ATOM     13 CL   UNL     1      33.019 -21.899 -18.970  0.00  0.00    -0.080 Cl
ATOM     14  F   UNL     1      35.787 -22.382 -18.024  0.00  0.00    -0.203 F 
ATOM     15  C   UNL     1      35.508 -19.452 -20.931  0.00  0.00    +0.050 C 
ATOM     16  C   UNL     1      34.356 -20.109 -20.488  0.00  0.00    +0.028 C 
ATOM     17  C   UNL     1      36.749 -19.793 -20.386  0.00  0.00    +0.017 C 
ATOM     18  C   UNL     1      34.445 -21.097 -19.508  0.00  0.00    +0.086 C 
ATOM     19  C   UNL     1      36.837 -20.781 -19.405  0.00  0.00    +0.032 C 
ATOM     20  C   UNL     1      35.685 -21.434 -18.966  0.00  0.00    +0.151 C 
ENDBRANCH   1  15
BRANCH   4  22
ATOM     21  O   UNL     1      34.271 -12.285 -24.439  0.00  0.00    -0.270 OA
ATOM     22  N   UNL     1      33.326 -13.955 -23.086  0.00  0.00    -0.278 N 
ATOM     23  C   UNL     1      33.670 -12.657 -23.438  0.00  0.00    +0.249 C 
ATOM     24  H   UNL     1      32.840 -14.064 -22.237  0.00  0.00    +0.155 HD
BRANCH  23  26
ATOM     25  C   UNL     1      31.899 -11.469 -22.208  0.00  0.00    -0.044 C 
ATOM     26  C   UNL     1      33.206 -11.683 -22.405  0.00  0.00    +0.051 C 
BRANCH  25  27
ATOM     27  C   UNL     1      31.367 -10.513 -21.183  0.00  0.00    -0.050 C 
BRANCH  27  28
ATOM     28  N   UNL     1      32.019  -9.207 -21.277  0.00  0.00    +0.390 N 
ATOM     29  C   UNL     1      32.106  -6.286 -21.238  0.00  0.00    -0.004 C 
ATOM     30  C   UNL     1      32.611  -7.128 -20.072  0.00  0.00    -0.023 C 
ATOM     31  C   UNL     1      32.166  -7.083 -22.537  0.00  0.00    -0.023 C 
ATOM     32  C   UNL     1      31.891  -8.476 -20.008  0.00  0.00    -0.077 C 
ATOM     33  C   UNL     1      31.461  -8.433 -22.394  0.00  0.00    -0.077 C 
ATOM     34  H   UNL     1      33.013  -9.350 -21.458  0.00  0.00    -0.079 HD
ENDBRANCH  27  28
ENDBRANCH  25  27
ENDBRANCH  23  26
ENDBRANCH   4  22
BRANCH   7  35
ATOM     35  O   UNL     1      32.671 -14.188 -25.806  0.00  0.00    -0.474 OA
ATOM     36  C   UNL     1      33.157 -13.889 -27.112  0.00  0.00    +0.252 C 
ENDBRANCH   7  35
TORSDOF 6
ENDMDL
MODEL 6
REMARK VINA RESULT:      -9.8      4.625      8.059
REMARK  Name = 11511120
REMARK  6 active torsions:
REMARK  status: ('A' for Active; 'I' for Inactive)
REMARK    1  A    between atoms: N_1  and  C_15
REMARK    2  A    between atoms: C_4  and  N_22
REMARK    3  A    between atoms: C_7  and  O_35
REMARK    4  A    between atoms: C_23  and  C_26
REMARK    5  A    between atoms: C_25  and  C_27
REMARK    6  A    between atoms: C_27  and  N_28
REMARK                            x       y       z     vdW  Elec       q    Type
REMARK                         _______ _______ _______ _____ _____    ______ ____
ROOT
ATOM      1  N   UNL     1      32.463 -12.449 -23.713  0.00  0.00    -0.298 N 
ATOM      2  N   UNL     1      31.644 -10.935 -19.950  0.00  0.00    -0.248 NA
ATOM      3  N   UNL     1      31.914 -12.799 -21.453  0.00  0.00    -0.230 NA
ATOM      4  C   UNL     1      32.490  -8.274 -23.019  0.00  0.00    +0.081 C 
ATOM      5  C   UNL     1      32.204 -10.535 -22.248  0.00  0.00    +0.046 C 
ATOM      6  C   UNL     1      32.491  -9.630 -23.285  0.00  0.00    +0.021 C 
ATOM      7  C   UNL     1      32.212  -7.799 -21.754  0.00  0.00    +0.135 C 
ATOM      8  C   UNL     1      31.919 -10.078 -20.950  0.00  0.00    +0.066 C 
ATOM      9  C   UNL     1      32.184 -11.914 -22.432  0.00  0.00    +0.131 C 
ATOM     10  C   UNL     1      31.929  -8.704 -20.728  0.00  0.00    +0.111 C 
ATOM     11  C   UNL     1      31.655 -12.248 -20.256  0.00  0.00    +0.252 C 
ATOM     12  H   UNL     1      32.203 -11.857 -24.456  0.00  0.00    +0.154 HD
ENDROOT
BRANCH   1  15
ATOM     13 CL   UNL     1      35.313 -16.550 -22.548  0.00  0.00    -0.080 Cl
ATOM     14  F   UNL     1      34.726 -17.226 -25.375  0.00  0.00    -0.203 F 
ATOM     15  C   UNL     1      33.039 -13.660 -24.130  0.00  0.00    +0.050 C 
ATOM     16  C   UNL     1      33.803 -14.420 -23.240  0.00  0.00    +0.028 C 
ATOM     17  C   UNL     1      32.851 -14.114 -25.439  0.00  0.00    +0.017 C 
ATOM     18  C   UNL     1      34.374 -15.623 -23.655  0.00  0.00    +0.086 C 
ATOM     19  C   UNL     1      33.424 -15.316 -25.854  0.00  0.00    +0.032 C 
ATOM     20  C   UNL     1      34.185 -16.071 -24.962  0.00  0.00    +0.151 C 
ENDBRANCH   1  15
BRANCH   4  22
ATOM     21  O   UNL     1      35.101  -7.067 -23.881  0.00  0.00    -0.270 OA
ATOM     22  N   UNL     1      32.780  -7.371 -24.072  0.00  0.00    -0.278 N 
ATOM     23  C   UNL     1      34.020  -6.850 -24.416  0.00  0.00    +0.249 C 
ATOM     24  H   UNL     1      32.016  -7.081 -24.621  0.00  0.00    +0.155 HD
BRANCH  23  26
ATOM     25  C   UNL     1      34.991  -5.595 -26.298  0.00  0.00    -0.044 C 
ATOM     26  C   UNL     1      33.906  -5.930 -25.588  0.00  0.00    +0.051 C 
BRANCH  25  27
ATOM     27  C   UNL     1      34.945  -4.684 -27.489  0.00  0.00    -0.050 C 
BRANCH  27  28
ATOM     28  N   UNL     1      33.570  -4.345 -27.853  0.00  0.00    +0.390 N 
ATOM     29  C   UNL     1      31.494  -2.734 -29.133  0.00  0.00    -0.004 C 
ATOM     30  C   UNL     1      31.959  -4.066 -29.711  0.00  0.00    -0.023 C 
ATOM     31  C   UNL     1      31.747  -2.688 -27.630  0.00  0.00    -0.023 C 
ATOM     32  C   UNL     1      33.404  -4.370 -29.314  0.00  0.00    -0.077 C 
ATOM     33  C   UNL     1      33.200  -3.036 -27.299  0.00  0.00    -0.077 C 
ATOM     34  H   UNL     1      32.944  -5.045 -27.454  0.00  0.00    -0.079 HD
ENDBRANCH  27  28
ENDBRANCH  25  27
ENDBRANCH  23  26
ENDBRANCH   4  22
BRANCH   7  35
ATOM     35  O   UNL     1      32.208  -6.463 -21.477  0.00  0.00    -0.474 OA
ATOM     36  C   UNL     1      30.953  -5.792 -21.544  0.00  0.00    +0.252 C 
ENDBRANCH   7  35
TORSDOF 6
ENDMDL
MODEL 7
REMARK VINA RESULT:      -9.8      4.596      8.053
REMARK  Name = 11511120
REMARK  6 active torsions:
REMARK  status: ('A' for Active; 'I' for Inactive)
REMARK    1  A    between atoms: N_1  and  C_15
REMARK    2  A    between atoms: C_4  and  N_22
REMARK    3  A    between atoms: C_7  and  O_35
REMARK    4  A    between atoms: C_23  and  C_26
REMARK    5  A    between atoms: C_25  and  C_27
REMARK    6  A    between atoms: C_27  and  N_28
REMARK                            x       y       z     vdW  Elec       q    Type
REMARK                         _______ _______ _______ _____ _____    ______ ____
ROOT
ATOM      1  N   UNL     1      32.484 -12.517 -23.723  0.00  0.00    -0.298 N 
ATOM      2  N   UNL     1      31.663 -11.034 -19.947  0.00  0.00    -0.248 NA
ATOM      3  N   UNL     1      31.928 -12.886 -21.467  0.00  0.00    -0.230 NA
ATOM      4  C   UNL     1      32.526  -8.349 -22.990  0.00  0.00    +0.081 C 
ATOM      5  C   UNL     1      32.229 -10.615 -22.240  0.00  0.00    +0.046 C 
ATOM      6  C   UNL     1      32.522  -9.702 -23.268  0.00  0.00    +0.021 C 
ATOM      7  C   UNL     1      32.248  -7.884 -21.720  0.00  0.00    +0.135 C 
ATOM      8  C   UNL     1      31.943 -10.170 -20.938  0.00  0.00    +0.066 C 
ATOM      9  C   UNL     1      32.204 -11.993 -22.437  0.00  0.00    +0.131 C 
ATOM     10  C   UNL     1      31.959  -8.797 -20.703  0.00  0.00    +0.111 C 
ATOM     11  C   UNL     1      31.669 -12.345 -20.265  0.00  0.00    +0.252 C 
ATOM     12  H   UNL     1      32.227 -11.916 -24.460  0.00  0.00    +0.154 HD
ENDROOT
BRANCH   1  15
ATOM     13 CL   UNL     1      35.349 -16.619 -22.603  0.00  0.00    -0.080 Cl
ATOM     14  F   UNL     1      34.730 -17.287 -25.424  0.00  0.00    -0.203 F 
ATOM     15  C   UNL     1      33.055 -13.726 -24.150  0.00  0.00    +0.050 C 
ATOM     16  C   UNL     1      33.830 -14.488 -23.271  0.00  0.00    +0.028 C 
ATOM     17  C   UNL     1      32.852 -14.176 -25.458  0.00  0.00    +0.017 C 
ATOM     18  C   UNL     1      34.397 -15.689 -23.696  0.00  0.00    +0.086 C 
ATOM     19  C   UNL     1      33.420 -15.377 -25.882  0.00  0.00    +0.032 C 
ATOM     20  C   UNL     1      34.193 -16.134 -25.002  0.00  0.00    +0.151 C 
ENDBRANCH   1  15
BRANCH   4  22
ATOM     21  O   UNL     1      35.136  -7.106 -23.803  0.00  0.00    -0.270 OA
ATOM     22  N   UNL     1      32.822  -7.436 -24.033  0.00  0.00    -0.278 N 
ATOM     23  C   UNL     1      34.061  -6.899 -24.355  0.00  0.00    +0.249 C 
ATOM     24  H   UNL     1      32.064  -7.153 -24.593  0.00  0.00    +0.155 HD
BRANCH  23  26
ATOM     25  C   UNL     1      32.875  -5.198 -25.681  0.00  0.00    -0.044 C 
ATOM     26  C   UNL     1      33.955  -5.975 -25.524  0.00  0.00    +0.051 C 
BRANCH  25  27
ATOM     27  C   UNL     1      32.710  -4.243 -26.826  0.00  0.00    -0.050 C 
BRANCH  27  28
ATOM     28  N   UNL     1      33.943  -4.113 -27.601  0.00  0.00    +0.390 N 
ATOM     29  C   UNL     1      35.688  -2.911 -29.614  0.00  0.00    -0.004 C 
ATOM     30  C   UNL     1      35.886  -2.673 -28.121  0.00  0.00    -0.023 C 
ATOM     31  C   UNL     1      34.964  -4.232 -29.851  0.00  0.00    -0.023 C 
ATOM     32  C   UNL     1      34.569  -2.806 -27.357  0.00  0.00    -0.077 C 
ATOM     33  C   UNL     1      33.675  -4.315 -29.031  0.00  0.00    -0.077 C 
ATOM     34  H   UNL     1      34.597  -4.836 -27.297  0.00  0.00    -0.079 HD
ENDBRANCH  27  28
ENDBRANCH  25  27
ENDBRANCH  23  26
ENDBRANCH   4  22
BRANCH   7  35
ATOM     35  O   UNL     1      32.249  -6.551 -21.431  0.00  0.00    -0.474 OA
ATOM     36  C   UNL     1      31.047  -5.831 -21.690  0.00  0.00    +0.252 C 
ENDBRANCH   7  35
TORSDOF 6
ENDMDL
MODEL 8
REMARK VINA RESULT:      -9.7      4.310      9.794
REMARK  Name = 11511120
REMARK  6 active torsions:
REMARK  status: ('A' for Active; 'I' for Inactive)
REMARK    1  A    between atoms: N_1  and  C_15
REMARK    2  A    between atoms: C_4  and  N_22
REMARK    3  A    between atoms: C_7  and  O_35
REMARK    4  A    between atoms: C_23  and  C_26
REMARK    5  A    between atoms: C_25  and  C_27
REMARK    6  A    between atoms: C_27  and  N_28
REMARK                            x       y       z     vdW  Elec       q    Type
REMARK                         _______ _______ _______ _____ _____    ______ ____
ROOT
ATOM      1  N   UNL     1      32.223 -13.693 -22.267  0.00  0.00    -0.298 N 
ATOM      2  N   UNL     1      34.178 -14.534 -25.816  0.00  0.00    -0.248 NA
ATOM      3  N   UNL     1      32.912 -13.035 -24.418  0.00  0.00    -0.230 NA
ATOM      4  C   UNL     1      34.086 -17.446 -22.862  0.00  0.00    +0.081 C 
ATOM      5  C   UNL     1      33.495 -15.244 -23.629  0.00  0.00    +0.046 C 
ATOM      6  C   UNL     1      33.466 -16.233 -22.630  0.00  0.00    +0.021 C 
ATOM      7  C   UNL     1      34.730 -17.698 -24.056  0.00  0.00    +0.135 C 
ATOM      8  C   UNL     1      34.144 -15.474 -24.854  0.00  0.00    +0.066 C 
ATOM      9  C   UNL     1      32.896 -13.997 -23.476  0.00  0.00    +0.131 C 
ATOM     10  C   UNL     1      34.754 -16.710 -25.044  0.00  0.00    +0.111 C 
ATOM     11  C   UNL     1      33.559 -13.367 -25.547  0.00  0.00    +0.252 C 
ATOM     12  H   UNL     1      31.829 -14.478 -21.823  0.00  0.00    +0.154 HD
ENDROOT
BRANCH   1  15
ATOM     13 CL   UNL     1      31.568  -8.611 -22.474  0.00  0.00    -0.080 Cl
ATOM     14  F   UNL     1      31.381  -8.947 -19.534  0.00  0.00    -0.203 F 
ATOM     15  C   UNL     1      32.010 -12.488 -21.578  0.00  0.00    +0.050 C 
ATOM     16  C   UNL     1      31.907 -11.284 -22.281  0.00  0.00    +0.028 C 
ATOM     17  C   UNL     1      31.901 -12.484 -20.185  0.00  0.00    +0.017 C 
ATOM     18  C   UNL     1      31.695 -10.087 -21.597  0.00  0.00    +0.086 C 
ATOM     19  C   UNL     1      31.690 -11.287 -19.501  0.00  0.00    +0.032 C 
ATOM     20  C   UNL     1      31.586 -10.088 -20.206  0.00  0.00    +0.151 C 
ENDBRANCH   1  15
BRANCH   4  22
ATOM     21  O   UNL     1      36.304 -18.616 -21.210  0.00  0.00    -0.270 OA
ATOM     22  N   UNL     1      34.051 -18.436 -21.849  0.00  0.00    -0.278 N 
ATOM     23  C   UNL     1      35.123 -18.933 -21.120  0.00  0.00    +0.249 C 
ATOM     24  H   UNL     1      33.167 -18.813 -21.637  0.00  0.00    +0.155 HD
BRANCH  23  26
ATOM     25  C   UNL     1      35.267 -21.169 -20.100  0.00  0.00    -0.044 C 
ATOM     26  C   UNL     1      34.671 -19.969 -20.144  0.00  0.00    +0.051 C 
BRANCH  25  27
ATOM     27  C   UNL     1      34.868 -22.250 -19.139  0.00  0.00    -0.050 C 
BRANCH  27  28
ATOM     28  N   UNL     1      35.393 -21.997 -17.798  0.00  0.00    +0.390 N 
ATOM     29  C   UNL     1      36.945 -22.629 -15.403  0.00  0.00    -0.004 C 
ATOM     30  C   UNL     1      37.425 -21.618 -16.438  0.00  0.00    -0.023 C 
ATOM     31  C   UNL     1      35.425 -22.749 -15.442  0.00  0.00    -0.023 C 
ATOM     32  C   UNL     1      36.861 -21.931 -17.824  0.00  0.00    -0.077 C 
ATOM     33  C   UNL     1      34.925 -23.026 -16.861  0.00  0.00    -0.077 C 
ATOM     34  H   UNL     1      35.044 -21.094 -17.475  0.00  0.00    -0.079 HD
ENDBRANCH  27  28
ENDBRANCH  25  27
ENDBRANCH  23  26
ENDBRANCH   4  22
BRANCH   7  35
ATOM     35  O   UNL     1      35.346 -18.891 -24.298  0.00  0.00    -0.474 OA
ATOM     36  C   UNL     1      34.611 -19.860 -25.041  0.00  0.00    +0.252 C 
ENDBRANCH   7  35
TORSDOF 6
ENDMDL
MODEL 9
REMARK VINA RESULT:      -9.5      6.025     10.525
REMARK  Name = 11511120
REMARK  6 active torsions:
REMARK  status: ('A' for Active; 'I' for Inactive)
REMARK    1  A    between atoms: N_1  and  C_15
REMARK    2  A    between atoms: C_4  and  N_22
REMARK    3  A    between atoms: C_7  and  O_35
REMARK    4  A    between atoms: C_23  and  C_26
REMARK    5  A    between atoms: C_25  and  C_27
REMARK    6  A    between atoms: C_27  and  N_28
REMARK                            x       y       z     vdW  Elec       q    Type
REMARK                         _______ _______ _______ _____ _____    ______ ____
ROOT
ATOM      1  N   UNL     1      32.841 -23.242 -14.684  0.00  0.00    -0.298 N 
ATOM      2  N   UNL     1      36.096 -24.734 -12.610  0.00  0.00    -0.248 NA
ATOM      3  N   UNL     1      33.721 -24.394 -12.832  0.00  0.00    -0.230 NA
ATOM      4  C   UNL     1      36.767 -22.724 -16.178  0.00  0.00    +0.081 C 
ATOM      5  C   UNL     1      35.240 -23.552 -14.514  0.00  0.00    +0.046 C 
ATOM      6  C   UNL     1      35.471 -22.872 -15.723  0.00  0.00    +0.021 C 
ATOM      7  C   UNL     1      37.833 -23.232 -15.464  0.00  0.00    +0.135 C 
ATOM      8  C   UNL     1      36.306 -24.081 -13.767  0.00  0.00    +0.066 C 
ATOM      9  C   UNL     1      33.966 -23.745 -13.986  0.00  0.00    +0.131 C 
ATOM     10  C   UNL     1      37.595 -23.907 -14.263  0.00  0.00    +0.111 C 
ATOM     11  C   UNL     1      34.816 -24.854 -12.205  0.00  0.00    +0.252 C 
ATOM     12  H   UNL     1      33.030 -22.431 -15.211  0.00  0.00    +0.154 HD
ENDROOT
BRANCH   1  15
ATOM     13 CL   UNL     1      27.954 -22.115 -15.756  0.00  0.00    -0.080 Cl
ATOM     14  F   UNL     1      27.585 -24.962 -15.019  0.00  0.00    -0.203 F 
ATOM     15  C   UNL     1      31.508 -23.673 -14.770  0.00  0.00    +0.050 C 
ATOM     16  C   UNL     1      30.505 -22.787 -15.172  0.00  0.00    +0.028 C 
ATOM     17  C   UNL     1      31.174 -24.994 -14.453  0.00  0.00    +0.017 C 
ATOM     18  C   UNL     1      29.180 -23.216 -15.258  0.00  0.00    +0.086 C 
ATOM     19  C   UNL     1      29.850 -25.422 -14.538  0.00  0.00    +0.032 C 
ATOM     20  C   UNL     1      28.852 -24.534 -14.941  0.00  0.00    +0.151 C 
ENDBRANCH   1  15
BRANCH   4  22
ATOM     21  O   UNL     1      35.028 -22.473 -18.613  0.00  0.00    -0.270 OA
ATOM     22  N   UNL     1      36.989 -22.037 -17.397  0.00  0.00    -0.278 N 
ATOM     23  C   UNL     1      36.135 -21.962 -18.489  0.00  0.00    +0.249 C 
ATOM     24  H   UNL     1      37.845 -21.558 -17.477  0.00  0.00    +0.155 HD
BRANCH  23  26
ATOM     25  C   UNL     1      36.017 -20.188 -20.192  0.00  0.00    -0.044 C 
ATOM     26  C   UNL     1      36.736 -21.139 -19.581  0.00  0.00    +0.051 C 
BRANCH  25  27
ATOM     27  C   UNL     1      36.561 -19.323 -21.289  0.00  0.00    -0.050 C 
BRANCH  27  28
ATOM     28  N   UNL     1      35.509 -18.525 -21.917  0.00  0.00    +0.390 N 
ATOM     29  C   UNL     1      34.412 -16.148 -23.218  0.00  0.00    -0.004 C 
ATOM     30  C   UNL     1      34.751 -17.416 -23.995  0.00  0.00    -0.023 C 
ATOM     31  C   UNL     1      34.126 -16.480 -21.757  0.00  0.00    -0.023 C 
ATOM     32  C   UNL     1      35.864 -18.208 -23.308  0.00  0.00    -0.077 C 
ATOM     33  C   UNL     1      35.259 -17.302 -21.141  0.00  0.00    -0.077 C 
ATOM     34  H   UNL     1      34.648 -19.072 -21.929  0.00  0.00    -0.079 HD
ENDBRANCH  27  28
ENDBRANCH  25  27
ENDBRANCH  23  26
ENDBRANCH   4  22
BRANCH   7  35
ATOM     35  O   UNL     1      39.117 -23.093 -15.901  0.00  0.00    -0.474 OA
ATOM     36  C   UNL     1      39.995 -24.196 -15.693  0.00  0.00    +0.252 C 
ENDBRANCH   7  35
TORSDOF 6
ENDMDL
