MODEL 1
REMARK VINA RESULT:      -6.4      0.000      0.000
REMARK  Name = 2230
REMARK  2 active torsions:
REMARK  status: ('A' for Active; 'I' for Inactive)
REMARK    1  A    between atoms: C_5  and  C_10
REMARK    2  A    between atoms: C_10  and  O_11
REMARK                            x       y       z     vdW  Elec       q    Type
REMARK                         _______ _______ _______ _____ _____    ______ ____
ROOT
ATOM      1  N   UNL     1      35.251 -19.356 -20.568  0.00  0.00    +0.389 N 
ATOM      2  C   UNL     1      34.052 -19.286 -21.413  0.00  0.00    -0.072 C 
ATOM      3  C   UNL     1      35.510 -20.744 -20.143  0.00  0.00    -0.044 C 
ATOM      4  C   UNL     1      32.810 -19.734 -20.627  0.00  0.00    +0.003 C 
ATOM      5  C   UNL     1      34.289 -21.431 -19.603  0.00  0.00    +0.028 C 
ATOM      6  C   UNL     1      33.049 -20.967 -19.807  0.00  0.00    -0.028 C 
ATOM      7  C   UNL     1      36.413 -18.804 -21.261  0.00  0.00    -0.100 C 
ATOM      8  H   UNL     1      35.082 -18.791 -19.735  0.00  0.00    -0.079 HD
ENDROOT
BRANCH   5  10
ATOM      9  O   UNL     1      33.797 -23.663 -18.975  0.00  0.00    -0.245 OA
ATOM     10  C   UNL     1      34.451 -22.647 -18.803  0.00  0.00    +0.335 C 
BRANCH  10  11
ATOM     11  O   UNL     1      35.423 -22.433 -17.879  0.00  0.00    -0.442 OA
ATOM     12  C   UNL     1      35.110 -22.858 -16.548  0.00  0.00    +0.256 C 
ENDBRANCH  10  11
ENDBRANCH   5  10
TORSDOF 2
ENDMDL
MODEL 2
REMARK VINA RESULT:      -6.0      3.517      4.775
REMARK  Name = 2230
REMARK  2 active torsions:
REMARK  status: ('A' for Active; 'I' for Inactive)
REMARK    1  A    between atoms: C_5  and  C_10
REMARK    2  A    between atoms: C_10  and  O_11
REMARK                            x       y       z     vdW  Elec       q    Type
REMARK                         _______ _______ _______ _____ _____    ______ ____
ROOT
ATOM      1  N   UNL     1      34.167 -16.191 -23.625  0.00  0.00    +0.389 N 
ATOM      2  C   UNL     1      34.737 -16.719 -24.873  0.00  0.00    -0.072 C 
ATOM      3  C   UNL     1      34.823 -16.800 -22.453  0.00  0.00    -0.044 C 
ATOM      4  C   UNL     1      34.492 -18.232 -24.980  0.00  0.00    +0.003 C 
ATOM      5  C   UNL     1      34.921 -18.295 -22.545  0.00  0.00    +0.028 C 
ATOM      6  C   UNL     1      34.756 -18.962 -23.695  0.00  0.00    -0.028 C 
ATOM      7  C   UNL     1      34.274 -14.734 -23.577  0.00  0.00    -0.100 C 
ATOM      8  H   UNL     1      33.177 -16.436 -23.604  0.00  0.00    -0.079 HD
ENDROOT
BRANCH   5  10
ATOM      9  O   UNL     1      36.040 -18.766 -20.509  0.00  0.00    -0.245 OA
ATOM     10  C   UNL     1      35.187 -19.067 -21.330  0.00  0.00    +0.335 C 
BRANCH  10  11
ATOM     11  O   UNL     1      34.342 -20.129 -21.295  0.00  0.00    -0.442 OA
ATOM     12  C   UNL     1      33.108 -19.910 -20.603  0.00  0.00    +0.256 C 
ENDBRANCH  10  11
ENDBRANCH   5  10
TORSDOF 2
ENDMDL
MODEL 3
REMARK VINA RESULT:      -5.9      3.297      4.520
REMARK  Name = 2230
REMARK  2 active torsions:
REMARK  status: ('A' for Active; 'I' for Inactive)
REMARK    1  A    between atoms: C_5  and  C_10
REMARK    2  A    between atoms: C_10  and  O_11
REMARK                            x       y       z     vdW  Elec       q    Type
REMARK                         _______ _______ _______ _____ _____    ______ ____
ROOT
ATOM      1  N   UNL     1      35.108 -16.675 -23.839  0.00  0.00    +0.389 N 
ATOM      2  C   UNL     1      34.285 -15.664 -23.162  0.00  0.00    -0.072 C 
ATOM      3  C   UNL     1      34.904 -18.005 -23.235  0.00  0.00    -0.044 C 
ATOM      4  C   UNL     1      34.695 -15.534 -21.687  0.00  0.00    +0.003 C 
ATOM      5  C   UNL     1      34.990 -17.988 -21.736  0.00  0.00    +0.028 C 
ATOM      6  C   UNL     1      34.911 -16.859 -21.019  0.00  0.00    -0.028 C 
ATOM      7  C   UNL     1      34.820 -16.710 -25.272  0.00  0.00    -0.100 C 
ATOM      8  H   UNL     1      36.087 -16.414 -23.720  0.00  0.00    -0.079 HD
ENDROOT
BRANCH   5  10
ATOM      9  O   UNL     1      36.122 -19.457 -20.259  0.00  0.00    -0.245 OA
ATOM     10  C   UNL     1      35.190 -19.250 -21.020  0.00  0.00    +0.335 C 
BRANCH  10  11
ATOM     11  O   UNL     1      34.186 -20.102 -21.351  0.00  0.00    -0.442 OA
ATOM     12  C   UNL     1      33.012 -20.015 -20.537  0.00  0.00    +0.256 C 
ENDBRANCH  10  11
ENDBRANCH   5  10
TORSDOF 2
ENDMDL
MODEL 4
REMARK VINA RESULT:      -5.8      5.385      7.184
REMARK  Name = 2230
REMARK  2 active torsions:
REMARK  status: ('A' for Active; 'I' for Inactive)
REMARK    1  A    between atoms: C_5  and  C_10
REMARK    2  A    between atoms: C_10  and  O_11
REMARK                            x       y       z     vdW  Elec       q    Type
REMARK                         _______ _______ _______ _____ _____    ______ ____
ROOT
ATOM      1  N   UNL     1      34.544 -18.340 -21.760  0.00  0.00    +0.389 N 
ATOM      2  C   UNL     1      35.248 -17.347 -20.938  0.00  0.00    -0.072 C 
ATOM      3  C   UNL     1      34.748 -18.070 -23.195  0.00  0.00    -0.044 C 
ATOM      4  C   UNL     1      34.687 -15.939 -21.195  0.00  0.00    +0.003 C 
ATOM      5  C   UNL     1      34.511 -16.633 -23.562  0.00  0.00    +0.028 C 
ATOM      6  C   UNL     1      34.466 -15.652 -22.651  0.00  0.00    -0.028 C 
ATOM      7  C   UNL     1      34.975 -19.696 -21.425  0.00  0.00    -0.100 C 
ATOM      8  H   UNL     1      33.547 -18.266 -21.557  0.00  0.00    -0.079 HD
ENDROOT
BRANCH   5  10
ATOM      9  O   UNL     1      34.827 -16.869 -25.899  0.00  0.00    -0.245 OA
ATOM     10  C   UNL     1      34.299 -16.282 -24.968  0.00  0.00    +0.335 C 
BRANCH  10  11
ATOM     11  O   UNL     1      33.442 -15.231 -25.030  0.00  0.00    -0.442 OA
ATOM     12  C   UNL     1      32.946 -14.919 -26.336  0.00  0.00    +0.256 C 
ENDBRANCH  10  11
ENDBRANCH   5  10
TORSDOF 2
ENDMDL
MODEL 5
REMARK VINA RESULT:      -5.8      5.857      7.498
REMARK  Name = 2230
REMARK  2 active torsions:
REMARK  status: ('A' for Active; 'I' for Inactive)
REMARK    1  A    between atoms: C_5  and  C_10
REMARK    2  A    between atoms: C_10  and  O_11
REMARK                            x       y       z     vdW  Elec       q    Type
REMARK                         _______ _______ _______ _____ _____    ______ ____
ROOT
ATOM      1  N   UNL     1      31.764 -23.805 -15.725  0.00  0.00    +0.389 N 
ATOM      2  C   UNL     1      31.452 -23.972 -14.299  0.00  0.00    -0.072 C 
ATOM      3  C   UNL     1      30.678 -23.087 -16.417  0.00  0.00    -0.044 C 
ATOM      4  C   UNL     1      30.187 -24.827 -14.120  0.00  0.00    +0.003 C 
ATOM      5  C   UNL     1      29.317 -23.639 -16.107  0.00  0.00    +0.028 C 
ATOM      6  C   UNL     1      29.085 -24.450 -15.065  0.00  0.00    -0.028 C 
ATOM      7  C   UNL     1      33.038 -23.111 -15.904  0.00  0.00    -0.100 C 
ATOM      8  H   UNL     1      31.850 -24.734 -16.138  0.00  0.00    -0.079 HD
ENDROOT
BRANCH   5  10
ATOM      9  O   UNL     1      27.613 -24.114 -17.685  0.00  0.00    -0.245 OA
ATOM     10  C   UNL     1      28.194 -23.301 -16.984  0.00  0.00    +0.335 C 
BRANCH  10  11
ATOM     11  O   UNL     1      27.938 -21.972 -16.870  0.00  0.00    -0.442 OA
ATOM     12  C   UNL     1      26.577 -21.588 -17.094  0.00  0.00    +0.256 C 
ENDBRANCH  10  11
ENDBRANCH   5  10
TORSDOF 2
ENDMDL
MODEL 6
REMARK VINA RESULT:      -5.7      5.058      6.302
REMARK  Name = 2230
REMARK  2 active torsions:
REMARK  status: ('A' for Active; 'I' for Inactive)
REMARK    1  A    between atoms: C_5  and  C_10
REMARK    2  A    between atoms: C_10  and  O_11
REMARK                            x       y       z     vdW  Elec       q    Type
REMARK                         _______ _______ _______ _____ _____    ______ ____
ROOT
ATOM      1  N   UNL     1      33.913 -13.826 -22.799  0.00  0.00    +0.389 N 
ATOM      2  C   UNL     1      32.603 -13.890 -22.135  0.00  0.00    -0.072 C 
ATOM      3  C   UNL     1      34.458 -15.180 -23.009  0.00  0.00    -0.044 C 
ATOM      4  C   UNL     1      32.735 -14.523 -20.741  0.00  0.00    +0.003 C 
ATOM      5  C   UNL     1      34.390 -16.039 -21.780  0.00  0.00    +0.028 C 
ATOM      6  C   UNL     1      33.615 -15.738 -20.729  0.00  0.00    -0.028 C 
ATOM      7  C   UNL     1      33.822 -13.104 -24.066  0.00  0.00    -0.100 C 
ATOM      8  H   UNL     1      34.549 -13.314 -22.188  0.00  0.00    -0.079 HD
ENDROOT
BRANCH   5  10
ATOM      9  O   UNL     1      35.506 -17.806 -20.662  0.00  0.00    -0.245 OA
ATOM     10  C   UNL     1      35.216 -17.246 -21.708  0.00  0.00    +0.335 C 
BRANCH  10  11
ATOM     11  O   UNL     1      35.576 -17.603 -22.967  0.00  0.00    -0.442 OA
ATOM     12  C   UNL     1      35.043 -18.849 -23.429  0.00  0.00    +0.256 C 
ENDBRANCH  10  11
ENDBRANCH   5  10
TORSDOF 2
ENDMDL
MODEL 7
REMARK VINA RESULT:      -5.7      5.742      7.442
REMARK  Name = 2230
REMARK  2 active torsions:
REMARK  status: ('A' for Active; 'I' for Inactive)
REMARK    1  A    between atoms: C_5  and  C_10
REMARK    2  A    between atoms: C_10  and  O_11
REMARK                            x       y       z     vdW  Elec       q    Type
REMARK                         _______ _______ _______ _____ _____    ______ ____
ROOT
ATOM      1  N   UNL     1      35.770 -17.575 -23.004  0.00  0.00    +0.389 N 
ATOM      2  C   UNL     1      35.022 -18.402 -23.960  0.00  0.00    -0.072 C 
ATOM      3  C   UNL     1      34.937 -16.461 -22.513  0.00  0.00    -0.044 C 
ATOM      4  C   UNL     1      34.632 -17.577 -25.197  0.00  0.00    +0.003 C 
ATOM      5  C   UNL     1      34.241 -15.717 -23.616  0.00  0.00    +0.028 C 
ATOM      6  C   UNL     1      34.110 -16.213 -24.853  0.00  0.00    -0.028 C 
ATOM      7  C   UNL     1      36.263 -18.380 -21.889  0.00  0.00    -0.100 C 
ATOM      8  H   UNL     1      36.576 -17.183 -23.491  0.00  0.00    -0.079 HD
ENDROOT
BRANCH   5  10
ATOM      9  O   UNL     1      34.094 -13.367 -23.893  0.00  0.00    -0.245 OA
ATOM     10  C   UNL     1      33.699 -14.384 -23.344  0.00  0.00    +0.335 C 
BRANCH  10  11
ATOM     11  O   UNL     1      32.719 -14.495 -22.410  0.00  0.00    -0.442 OA
ATOM     12  C   UNL     1      32.209 -13.257 -21.905  0.00  0.00    +0.256 C 
ENDBRANCH  10  11
ENDBRANCH   5  10
TORSDOF 2
ENDMDL
MODEL 8
REMARK VINA RESULT:      -5.7      2.558      3.483
REMARK  Name = 2230
REMARK  2 active torsions:
REMARK  status: ('A' for Active; 'I' for Inactive)
REMARK    1  A    between atoms: C_5  and  C_10
REMARK    2  A    between atoms: C_10  and  O_11
REMARK                            x       y       z     vdW  Elec       q    Type
REMARK                         _______ _______ _______ _____ _____    ______ ____
ROOT
ATOM      1  N   UNL     1      34.280 -16.616 -22.162  0.00  0.00    +0.389 N 
ATOM      2  C   UNL     1      35.406 -16.935 -23.050  0.00  0.00    -0.072 C 
ATOM      3  C   UNL     1      34.176 -17.607 -21.075  0.00  0.00    -0.044 C 
ATOM      4  C   UNL     1      35.189 -18.298 -23.728  0.00  0.00    +0.003 C 
ATOM      5  C   UNL     1      34.241 -19.025 -21.563  0.00  0.00    +0.028 C 
ATOM      6  C   UNL     1      34.689 -19.350 -22.783  0.00  0.00    -0.028 C 
ATOM      7  C   UNL     1      34.409 -15.266 -21.619  0.00  0.00    -0.100 C 
ATOM      8  H   UNL     1      33.423 -16.654 -22.715  0.00  0.00    -0.079 HD
ENDROOT
BRANCH   5  10
ATOM      9  O   UNL     1      32.615 -20.468 -20.619  0.00  0.00    -0.245 OA
ATOM     10  C   UNL     1      33.778 -20.102 -20.686  0.00  0.00    +0.335 C 
BRANCH  10  11
ATOM     11  O   UNL     1      34.841 -20.590 -19.997  0.00  0.00    -0.442 OA
ATOM     12  C   UNL     1      34.636 -21.858 -19.366  0.00  0.00    +0.256 C 
ENDBRANCH  10  11
ENDBRANCH   5  10
TORSDOF 2
ENDMDL
MODEL 9
REMARK VINA RESULT:      -5.6      4.659      6.415
REMARK  Name = 2230
REMARK  2 active torsions:
REMARK  status: ('A' for Active; 'I' for Inactive)
REMARK    1  A    between atoms: C_5  and  C_10
REMARK    2  A    between atoms: C_10  and  O_11
REMARK                            x       y       z     vdW  Elec       q    Type
REMARK                         _______ _______ _______ _____ _____    ______ ____
ROOT
ATOM      1  N   UNL     1      35.459 -18.886 -21.799  0.00  0.00    +0.389 N 
ATOM      2  C   UNL     1      34.837 -19.143 -23.106  0.00  0.00    -0.072 C 
ATOM      3  C   UNL     1      34.860 -17.700 -21.160  0.00  0.00    -0.044 C 
ATOM      4  C   UNL     1      35.086 -17.967 -24.062  0.00  0.00    +0.003 C 
ATOM      5  C   UNL     1      34.767 -16.519 -22.083  0.00  0.00    +0.028 C 
ATOM      6  C   UNL     1      34.885 -16.629 -23.413  0.00  0.00    -0.028 C 
ATOM      7  C   UNL     1      35.346 -20.053 -20.928  0.00  0.00    -0.100 C 
ATOM      8  H   UNL     1      36.450 -18.702 -21.954  0.00  0.00    -0.079 HD
ENDROOT
BRANCH   5  10
ATOM      9  O   UNL     1      34.867 -14.881 -20.373  0.00  0.00    -0.245 OA
ATOM     10  C   UNL     1      34.559 -15.186 -21.515  0.00  0.00    +0.335 C 
BRANCH  10  11
ATOM     11  O   UNL     1      33.989 -14.394 -22.459  0.00  0.00    -0.442 OA
ATOM     12  C   UNL     1      32.670 -13.928 -22.155  0.00  0.00    +0.256 C 
ENDBRANCH  10  11
ENDBRANCH   5  10
TORSDOF 2
ENDMDL
