MODEL 1
REMARK VINA RESULT:     -12.0      0.000      0.000
REMARK  Name = 9547923
REMARK  3 active torsions:
REMARK  status: ('A' for Active; 'I' for Inactive)
REMARK    1  A    between atoms: N_2  and  S_19
REMARK    2  A    between atoms: C_8  and  C_12
REMARK    3  A    between atoms: S_19  and  C_24
REMARK                            x       y       z     vdW  Elec       q    Type
REMARK                         _______ _______ _______ _____ _____    ______ ____
ROOT
ATOM      1  O   UNL     1      37.684 -18.649 -22.457  0.00  0.00    -0.269 OA
ATOM      2  N   UNL     1      34.579 -21.109 -19.526  0.00  0.00    -0.151 NA
ATOM      3  N   UNL     1      35.878 -19.121 -21.089  0.00  0.00    -0.273 N 
ATOM      4  C   UNL     1      35.978 -21.325 -20.008  0.00  0.00    +0.117 C 
ATOM      5  C   UNL     1      33.790 -20.263 -20.472  0.00  0.00    +0.117 C 
ATOM      6  C   UNL     1      36.665 -19.977 -20.202  0.00  0.00    +0.113 C 
ATOM      7  C   UNL     1      34.490 -18.920 -20.651  0.00  0.00    +0.113 C 
ATOM      8  C   UNL     1      36.489 -18.502 -22.194  0.00  0.00    +0.255 C 
ENDROOT
BRANCH   8  12
ATOM      9  S   UNL     1      34.976 -18.343 -24.463  0.00  0.00    -0.081 S 
ATOM     10  O   UNL     1      34.166 -13.669 -23.157  0.00  0.00    -0.163 OA
ATOM     11  N   UNL     1      33.915 -14.551 -24.035  0.00  0.00    -0.128 N 
ATOM     12  C   UNL     1      35.649 -17.664 -23.042  0.00  0.00    +0.085 C 
ATOM     13  C   UNL     1      35.300 -16.346 -22.863  0.00  0.00    +0.032 C 
ATOM     14  C   UNL     1      34.468 -15.907 -23.918  0.00  0.00    +0.109 C 
ATOM     15  C   UNL     1      34.194 -16.871 -24.872  0.00  0.00    +0.049 C 
ATOM     16  C   UNL     1      33.377 -16.544 -25.965  0.00  0.00    +0.010 C 
ATOM     17  C   UNL     1      33.119 -14.260 -25.112  0.00  0.00    +0.121 C 
ATOM     18  C   UNL     1      32.853 -15.241 -26.066  0.00  0.00    +0.023 C 
ENDBRANCH   8  12
BRANCH   2  19
ATOM     19  S   UNL     1      33.778 -22.510 -18.953  0.00  0.00    +0.076 S 
ATOM     20  O   UNL     1      34.208 -23.642 -19.746  0.00  0.00    -0.152 OA
ATOM     21  O   UNL     1      32.378 -22.205 -18.748  0.00  0.00    -0.152 OA
BRANCH  19  24
ATOM     22 CL   UNL     1      37.182 -23.713 -11.799  0.00  0.00    -0.082 Cl
ATOM     23  N   UNL     1      33.581 -23.431 -16.391  0.00  0.00    -0.297 N 
ATOM     24  C   UNL     1      34.393 -22.844 -17.306  0.00  0.00    +0.173 C 
ATOM     25  C   UNL     1      35.610 -22.608 -16.747  0.00  0.00    +0.036 C 
ATOM     26  C   UNL     1      35.550 -23.076 -15.405  0.00  0.00    +0.017 C 
ATOM     27  C   UNL     1      34.266 -23.588 -15.206  0.00  0.00    +0.049 C 
ATOM     28  C   UNL     1      36.467 -23.115 -14.336  0.00  0.00    +0.013 C 
ATOM     29  C   UNL     1      33.852 -24.139 -13.988  0.00  0.00    +0.015 C 
ATOM     30  C   UNL     1      36.067 -23.662 -13.111  0.00  0.00    +0.058 C 
ATOM     31  C   UNL     1      34.778 -24.166 -12.943  0.00  0.00    +0.013 C 
ATOM     32  H   UNL     1      32.647 -23.703 -16.548  0.00  0.00    +0.153 HD
ENDBRANCH  19  24
ENDBRANCH   2  19
TORSDOF 3
ENDMDL
MODEL 2
REMARK VINA RESULT:     -11.1      4.428      7.448
REMARK  Name = 9547923
REMARK  3 active torsions:
REMARK  status: ('A' for Active; 'I' for Inactive)
REMARK    1  A    between atoms: N_2  and  S_19
REMARK    2  A    between atoms: C_8  and  C_12
REMARK    3  A    between atoms: S_19  and  C_24
REMARK                            x       y       z     vdW  Elec       q    Type
REMARK                         _______ _______ _______ _____ _____    ______ ____
ROOT
ATOM      1  O   UNL     1      31.868 -12.140 -19.958  0.00  0.00    -0.269 OA
ATOM      2  N   UNL     1      33.564 -15.597 -23.033  0.00  0.00    -0.151 NA
ATOM      3  N   UNL     1      32.253 -13.345 -21.896  0.00  0.00    -0.273 N 
ATOM      4  C   UNL     1      33.452 -15.461 -21.549  0.00  0.00    +0.117 C 
ATOM      5  C   UNL     1      33.635 -14.266 -23.709  0.00  0.00    +0.117 C 
ATOM      6  C   UNL     1      32.218 -14.633 -21.203  0.00  0.00    +0.113 C 
ATOM      7  C   UNL     1      32.394 -13.454 -23.354  0.00  0.00    +0.113 C 
ATOM      8  C   UNL     1      32.066 -12.153 -21.175  0.00  0.00    +0.255 C 
ENDROOT
BRANCH   8  12
ATOM      9  S   UNL     1      30.642 -10.132 -22.337  0.00  0.00    -0.081 S 
ATOM     10  O   UNL     1      35.018  -8.262 -23.589  0.00  0.00    -0.163 OA
ATOM     11  N   UNL     1      33.762  -8.082 -23.659  0.00  0.00    -0.128 N 
ATOM     12  C   UNL     1      32.115 -10.902 -21.923  0.00  0.00    +0.085 C 
ATOM     13  C   UNL     1      33.219 -10.215 -22.368  0.00  0.00    +0.032 C 
ATOM     14  C   UNL     1      32.831  -9.043 -23.056  0.00  0.00    +0.109 C 
ATOM     15  C   UNL     1      31.462  -8.849 -23.129  0.00  0.00    +0.049 C 
ATOM     16  C   UNL     1      30.964  -7.716 -23.790  0.00  0.00    +0.010 C 
ATOM     17  C   UNL     1      33.248  -6.984 -24.297  0.00  0.00    +0.121 C 
ATOM     18  C   UNL     1      31.867  -6.802 -24.364  0.00  0.00    +0.023 C 
ENDBRANCH   8  12
BRANCH   2  19
ATOM     19  S   UNL     1      34.699 -16.758 -23.578  0.00  0.00    +0.076 S 
ATOM     20  O   UNL     1      36.025 -16.183 -23.486  0.00  0.00    -0.152 OA
ATOM     21  O   UNL     1      34.209 -17.364 -24.798  0.00  0.00    -0.152 OA
BRANCH  19  24
ATOM     22 CL   UNL     1      33.962 -22.784 -18.348  0.00  0.00    -0.082 Cl
ATOM     23  N   UNL     1      35.877 -18.551 -21.890  0.00  0.00    -0.297 N 
ATOM     24  C   UNL     1      34.701 -18.102 -22.398  0.00  0.00    +0.173 C 
ATOM     25  C   UNL     1      33.674 -18.819 -21.865  0.00  0.00    +0.036 C 
ATOM     26  C   UNL     1      34.248 -19.769 -20.974  0.00  0.00    +0.017 C 
ATOM     27  C   UNL     1      35.631 -19.580 -21.008  0.00  0.00    +0.049 C 
ATOM     28  C   UNL     1      33.722 -20.775 -20.139  0.00  0.00    +0.013 C 
ATOM     29  C   UNL     1      36.518 -20.349 -20.247  0.00  0.00    +0.015 C 
ATOM     30  C   UNL     1      34.597 -21.552 -19.371  0.00  0.00    +0.058 C 
ATOM     31  C   UNL     1      35.973 -21.340 -19.426  0.00  0.00    +0.013 C 
ATOM     32  H   UNL     1      36.768 -18.197 -22.117  0.00  0.00    +0.153 HD
ENDBRANCH  19  24
ENDBRANCH   2  19
TORSDOF 3
ENDMDL
MODEL 3
REMARK VINA RESULT:     -10.0      6.067     12.061
REMARK  Name = 9547923
REMARK  3 active torsions:
REMARK  status: ('A' for Active; 'I' for Inactive)
REMARK    1  A    between atoms: N_2  and  S_19
REMARK    2  A    between atoms: C_8  and  C_12
REMARK    3  A    between atoms: S_19  and  C_24
REMARK                            x       y       z     vdW  Elec       q    Type
REMARK                         _______ _______ _______ _____ _____    ______ ____
ROOT
ATOM      1  O   UNL     1      35.303 -15.752 -24.294  0.00  0.00    -0.269 OA
ATOM      2  N   UNL     1      32.051 -12.894 -21.940  0.00  0.00    -0.151 NA
ATOM      3  N   UNL     1      33.465 -15.097 -23.049  0.00  0.00    -0.273 N 
ATOM      4  C   UNL     1      33.116 -12.667 -22.963  0.00  0.00    +0.117 C 
ATOM      5  C   UNL     1      32.330 -14.104 -21.107  0.00  0.00    +0.117 C 
ATOM      6  C   UNL     1      33.239 -13.898 -23.856  0.00  0.00    +0.113 C 
ATOM      7  C   UNL     1      32.447 -15.323 -22.015  0.00  0.00    +0.113 C 
ATOM      8  C   UNL     1      34.532 -15.960 -23.356  0.00  0.00    +0.255 C 
ENDROOT
BRANCH   8  12
ATOM      9  S   UNL     1      36.294 -17.676 -22.169  0.00  0.00    -0.081 S 
ATOM     10  O   UNL     1      32.313 -19.964 -20.400  0.00  0.00    -0.163 OA
ATOM     11  N   UNL     1      33.583 -19.979 -20.427  0.00  0.00    -0.128 N 
ATOM     12  C   UNL     1      34.705 -17.137 -22.512  0.00  0.00    +0.085 C 
ATOM     13  C   UNL     1      33.739 -17.916 -21.921  0.00  0.00    +0.032 C 
ATOM     14  C   UNL     1      34.330 -18.965 -21.182  0.00  0.00    +0.109 C 
ATOM     15  C   UNL     1      35.714 -18.978 -21.212  0.00  0.00    +0.049 C 
ATOM     16  C   UNL     1      36.407 -19.977 -20.511  0.00  0.00    +0.010 C 
ATOM     17  C   UNL     1      34.285 -20.942 -19.751  0.00  0.00    +0.121 C 
ATOM     18  C   UNL     1      35.679 -20.943 -19.792  0.00  0.00    +0.023 C 
ENDBRANCH   8  12
BRANCH   2  19
ATOM     19  S   UNL     1      31.563 -11.502 -21.069  0.00  0.00    +0.076 S 
ATOM     20  O   UNL     1      32.406 -11.373 -19.900  0.00  0.00    -0.152 OA
ATOM     21  O   UNL     1      30.118 -11.482 -20.980  0.00  0.00    -0.152 OA
BRANCH  19  24
ATOM     22 CL   UNL     1      32.581  -5.042 -25.699  0.00  0.00    -0.082 Cl
ATOM     23  N   UNL     1      33.249  -9.704 -22.243  0.00  0.00    -0.297 N 
ATOM     24  C   UNL     1      31.954 -10.076 -22.076  0.00  0.00    +0.173 C 
ATOM     25  C   UNL     1      31.146  -9.224 -22.763  0.00  0.00    +0.036 C 
ATOM     26  C   UNL     1      31.989  -8.267 -23.394  0.00  0.00    +0.017 C 
ATOM     27  C   UNL     1      33.304  -8.590 -23.051  0.00  0.00    +0.049 C 
ATOM     28  C   UNL     1      31.760  -7.153 -24.225  0.00  0.00    +0.013 C 
ATOM     29  C   UNL     1      34.405  -7.853 -23.501  0.00  0.00    +0.015 C 
ATOM     30  C   UNL     1      32.852  -6.406 -24.683  0.00  0.00    +0.058 C 
ATOM     31  C   UNL     1      34.153  -6.753 -24.324  0.00  0.00    +0.013 C 
ATOM     32  H   UNL     1      34.027 -10.159 -21.848  0.00  0.00    +0.153 HD
ENDBRANCH  19  24
ENDBRANCH   2  19
TORSDOF 3
ENDMDL
MODEL 4
REMARK VINA RESULT:      -9.2      3.799      6.298
REMARK  Name = 9547923
REMARK  3 active torsions:
REMARK  status: ('A' for Active; 'I' for Inactive)
REMARK    1  A    between atoms: N_2  and  S_19
REMARK    2  A    between atoms: C_8  and  C_12
REMARK    3  A    between atoms: S_19  and  C_24
REMARK                            x       y       z     vdW  Elec       q    Type
REMARK                         _______ _______ _______ _____ _____    ______ ____
ROOT
ATOM      1  O   UNL     1      31.837 -13.139 -20.258  0.00  0.00    -0.269 OA
ATOM      2  N   UNL     1      34.033 -16.814 -22.698  0.00  0.00    -0.151 NA
ATOM      3  N   UNL     1      32.636 -14.439 -21.998  0.00  0.00    -0.273 N 
ATOM      4  C   UNL     1      33.537 -16.616 -21.302  0.00  0.00    +0.117 C 
ATOM      5  C   UNL     1      34.382 -15.516 -23.353  0.00  0.00    +0.117 C 
ATOM      6  C   UNL     1      32.321 -15.694 -21.318  0.00  0.00    +0.113 C 
ATOM      7  C   UNL     1      33.156 -14.611 -23.361  0.00  0.00    +0.113 C 
ATOM      8  C   UNL     1      32.352 -13.211 -21.375  0.00  0.00    +0.255 C 
ENDROOT
BRANCH   8  12
ATOM      9  S   UNL     1      33.977 -12.047 -23.237  0.00  0.00    -0.081 S 
ATOM     10  O   UNL     1      31.414  -7.937 -22.371  0.00  0.00    -0.163 OA
ATOM     11  N   UNL     1      32.365  -8.433 -23.050  0.00  0.00    -0.128 N 
ATOM     12  C   UNL     1      32.693 -11.995 -22.104  0.00  0.00    +0.085 C 
ATOM     13  C   UNL     1      32.111 -10.752 -22.015  0.00  0.00    +0.032 C 
ATOM     14  C   UNL     1      32.741  -9.845 -22.895  0.00  0.00    +0.109 C 
ATOM     15  C   UNL     1      33.777 -10.389 -23.635  0.00  0.00    +0.049 C 
ATOM     16  C   UNL     1      34.475  -9.577 -24.542  0.00  0.00    +0.010 C 
ATOM     17  C   UNL     1      33.062  -7.664 -23.943  0.00  0.00    +0.121 C 
ATOM     18  C   UNL     1      34.104  -8.226 -24.681  0.00  0.00    +0.023 C 
ENDBRANCH   8  12
BRANCH   2  19
ATOM     19  S   UNL     1      35.184 -18.067 -22.896  0.00  0.00    +0.076 S 
ATOM     20  O   UNL     1      36.499 -17.532 -22.613  0.00  0.00    -0.152 OA
ATOM     21  O   UNL     1      34.895 -18.787 -24.118  0.00  0.00    -0.152 OA
BRANCH  19  24
ATOM     22 CL   UNL     1      33.158 -23.464 -17.330  0.00  0.00    -0.082 Cl
ATOM     23  N   UNL     1      35.919 -19.675 -20.816  0.00  0.00    -0.297 N 
ATOM     24  C   UNL     1      34.891 -19.272 -21.606  0.00  0.00    +0.173 C 
ATOM     25  C   UNL     1      33.752 -19.912 -21.229  0.00  0.00    +0.036 C 
ATOM     26  C   UNL     1      34.092 -20.764 -20.141  0.00  0.00    +0.017 C 
ATOM     27  C   UNL     1      35.458 -20.597 -19.902  0.00  0.00    +0.049 C 
ATOM     28  C   UNL     1      33.369 -21.664 -19.334  0.00  0.00    +0.013 C 
ATOM     29  C   UNL     1      36.138 -21.287 -18.893  0.00  0.00    +0.015 C 
ATOM     30  C   UNL     1      34.036 -22.361 -18.321  0.00  0.00    +0.058 C 
ATOM     31  C   UNL     1      35.400 -22.174 -18.105  0.00  0.00    +0.013 C 
ATOM     32  H   UNL     1      36.849 -19.360 -20.886  0.00  0.00    +0.153 HD
ENDBRANCH  19  24
ENDBRANCH   2  19
TORSDOF 3
ENDMDL
