MODEL 1
REMARK VINA RESULT:     -11.6      0.000      0.000
REMARK  Name = 71360
REMARK  8 active torsions:
REMARK  status: ('A' for Active; 'I' for Inactive)
REMARK    1  A    between atoms: N_1  and  C_18
REMARK    2  A    between atoms: C_2  and  C_11
REMARK    3  A    between atoms: C_18  and  C_19
REMARK    4  A    between atoms: C_19  and  C_20
REMARK    5  A    between atoms: C_20  and  O_21
REMARK    6  A    between atoms: O_21  and  C_22
REMARK    7  A    between atoms: C_23  and  O_31
REMARK    8  A    between atoms: C_27  and  C_29
REMARK                            x       y       z     vdW  Elec       q    Type
REMARK                         _______ _______ _______ _____ _____    ______ ____
ROOT
ATOM      1  N   UNL     1      33.887 -16.032 -24.441  0.00  0.00    +0.387 N 
ATOM      2  C   UNL     1      35.598 -17.697 -22.737  0.00  0.00    +0.039 C 
ATOM      3  C   UNL     1      34.920 -18.239 -24.006  0.00  0.00    -0.017 C 
ATOM      4  C   UNL     1      34.801 -16.502 -22.190  0.00  0.00    -0.017 C 
ATOM      5  C   UNL     1      34.679 -17.122 -25.026  0.00  0.00    -0.077 C 
ATOM      6  C   UNL     1      34.565 -15.448 -23.274  0.00  0.00    -0.077 C 
ATOM      7  H   UNL     1      32.999 -16.422 -24.125  0.00  0.00    -0.080 HD
ENDROOT
BRANCH   2  11
ATOM      8  F   UNL     1      33.125 -22.426 -18.643  0.00  0.00    -0.204 F 
ATOM      9  O   UNL     1      36.938 -20.041 -20.350  0.00  0.00    -0.354 OA
ATOM     10  N   UNL     1      37.070 -19.024 -21.287  0.00  0.00    -0.081 NA
ATOM     11  C   UNL     1      35.830 -18.770 -21.696  0.00  0.00    +0.100 A 
ATOM     12  C   UNL     1      34.869 -19.579 -21.072  0.00  0.00    +0.054 A 
ATOM     13  C   UNL     1      35.623 -20.370 -20.223  0.00  0.00    +0.179 A 
ATOM     14  C   UNL     1      33.476 -19.749 -21.105  0.00  0.00    +0.007 C 
ATOM     15  C   UNL     1      35.094 -21.345 -19.383  0.00  0.00    +0.070 C 
ATOM     16  C   UNL     1      32.909 -20.723 -20.270  0.00  0.00    +0.030 C 
ATOM     17  C   UNL     1      33.704 -21.505 -19.426  0.00  0.00    +0.143 C 
ENDBRANCH   2  11
BRANCH   1  18
ATOM     18  C   UNL     1      33.617 -15.001 -25.443  0.00  0.00    -0.074 C 
BRANCH  18  19
ATOM     19  C   UNL     1      32.930 -13.803 -24.798  0.00  0.00    +0.025 C 
BRANCH  19  20
ATOM     20  C   UNL     1      33.644 -12.501 -25.134  0.00  0.00    +0.203 C 
BRANCH  20  21
ATOM     21  O   UNL     1      34.117 -11.912 -23.931  0.00  0.00    -0.472 OA
BRANCH  21  22
ATOM     22  C   UNL     1      33.708 -10.631 -23.667  0.00  0.00    +0.172 C 
ATOM     23  C   UNL     1      32.549 -10.404 -22.931  0.00  0.00    +0.172 C 
ATOM     24  C   UNL     1      34.463  -9.566 -24.144  0.00  0.00    +0.040 C 
ATOM     25  C   UNL     1      32.143  -9.095 -22.669  0.00  0.00    +0.043 C 
ATOM     26  C   UNL     1      34.057  -8.257 -23.882  0.00  0.00    +0.006 C 
ATOM     27  C   UNL     1      32.897  -8.022 -23.145  0.00  0.00    +0.038 C 
BRANCH  27  29
ATOM     28  O   UNL     1      32.462  -5.787 -23.765  0.00  0.00    -0.291 OA
ATOM     29  C   UNL     1      32.473  -6.657 -22.871  0.00  0.00    +0.174 C 
ATOM     30  C   UNL     1      32.029  -6.258 -21.468  0.00  0.00    +0.077 C 
ENDBRANCH  27  29
BRANCH  23  31
ATOM     31  O   UNL     1      31.805 -11.443 -22.461  0.00  0.00    -0.468 OA
ATOM     32  C   UNL     1      30.902 -11.163 -21.393  0.00  0.00    +0.253 C 
ENDBRANCH  23  31
ENDBRANCH  21  22
ENDBRANCH  20  21
ENDBRANCH  19  20
ENDBRANCH  18  19
ENDBRANCH   1  18
TORSDOF 8
ENDMDL
MODEL 2
REMARK VINA RESULT:     -11.5      4.787     12.273
REMARK  Name = 71360
REMARK  8 active torsions:
REMARK  status: ('A' for Active; 'I' for Inactive)
REMARK    1  A    between atoms: N_1  and  C_18
REMARK    2  A    between atoms: C_2  and  C_11
REMARK    3  A    between atoms: C_18  and  C_19
REMARK    4  A    between atoms: C_19  and  C_20
REMARK    5  A    between atoms: C_20  and  O_21
REMARK    6  A    between atoms: O_21  and  C_22
REMARK    7  A    between atoms: C_23  and  O_31
REMARK    8  A    between atoms: C_27  and  C_29
REMARK                            x       y       z     vdW  Elec       q    Type
REMARK                         _______ _______ _______ _____ _____    ______ ____
ROOT
ATOM      1  N   UNL     1      34.553 -21.434 -20.079  0.00  0.00    +0.387 N 
ATOM      2  C   UNL     1      34.605 -18.641 -20.973  0.00  0.00    +0.039 C 
ATOM      3  C   UNL     1      33.333 -19.501 -21.029  0.00  0.00    -0.017 C 
ATOM      4  C   UNL     1      35.848 -19.544 -21.014  0.00  0.00    -0.017 C 
ATOM      5  C   UNL     1      33.354 -20.594 -19.957  0.00  0.00    -0.077 C 
ATOM      6  C   UNL     1      35.778 -20.634 -19.942  0.00  0.00    -0.077 C 
ATOM      7  H   UNL     1      34.551 -21.851 -21.011  0.00  0.00    -0.080 HD
ENDROOT
BRANCH   2  11
ATOM      8  F   UNL     1      32.755 -12.523 -23.065  0.00  0.00    -0.204 F 
ATOM      9  O   UNL     1      35.129 -16.620 -23.910  0.00  0.00    -0.354 OA
ATOM     10  N   UNL     1      35.302 -17.779 -23.163  0.00  0.00    -0.081 NA
ATOM     11  C   UNL     1      34.629 -17.565 -22.036  0.00  0.00    +0.100 A 
ATOM     12  C   UNL     1      34.012 -16.306 -21.994  0.00  0.00    +0.054 A 
ATOM     13  C   UNL     1      34.357 -15.743 -23.210  0.00  0.00    +0.179 A 
ATOM     14  C   UNL     1      33.212 -15.572 -21.106  0.00  0.00    +0.007 C 
ATOM     15  C   UNL     1      33.966 -14.474 -23.626  0.00  0.00    +0.070 C 
ATOM     16  C   UNL     1      32.799 -14.289 -21.493  0.00  0.00    +0.030 C 
ATOM     17  C   UNL     1      33.170 -13.752 -22.730  0.00  0.00    +0.143 C 
ENDBRANCH   2  11
BRANCH   1  18
ATOM     18  C   UNL     1      34.529 -22.507 -19.085  0.00  0.00    -0.074 C 
BRANCH  18  19
ATOM     19  C   UNL     1      33.201 -22.506 -18.337  0.00  0.00    +0.025 C 
BRANCH  19  20
ATOM     20  C   UNL     1      33.241 -23.426 -17.124  0.00  0.00    +0.203 C 
BRANCH  20  21
ATOM     21  O   UNL     1      34.585 -23.825 -16.894  0.00  0.00    -0.472 OA
BRANCH  21  22
ATOM     22  C   UNL     1      35.041 -23.747 -15.604  0.00  0.00    +0.172 C 
ATOM     23  C   UNL     1      36.342 -23.327 -15.346  0.00  0.00    +0.172 C 
ATOM     24  C   UNL     1      34.189 -24.093 -14.561  0.00  0.00    +0.040 C 
ATOM     25  C   UNL     1      36.795 -23.251 -14.028  0.00  0.00    +0.043 C 
ATOM     26  C   UNL     1      34.642 -24.018 -13.244  0.00  0.00    +0.006 C 
ATOM     27  C   UNL     1      35.945 -23.597 -12.978  0.00  0.00    +0.038 C 
BRANCH  27  29
ATOM     28  O   UNL     1      37.367 -22.776 -11.284  0.00  0.00    -0.291 OA
ATOM     29  C   UNL     1      36.417 -23.518 -11.604  0.00  0.00    +0.174 C 
ATOM     30  C   UNL     1      35.751 -24.351 -10.514  0.00  0.00    +0.077 C 
ENDBRANCH  27  29
BRANCH  23  31
ATOM     31  O   UNL     1      37.181 -22.985 -16.363  0.00  0.00    -0.468 OA
ATOM     32  C   UNL     1      37.298 -21.597 -16.668  0.00  0.00    +0.253 C 
ENDBRANCH  23  31
ENDBRANCH  21  22
ENDBRANCH  20  21
ENDBRANCH  19  20
ENDBRANCH  18  19
ENDBRANCH   1  18
TORSDOF 8
ENDMDL
MODEL 3
REMARK VINA RESULT:     -11.4      1.284      1.790
REMARK  Name = 71360
REMARK  8 active torsions:
REMARK  status: ('A' for Active; 'I' for Inactive)
REMARK    1  A    between atoms: N_1  and  C_18
REMARK    2  A    between atoms: C_2  and  C_11
REMARK    3  A    between atoms: C_18  and  C_19
REMARK    4  A    between atoms: C_19  and  C_20
REMARK    5  A    between atoms: C_20  and  O_21
REMARK    6  A    between atoms: O_21  and  C_22
REMARK    7  A    between atoms: C_23  and  O_31
REMARK    8  A    between atoms: C_27  and  C_29
REMARK                            x       y       z     vdW  Elec       q    Type
REMARK                         _______ _______ _______ _____ _____    ______ ____
ROOT
ATOM      1  N   UNL     1      33.928 -14.167 -22.865  0.00  0.00    +0.387 N 
ATOM      2  C   UNL     1      34.210 -16.993 -22.130  0.00  0.00    +0.039 C 
ATOM      3  C   UNL     1      33.903 -15.898 -21.096  0.00  0.00    -0.017 C 
ATOM      4  C   UNL     1      34.930 -16.379 -23.342  0.00  0.00    -0.017 C 
ATOM      5  C   UNL     1      33.165 -14.719 -21.736  0.00  0.00    -0.077 C 
ATOM      6  C   UNL     1      34.154 -15.184 -23.901  0.00  0.00    -0.077 C 
ATOM      7  H   UNL     1      34.837 -13.867 -22.513  0.00  0.00    -0.080 HD
ENDROOT
BRANCH   2  11
ATOM      8  F   UNL     1      34.125 -22.909 -18.933  0.00  0.00    -0.204 F 
ATOM      9  O   UNL     1      36.660 -19.368 -20.975  0.00  0.00    -0.354 OA
ATOM     10  N   UNL     1      36.290 -18.182 -21.596  0.00  0.00    -0.081 NA
ATOM     11  C   UNL     1      34.961 -18.163 -21.536  0.00  0.00    +0.100 A 
ATOM     12  C   UNL     1      34.423 -19.292 -20.900  0.00  0.00    +0.054 A 
ATOM     13  C   UNL     1      35.544 -20.029 -20.559  0.00  0.00    +0.179 A 
ATOM     14  C   UNL     1      33.154 -19.788 -20.565  0.00  0.00    +0.007 C 
ATOM     15  C   UNL     1      35.508 -21.252 -19.899  0.00  0.00    +0.070 C 
ATOM     16  C   UNL     1      33.080 -21.019 -19.897  0.00  0.00    +0.030 C 
ATOM     17  C   UNL     1      34.236 -21.736 -19.571  0.00  0.00    +0.143 C 
ENDBRANCH   2  11
BRANCH   1  18
ATOM     18  C   UNL     1      33.237 -13.007 -23.429  0.00  0.00    -0.074 C 
BRANCH  18  19
ATOM     19  C   UNL     1      33.776 -12.696 -24.820  0.00  0.00    +0.025 C 
BRANCH  19  20
ATOM     20  C   UNL     1      34.193 -11.237 -24.945  0.00  0.00    +0.203 C 
BRANCH  20  21
ATOM     21  O   UNL     1      34.058 -10.610 -23.678  0.00  0.00    -0.472 OA
BRANCH  21  22
ATOM     22  C   UNL     1      33.539  -9.341 -23.667  0.00  0.00    +0.172 C 
ATOM     23  C   UNL     1      32.250  -9.116 -23.198  0.00  0.00    +0.172 C 
ATOM     24  C   UNL     1      34.318  -8.286 -24.132  0.00  0.00    +0.040 C 
ATOM     25  C   UNL     1      31.733  -7.819 -23.193  0.00  0.00    +0.043 C 
ATOM     26  C   UNL     1      33.801  -6.990 -24.126  0.00  0.00    +0.006 C 
ATOM     27  C   UNL     1      32.509  -6.757 -23.658  0.00  0.00    +0.038 C 
BRANCH  27  29
ATOM     28  O   UNL     1      31.427  -4.926 -22.635  0.00  0.00    -0.291 OA
ATOM     29  C   UNL     1      31.970  -5.406 -23.651  0.00  0.00    +0.174 C 
ATOM     30  C   UNL     1      32.061  -4.537 -24.901  0.00  0.00    +0.077 C 
ENDBRANCH  27  29
BRANCH  23  31
ATOM     31  O   UNL     1      31.482 -10.144 -22.741  0.00  0.00    -0.468 OA
ATOM     32  C   UNL     1      31.513 -10.402 -21.339  0.00  0.00    +0.253 C 
ENDBRANCH  23  31
ENDBRANCH  21  22
ENDBRANCH  20  21
ENDBRANCH  19  20
ENDBRANCH  18  19
ENDBRANCH   1  18
TORSDOF 8
ENDMDL
MODEL 4
REMARK VINA RESULT:     -11.3      4.596     12.018
REMARK  Name = 71360
REMARK  8 active torsions:
REMARK  status: ('A' for Active; 'I' for Inactive)
REMARK    1  A    between atoms: N_1  and  C_18
REMARK    2  A    between atoms: C_2  and  C_11
REMARK    3  A    between atoms: C_18  and  C_19
REMARK    4  A    between atoms: C_19  and  C_20
REMARK    5  A    between atoms: C_20  and  O_21
REMARK    6  A    between atoms: O_21  and  C_22
REMARK    7  A    between atoms: C_23  and  O_31
REMARK    8  A    between atoms: C_27  and  C_29
REMARK                            x       y       z     vdW  Elec       q    Type
REMARK                         _______ _______ _______ _____ _____    ______ ____
ROOT
ATOM      1  N   UNL     1      35.308 -20.936 -20.366  0.00  0.00    +0.387 N 
ATOM      2  C   UNL     1      34.817 -18.154 -21.157  0.00  0.00    +0.039 C 
ATOM      3  C   UNL     1      33.730 -19.238 -21.234  0.00  0.00    -0.017 C 
ATOM      4  C   UNL     1      36.208 -18.804 -21.243  0.00  0.00    -0.017 C 
ATOM      5  C   UNL     1      33.973 -20.343 -20.202  0.00  0.00    -0.077 C 
ATOM      6  C   UNL     1      36.362 -19.923 -20.211  0.00  0.00    -0.077 C 
ATOM      7  H   UNL     1      35.371 -21.313 -21.312  0.00  0.00    -0.080 HD
ENDROOT
BRANCH   2  11
ATOM      8  F   UNL     1      32.111 -12.237 -22.860  0.00  0.00    -0.204 F 
ATOM      9  O   UNL     1      34.832 -16.018 -24.059  0.00  0.00    -0.354 OA
ATOM     10  N   UNL     1      35.203 -17.167 -23.372  0.00  0.00    -0.081 NA
ATOM     11  C   UNL     1      34.621 -17.058 -22.180  0.00  0.00    +0.100 A 
ATOM     12  C   UNL     1      33.874 -15.879 -22.039  0.00  0.00    +0.054 A 
ATOM     13  C   UNL     1      34.038 -15.251 -23.262  0.00  0.00    +0.179 A 
ATOM     14  C   UNL     1      33.087 -15.261 -21.056  0.00  0.00    +0.007 C 
ATOM     15  C   UNL     1      33.472 -14.025 -23.596  0.00  0.00    +0.070 C 
ATOM     16  C   UNL     1      32.499 -14.024 -21.360  0.00  0.00    +0.030 C 
ATOM     17  C   UNL     1      32.689 -13.419 -22.607  0.00  0.00    +0.143 C 
ENDBRANCH   2  11
BRANCH   1  18
ATOM     18  C   UNL     1      35.503 -22.027 -19.411  0.00  0.00    -0.074 C 
BRANCH  18  19
ATOM     19  C   UNL     1      36.535 -21.633 -18.361  0.00  0.00    +0.025 C 
BRANCH  19  20
ATOM     20  C   UNL     1      36.044 -21.935 -16.952  0.00  0.00    +0.203 C 
BRANCH  20  21
ATOM     21  O   UNL     1      35.545 -23.265 -16.915  0.00  0.00    -0.472 OA
BRANCH  21  22
ATOM     22  C   UNL     1      34.404 -23.478 -16.185  0.00  0.00    +0.172 C 
ATOM     23  C   UNL     1      34.484 -23.986 -14.893  0.00  0.00    +0.172 C 
ATOM     24  C   UNL     1      33.170 -23.180 -16.754  0.00  0.00    +0.040 C 
ATOM     25  C   UNL     1      33.316 -24.199 -14.161  0.00  0.00    +0.043 C 
ATOM     26  C   UNL     1      32.002 -23.392 -16.021  0.00  0.00    +0.006 C 
ATOM     27  C   UNL     1      32.075 -23.902 -14.725  0.00  0.00    +0.038 C 
BRANCH  27  29
ATOM     28  O   UNL     1      30.795 -23.856 -12.743  0.00  0.00    -0.291 OA
ATOM     29  C   UNL     1      30.857 -24.122 -13.961  0.00  0.00    +0.174 C 
ATOM     30  C   UNL     1      29.616 -24.690 -14.640  0.00  0.00    +0.077 C 
ENDBRANCH  27  29
BRANCH  23  31
ATOM     31  O   UNL     1      35.690 -24.280 -14.331  0.00  0.00    -0.468 OA
ATOM     32  C   UNL     1      36.147 -23.417 -13.292  0.00  0.00    +0.253 C 
ENDBRANCH  23  31
ENDBRANCH  21  22
ENDBRANCH  20  21
ENDBRANCH  19  20
ENDBRANCH  18  19
ENDBRANCH   1  18
TORSDOF 8
ENDMDL
MODEL 5
REMARK VINA RESULT:     -11.2      3.386      5.851
REMARK  Name = 71360
REMARK  8 active torsions:
REMARK  status: ('A' for Active; 'I' for Inactive)
REMARK    1  A    between atoms: N_1  and  C_18
REMARK    2  A    between atoms: C_2  and  C_11
REMARK    3  A    between atoms: C_18  and  C_19
REMARK    4  A    between atoms: C_19  and  C_20
REMARK    5  A    between atoms: C_20  and  O_21
REMARK    6  A    between atoms: O_21  and  C_22
REMARK    7  A    between atoms: C_23  and  O_31
REMARK    8  A    between atoms: C_27  and  C_29
REMARK                            x       y       z     vdW  Elec       q    Type
REMARK                         _______ _______ _______ _____ _____    ______ ____
ROOT
ATOM      1  N   UNL     1      34.803 -20.199 -20.521  0.00  0.00    +0.387 N 
ATOM      2  C   UNL     1      34.393 -22.416 -18.643  0.00  0.00    +0.039 C 
ATOM      3  C   UNL     1      33.264 -21.451 -19.040  0.00  0.00    -0.017 C 
ATOM      4  C   UNL     1      35.755 -21.726 -18.821  0.00  0.00    -0.017 C 
ATOM      5  C   UNL     1      33.497 -20.868 -20.437  0.00  0.00    -0.077 C 
ATOM      6  C   UNL     1      35.899 -21.134 -20.225  0.00  0.00    -0.077 C 
ATOM      7  H   UNL     1      34.824 -19.459 -19.819  0.00  0.00    -0.080 HD
ENDROOT
BRANCH   2  11
ATOM      8  F   UNL     1      30.306 -24.157 -13.594  0.00  0.00    -0.204 F 
ATOM      9  O   UNL     1      34.768 -23.869 -15.367  0.00  0.00    -0.354 OA
ATOM     10  N   UNL     1      35.273 -23.402 -16.574  0.00  0.00    -0.081 NA
ATOM     11  C   UNL     1      34.207 -22.993 -17.257  0.00  0.00    +0.100 A 
ATOM     12  C   UNL     1      33.005 -23.167 -16.557  0.00  0.00    +0.054 A 
ATOM     13  C   UNL     1      33.414 -23.727 -15.359  0.00  0.00    +0.179 A 
ATOM     14  C   UNL     1      31.638 -22.929 -16.766  0.00  0.00    +0.007 C 
ATOM     15  C   UNL     1      32.553 -24.082 -14.325  0.00  0.00    +0.070 C 
ATOM     16  C   UNL     1      30.742 -23.275 -15.744  0.00  0.00    +0.030 C 
ATOM     17  C   UNL     1      31.193 -23.841 -14.547  0.00  0.00    +0.143 C 
ENDBRANCH   2  11
BRANCH   1  18
ATOM     18  C   UNL     1      34.986 -19.599 -21.842  0.00  0.00    -0.074 C 
BRANCH  18  19
ATOM     19  C   UNL     1      35.727 -18.272 -21.722  0.00  0.00    +0.025 C 
BRANCH  19  20
ATOM     20  C   UNL     1      34.808 -17.161 -21.233  0.00  0.00    +0.203 C 
BRANCH  20  21
ATOM     21  O   UNL     1      34.235 -16.509 -22.358  0.00  0.00    -0.472 OA
BRANCH  21  22
ATOM     22  C   UNL     1      33.552 -15.345 -22.117  0.00  0.00    +0.172 C 
ATOM     23  C   UNL     1      33.284 -14.463 -23.158  0.00  0.00    +0.172 C 
ATOM     24  C   UNL     1      33.135 -15.059 -20.822  0.00  0.00    +0.040 C 
ATOM     25  C   UNL     1      32.588 -13.281 -22.901  0.00  0.00    +0.043 C 
ATOM     26  C   UNL     1      32.439 -13.878 -20.564  0.00  0.00    +0.006 C 
ATOM     27  C   UNL     1      32.167 -12.989 -21.603  0.00  0.00    +0.038 C 
BRANCH  27  29
ATOM     28  O   UNL     1      30.759 -11.197 -22.218  0.00  0.00    -0.291 OA
ATOM     29  C   UNL     1      31.441 -11.757 -21.335  0.00  0.00    +0.174 C 
ATOM     30  C   UNL     1      31.498 -11.117 -19.952  0.00  0.00    +0.077 C 
ENDBRANCH  27  29
BRANCH  23  31
ATOM     31  O   UNL     1      33.690 -14.738 -24.429  0.00  0.00    -0.468 OA
ATOM     32  C   UNL     1      32.894 -14.216 -25.491  0.00  0.00    +0.253 C 
ENDBRANCH  23  31
ENDBRANCH  21  22
ENDBRANCH  20  21
ENDBRANCH  19  20
ENDBRANCH  18  19
ENDBRANCH   1  18
TORSDOF 8
ENDMDL
MODEL 6
REMARK VINA RESULT:     -11.2      5.100     12.477
REMARK  Name = 71360
REMARK  8 active torsions:
REMARK  status: ('A' for Active; 'I' for Inactive)
REMARK    1  A    between atoms: N_1  and  C_18
REMARK    2  A    between atoms: C_2  and  C_11
REMARK    3  A    between atoms: C_18  and  C_19
REMARK    4  A    between atoms: C_19  and  C_20
REMARK    5  A    between atoms: C_20  and  O_21
REMARK    6  A    between atoms: O_21  and  C_22
REMARK    7  A    between atoms: C_23  and  O_31
REMARK    8  A    between atoms: C_27  and  C_29
REMARK                            x       y       z     vdW  Elec       q    Type
REMARK                         _______ _______ _______ _____ _____    ______ ____
ROOT
ATOM      1  N   UNL     1      34.999 -20.943 -20.390  0.00  0.00    +0.387 N 
ATOM      2  C   UNL     1      34.850 -18.088 -21.050  0.00  0.00    +0.039 C 
ATOM      3  C   UNL     1      33.642 -19.030 -21.180  0.00  0.00    -0.017 C 
ATOM      4  C   UNL     1      36.154 -18.895 -21.163  0.00  0.00    -0.017 C 
ATOM      5  C   UNL     1      33.744 -20.203 -20.202  0.00  0.00    -0.077 C 
ATOM      6  C   UNL     1      36.165 -20.072 -20.185  0.00  0.00    -0.077 C 
ATOM      7  H   UNL     1      35.024 -21.280 -21.353  0.00  0.00    -0.080 HD
ENDROOT
BRANCH   2  11
ATOM      8  F   UNL     1      32.256 -12.145 -22.833  0.00  0.00    -0.204 F 
ATOM      9  O   UNL     1      35.292 -15.758 -23.763  0.00  0.00    -0.354 OA
ATOM     10  N   UNL     1      35.580 -16.941 -23.094  0.00  0.00    -0.081 NA
ATOM     11  C   UNL     1      34.794 -16.930 -22.021  0.00  0.00    +0.100 A 
ATOM     12  C   UNL     1      33.989 -15.785 -21.942  0.00  0.00    +0.054 A 
ATOM     13  C   UNL     1      34.340 -15.070 -23.073  0.00  0.00    +0.179 A 
ATOM     14  C   UNL     1      33.017 -15.258 -21.078  0.00  0.00    +0.007 C 
ATOM     15  C   UNL     1      33.794 -13.840 -23.426  0.00  0.00    +0.070 C 
ATOM     16  C   UNL     1      32.444 -14.019 -21.403  0.00  0.00    +0.030 C 
ATOM     17  C   UNL     1      32.826 -13.325 -22.556  0.00  0.00    +0.143 C 
ENDBRANCH   2  11
BRANCH   1  18
ATOM     18  C   UNL     1      35.055 -22.093 -19.487  0.00  0.00    -0.074 C 
BRANCH  18  19
ATOM     19  C   UNL     1      33.708 -22.295 -18.803  0.00  0.00    +0.025 C 
BRANCH  19  20
ATOM     20  C   UNL     1      33.725 -23.504 -17.879  0.00  0.00    +0.203 C 
BRANCH  20  21
ATOM     21  O   UNL     1      33.126 -23.146 -16.641  0.00  0.00    -0.472 OA
BRANCH  21  22
ATOM     22  C   UNL     1      33.797 -23.505 -15.502  0.00  0.00    +0.172 C 
ATOM     23  C   UNL     1      33.092 -23.889 -14.366  0.00  0.00    +0.172 C 
ATOM     24  C   UNL     1      35.187 -23.477 -15.497  0.00  0.00    +0.040 C 
ATOM     25  C   UNL     1      33.787 -24.252 -13.212  0.00  0.00    +0.043 C 
ATOM     26  C   UNL     1      35.882 -23.840 -14.342  0.00  0.00    +0.006 C 
ATOM     27  C   UNL     1      35.181 -24.227 -13.200  0.00  0.00    +0.038 C 
BRANCH  27  29
ATOM     28  O   UNL     1      35.314 -25.062 -10.997  0.00  0.00    -0.291 OA
ATOM     29  C   UNL     1      35.906 -24.605 -11.996  0.00  0.00    +0.174 C 
ATOM     30  C   UNL     1      37.421 -24.451 -11.931  0.00  0.00    +0.077 C 
ENDBRANCH  27  29
BRANCH  23  31
ATOM     31  O   UNL     1      31.730 -23.918 -14.365  0.00  0.00    -0.468 OA
ATOM     32  C   UNL     1      31.107 -25.095 -13.854  0.00  0.00    +0.253 C 
ENDBRANCH  23  31
ENDBRANCH  21  22
ENDBRANCH  20  21
ENDBRANCH  19  20
ENDBRANCH  18  19
ENDBRANCH   1  18
TORSDOF 8
ENDMDL
MODEL 7
REMARK VINA RESULT:     -11.0      2.879      4.700
REMARK  Name = 71360
REMARK  8 active torsions:
REMARK  status: ('A' for Active; 'I' for Inactive)
REMARK    1  A    between atoms: N_1  and  C_18
REMARK    2  A    between atoms: C_2  and  C_11
REMARK    3  A    between atoms: C_18  and  C_19
REMARK    4  A    between atoms: C_19  and  C_20
REMARK    5  A    between atoms: C_20  and  O_21
REMARK    6  A    between atoms: O_21  and  C_22
REMARK    7  A    between atoms: C_23  and  O_31
REMARK    8  A    between atoms: C_27  and  C_29
REMARK                            x       y       z     vdW  Elec       q    Type
REMARK                         _______ _______ _______ _____ _____    ______ ____
ROOT
ATOM      1  N   UNL     1      35.335 -18.375 -21.492  0.00  0.00    +0.387 N 
ATOM      2  C   UNL     1      34.728 -20.979 -20.284  0.00  0.00    +0.039 C 
ATOM      3  C   UNL     1      33.630 -20.002 -20.734  0.00  0.00    -0.017 C 
ATOM      4  C   UNL     1      36.019 -20.204 -19.972  0.00  0.00    -0.017 C 
ATOM      5  C   UNL     1      34.118 -19.104 -21.875  0.00  0.00    -0.077 C 
ATOM      6  C   UNL     1      36.421 -19.301 -21.140  0.00  0.00    -0.077 C 
ATOM      7  H   UNL     1      35.120 -17.815 -20.667  0.00  0.00    -0.080 HD
ENDROOT
BRANCH   2  11
ATOM      8  F   UNL     1      36.079 -23.936 -14.398  0.00  0.00    -0.204 F 
ATOM      9  O   UNL     1      32.980 -23.137 -17.988  0.00  0.00    -0.354 OA
ATOM     10  N   UNL     1      33.066 -22.392 -19.158  0.00  0.00    -0.081 NA
ATOM     11  C   UNL     1      34.288 -21.865 -19.140  0.00  0.00    +0.100 A 
ATOM     12  C   UNL     1      35.026 -22.225 -18.004  0.00  0.00    +0.054 A 
ATOM     13  C   UNL     1      34.152 -23.036 -17.301  0.00  0.00    +0.179 A 
ATOM     14  C   UNL     1      36.303 -21.981 -17.476  0.00  0.00    +0.007 C 
ATOM     15  C   UNL     1      34.448 -23.639 -16.083  0.00  0.00    +0.070 C 
ATOM     16  C   UNL     1      36.636 -22.574 -16.249  0.00  0.00    +0.030 C 
ATOM     17  C   UNL     1      35.724 -23.387 -15.567  0.00  0.00    +0.143 C 
ENDBRANCH   2  11
BRANCH   1  18
ATOM     18  C   UNL     1      35.755 -17.480 -22.571  0.00  0.00    -0.074 C 
BRANCH  18  19
ATOM     19  C   UNL     1      34.801 -17.592 -23.753  0.00  0.00    +0.025 C 
BRANCH  19  20
ATOM     20  C   UNL     1      34.357 -16.222 -24.246  0.00  0.00    +0.203 C 
BRANCH  20  21
ATOM     21  O   UNL     1      34.914 -15.226 -23.400  0.00  0.00    -0.472 OA
BRANCH  21  22
ATOM     22  C   UNL     1      34.036 -14.364 -22.798  0.00  0.00    +0.172 C 
ATOM     23  C   UNL     1      33.639 -13.201 -23.450  0.00  0.00    +0.172 C 
ATOM     24  C   UNL     1      33.549 -14.666 -21.530  0.00  0.00    +0.040 C 
ATOM     25  C   UNL     1      32.744 -12.330 -22.827  0.00  0.00    +0.043 C 
ATOM     26  C   UNL     1      32.654 -13.795 -20.907  0.00  0.00    +0.006 C 
ATOM     27  C   UNL     1      32.253 -12.627 -21.555  0.00  0.00    +0.038 C 
BRANCH  27  29
ATOM     28  O   UNL     1      30.342 -11.244 -21.519  0.00  0.00    -0.291 OA
ATOM     29  C   UNL     1      31.319 -11.720 -20.906  0.00  0.00    +0.174 C 
ATOM     30  C   UNL     1      31.518 -11.329 -19.446  0.00  0.00    +0.077 C 
ENDBRANCH  27  29
BRANCH  23  31
ATOM     31  O   UNL     1      34.112 -12.900 -24.691  0.00  0.00    -0.468 OA
ATOM     32  C   UNL     1      33.882 -11.576 -25.169  0.00  0.00    +0.253 C 
ENDBRANCH  23  31
ENDBRANCH  21  22
ENDBRANCH  20  21
ENDBRANCH  19  20
ENDBRANCH  18  19
ENDBRANCH   1  18
TORSDOF 8
ENDMDL
MODEL 8
REMARK VINA RESULT:     -11.0      4.492      7.797
REMARK  Name = 71360
REMARK  8 active torsions:
REMARK  status: ('A' for Active; 'I' for Inactive)
REMARK    1  A    between atoms: N_1  and  C_18
REMARK    2  A    between atoms: C_2  and  C_11
REMARK    3  A    between atoms: C_18  and  C_19
REMARK    4  A    between atoms: C_19  and  C_20
REMARK    5  A    between atoms: C_20  and  O_21
REMARK    6  A    between atoms: O_21  and  C_22
REMARK    7  A    between atoms: C_23  and  O_31
REMARK    8  A    between atoms: C_27  and  C_29
REMARK                            x       y       z     vdW  Elec       q    Type
REMARK                         _______ _______ _______ _____ _____    ______ ____
ROOT
ATOM      1  N   UNL     1      35.984 -22.051 -18.975  0.00  0.00    +0.387 N 
ATOM      2  C   UNL     1      34.203 -22.558 -16.700  0.00  0.00    +0.039 C 
ATOM      3  C   UNL     1      35.734 -22.616 -16.578  0.00  0.00    -0.017 C 
ATOM      4  C   UNL     1      33.785 -22.834 -18.153  0.00  0.00    -0.017 C 
ATOM      5  C   UNL     1      36.408 -21.708 -17.611  0.00  0.00    -0.077 C 
ATOM      6  C   UNL     1      34.528 -21.918 -19.128  0.00  0.00    -0.077 C 
ATOM      7  H   UNL     1      36.230 -23.026 -19.145  0.00  0.00    -0.080 HD
ENDROOT
BRANCH   2  11
ATOM      8  F   UNL     1      28.504 -25.136 -14.231  0.00  0.00    -0.204 F 
ATOM      9  O   UNL     1      33.304 -24.874 -14.089  0.00  0.00    -0.354 OA
ATOM     10  N   UNL     1      34.230 -24.157 -14.837  0.00  0.00    -0.081 NA
ATOM     11  C   UNL     1      33.504 -23.464 -15.710  0.00  0.00    +0.100 A 
ATOM     12  C   UNL     1      32.126 -23.687 -15.579  0.00  0.00    +0.054 A 
ATOM     13  C   UNL     1      32.049 -24.591 -14.534  0.00  0.00    +0.179 A 
ATOM     14  C   UNL     1      30.942 -23.252 -16.193  0.00  0.00    +0.007 C 
ATOM     15  C   UNL     1      30.860 -25.115 -14.036  0.00  0.00    +0.070 C 
ATOM     16  C   UNL     1      29.724 -23.760 -15.717  0.00  0.00    +0.030 C 
ATOM     17  C   UNL     1      29.686 -24.674 -14.658  0.00  0.00    +0.143 C 
ENDBRANCH   2  11
BRANCH   1  18
ATOM     18  C   UNL     1      36.679 -21.213 -19.952  0.00  0.00    -0.074 C 
BRANCH  18  19
ATOM     19  C   UNL     1      35.710 -20.217 -20.579  0.00  0.00    +0.025 C 
BRANCH  19  20
ATOM     20  C   UNL     1      36.427 -18.956 -21.044  0.00  0.00    +0.203 C 
BRANCH  20  21
ATOM     21  O   UNL     1      35.579 -17.837 -20.823  0.00  0.00    -0.472 OA
BRANCH  21  22
ATOM     22  C   UNL     1      35.078 -17.211 -21.934  0.00  0.00    +0.172 C 
ATOM     23  C   UNL     1      34.334 -16.044 -21.804  0.00  0.00    +0.172 C 
ATOM     24  C   UNL     1      35.323 -17.759 -23.189  0.00  0.00    +0.040 C 
ATOM     25  C   UNL     1      33.829 -15.415 -22.942  0.00  0.00    +0.043 C 
ATOM     26  C   UNL     1      34.817 -17.131 -24.328  0.00  0.00    +0.006 C 
ATOM     27  C   UNL     1      34.070 -15.959 -24.204  0.00  0.00    +0.038 C 
BRANCH  27  29
ATOM     28  O   UNL     1      33.530 -15.878 -26.499  0.00  0.00    -0.291 OA
ATOM     29  C   UNL     1      33.544 -15.304 -25.392  0.00  0.00    +0.174 C 
ATOM     30  C   UNL     1      32.993 -13.886 -25.305  0.00  0.00    +0.077 C 
ENDBRANCH  27  29
BRANCH  23  31
ATOM     31  O   UNL     1      34.092 -15.502 -20.577  0.00  0.00    -0.468 OA
ATOM     32  C   UNL     1      32.896 -14.740 -20.430  0.00  0.00    +0.253 C 
ENDBRANCH  23  31
ENDBRANCH  21  22
ENDBRANCH  20  21
ENDBRANCH  19  20
ENDBRANCH  18  19
ENDBRANCH   1  18
TORSDOF 8
ENDMDL
MODEL 9
REMARK VINA RESULT:     -10.9      2.622      4.282
REMARK  Name = 71360
REMARK  8 active torsions:
REMARK  status: ('A' for Active; 'I' for Inactive)
REMARK    1  A    between atoms: N_1  and  C_18
REMARK    2  A    between atoms: C_2  and  C_11
REMARK    3  A    between atoms: C_18  and  C_19
REMARK    4  A    between atoms: C_19  and  C_20
REMARK    5  A    between atoms: C_20  and  O_21
REMARK    6  A    between atoms: O_21  and  C_22
REMARK    7  A    between atoms: C_23  and  O_31
REMARK    8  A    between atoms: C_27  and  C_29
REMARK                            x       y       z     vdW  Elec       q    Type
REMARK                         _______ _______ _______ _____ _____    ______ ____
ROOT
ATOM      1  N   UNL     1      31.806 -12.509 -22.064  0.00  0.00    +0.387 N 
ATOM      2  C   UNL     1      33.921 -14.475 -21.549  0.00  0.00    +0.039 C 
ATOM      3  C   UNL     1      33.563 -14.001 -22.966  0.00  0.00    -0.017 C 
ATOM      4  C   UNL     1      32.708 -14.305 -20.620  0.00  0.00    -0.017 C 
ATOM      5  C   UNL     1      32.978 -12.586 -22.947  0.00  0.00    -0.077 C 
ATOM      6  C   UNL     1      32.154 -12.880 -20.685  0.00  0.00    -0.077 C 
ATOM      7  H   UNL     1      31.112 -13.176 -22.403  0.00  0.00    -0.080 HD
ENDROOT
BRANCH   2  11
ATOM      8  F   UNL     1      35.219 -20.242 -24.757  0.00  0.00    -0.204 F 
ATOM      9  O   UNL     1      35.423 -17.643 -20.715  0.00  0.00    -0.354 OA
ATOM     10  N   UNL     1      35.010 -16.354 -20.403  0.00  0.00    -0.081 NA
ATOM     11  C   UNL     1      34.480 -15.880 -21.528  0.00  0.00    +0.100 A 
ATOM     12  C   UNL     1      34.523 -16.801 -22.585  0.00  0.00    +0.054 A 
ATOM     13  C   UNL     1      35.130 -17.908 -22.018  0.00  0.00    +0.179 A 
ATOM     14  C   UNL     1      34.132 -16.853 -23.931  0.00  0.00    +0.007 C 
ATOM     15  C   UNL     1      35.392 -19.093 -22.698  0.00  0.00    +0.070 C 
ATOM     16  C   UNL     1      34.380 -18.033 -24.648  0.00  0.00    +0.030 C 
ATOM     17  C   UNL     1      34.999 -19.131 -24.040  0.00  0.00    +0.143 C 
ENDBRANCH   2  11
BRANCH   1  18
ATOM     18  C   UNL     1      31.225 -11.167 -22.101  0.00  0.00    -0.074 C 
BRANCH  18  19
ATOM     19  C   UNL     1      31.310 -10.515 -20.726  0.00  0.00    +0.025 C 
BRANCH  19  20
ATOM     20  C   UNL     1      31.980  -9.150 -20.794  0.00  0.00    +0.203 C 
BRANCH  20  21
ATOM     21  O   UNL     1      32.892  -9.139 -21.884  0.00  0.00    -0.472 OA
BRANCH  21  22
ATOM     22  C   UNL     1      32.792  -8.094 -22.765  0.00  0.00    +0.172 C 
ATOM     23  C   UNL     1      33.849  -7.794 -23.617  0.00  0.00    +0.172 C 
ATOM     24  C   UNL     1      31.624  -7.341 -22.793  0.00  0.00    +0.040 C 
ATOM     25  C   UNL     1      33.735  -6.727 -24.509  0.00  0.00    +0.043 C 
ATOM     26  C   UNL     1      31.510  -6.274 -23.685  0.00  0.00    +0.006 C 
ATOM     27  C   UNL     1      32.566  -5.967 -24.543  0.00  0.00    +0.038 C 
BRANCH  27  29
ATOM     28  O   UNL     1      31.704  -3.882 -25.234  0.00  0.00    -0.291 OA
ATOM     29  C   UNL     1      32.447  -4.856 -25.474  0.00  0.00    +0.174 C 
ATOM     30  C   UNL     1      33.238  -4.857 -26.777  0.00  0.00    +0.077 C 
ENDBRANCH  27  29
BRANCH  23  31
ATOM     31  O   UNL     1      34.996  -8.528 -23.594  0.00  0.00    -0.468 OA
ATOM     32  C   UNL     1      35.064  -9.650 -24.472  0.00  0.00    +0.253 C 
ENDBRANCH  23  31
ENDBRANCH  21  22
ENDBRANCH  20  21
ENDBRANCH  19  20
ENDBRANCH  18  19
ENDBRANCH   1  18
TORSDOF 8
ENDMDL
