MODEL 1
REMARK VINA RESULT:     -10.8      0.000      0.000
REMARK  Name = 119202
REMARK  6 active torsions:
REMARK  status: ('A' for Active; 'I' for Inactive)
REMARK    1  A    between atoms: C_9  and  O_21
REMARK    2  A    between atoms: O_21  and  C_23
REMARK    3  A    between atoms: C_23  and  C_24
REMARK    4  A    between atoms: C_24  and  C_25
REMARK    5  A    between atoms: C_25  and  C_27
REMARK    6  A    between atoms: C_27  and  O_28
REMARK                            x       y       z     vdW  Elec       q    Type
REMARK                         _______ _______ _______ _____ _____    ______ ____
ROOT
ATOM      1  O   UNL     1      40.164 -26.162 -13.950  0.00  0.00    -0.291 OA
ATOM      2  C   UNL     1      33.218 -23.629 -15.867  0.00  0.00    +0.003 C 
ATOM      3  C   UNL     1      32.109 -23.740 -14.803  0.00  0.00    +0.037 C 
ATOM      4  C   UNL     1      34.594 -23.348 -15.259  0.00  0.00    +0.001 C 
ATOM      5  C   UNL     1      34.963 -24.514 -14.288  0.00  0.00    +0.003 C 
ATOM      6  C   UNL     1      36.389 -24.343 -13.638  0.00  0.00    +0.016 C 
ATOM      7  C   UNL     1      32.438 -24.934 -13.898  0.00  0.00    +0.003 C 
ATOM      8  C   UNL     1      33.831 -24.790 -13.259  0.00  0.00    +0.000 C 
ATOM      9  C   UNL     1      30.894 -23.948 -15.728  0.00  0.00    +0.169 C 
ATOM     10  C   UNL     1      32.638 -22.647 -16.883  0.00  0.00    +0.004 C 
ATOM     11  C   UNL     1      35.669 -23.209 -16.345  0.00  0.00    +0.004 C 
ATOM     12  C   UNL     1      31.130 -22.957 -16.884  0.00  0.00    +0.044 C 
ATOM     13  C   UNL     1      37.418 -24.032 -14.734  0.00  0.00    -0.042 C 
ATOM     14  C   UNL     1      31.915 -22.470 -13.936  0.00  0.00    +0.004 C 
ATOM     15  C   UNL     1      37.041 -22.963 -15.734  0.00  0.00    +0.022 C 
ATOM     16  C   UNL     1      36.763 -25.672 -12.920  0.00  0.00    +0.012 C 
ATOM     17  C   UNL     1      36.421 -23.192 -12.607  0.00  0.00    +0.004 C 
ATOM     18  C   UNL     1      38.240 -25.786 -12.576  0.00  0.00    +0.069 C 
ATOM     19  C   UNL     1      38.616 -24.632 -14.832  0.00  0.00    +0.029 C 
ATOM     20  C   UNL     1      39.082 -25.597 -13.810  0.00  0.00    +0.173 C 
ENDROOT
BRANCH   9  21
ATOM     21  O   UNL     1      29.660 -23.712 -15.079  0.00  0.00    -0.452 OA
BRANCH  21  23
ATOM     22  O   UNL     1      28.167 -24.361 -16.713  0.00  0.00    -0.250 OA
ATOM     23  C   UNL     1      28.569 -23.543 -15.897  0.00  0.00    +0.317 C 
BRANCH  23  24
ATOM     24  C   UNL     1      27.945 -22.190 -15.631  0.00  0.00    +0.121 C 
BRANCH  24  25
ATOM     25  C   UNL     1      26.516 -22.076 -16.149  0.00  0.00    +0.121 C 
BRANCH  25  27
ATOM     26  O   UNL     1      26.285 -20.403 -17.878  0.00  0.00    -0.250 OA
ATOM     27  C   UNL     1      26.488 -21.570 -17.571  0.00  0.00    +0.314 C 
BRANCH  27  28
ATOM     28  O   UNL     1      26.736 -22.548 -18.477  0.00  0.00    -0.480 OA
ATOM     29  H   UNL     1      27.336 -23.237 -18.271  0.00  0.00    +0.295 HD
ENDBRANCH  27  28
ENDBRANCH  25  27
ENDBRANCH  24  25
ENDBRANCH  23  24
ENDBRANCH  21  23
ENDBRANCH   9  21
TORSDOF 6
ENDMDL
MODEL 2
REMARK VINA RESULT:      -9.3      9.428     12.397
REMARK  Name = 119202
REMARK  6 active torsions:
REMARK  status: ('A' for Active; 'I' for Inactive)
REMARK    1  A    between atoms: C_9  and  O_21
REMARK    2  A    between atoms: O_21  and  C_23
REMARK    3  A    between atoms: C_23  and  C_24
REMARK    4  A    between atoms: C_24  and  C_25
REMARK    5  A    between atoms: C_25  and  C_27
REMARK    6  A    between atoms: C_27  and  O_28
REMARK                            x       y       z     vdW  Elec       q    Type
REMARK                         _______ _______ _______ _____ _____    ______ ____
ROOT
ATOM      1  O   UNL     1      34.351 -10.255 -25.826  0.00  0.00    -0.291 OA
ATOM      2  C   UNL     1      34.726 -17.432 -23.242  0.00  0.00    +0.003 C 
ATOM      3  C   UNL     1      34.539 -17.646 -21.728  0.00  0.00    +0.037 C 
ATOM      4  C   UNL     1      33.882 -16.276 -23.784  0.00  0.00    +0.001 C 
ATOM      5  C   UNL     1      34.296 -14.962 -23.049  0.00  0.00    +0.003 C 
ATOM      6  C   UNL     1      33.511 -13.697 -23.567  0.00  0.00    +0.016 C 
ATOM      7  C   UNL     1      35.018 -16.381 -21.007  0.00  0.00    +0.003 C 
ATOM      8  C   UNL     1      34.269 -15.130 -21.504  0.00  0.00    +0.000 C 
ATOM      9  C   UNL     1      35.443 -18.879 -21.535  0.00  0.00    +0.169 C 
ATOM     10  C   UNL     1      34.535 -18.831 -23.825  0.00  0.00    +0.004 C 
ATOM     11  C   UNL     1      34.064 -16.111 -25.299  0.00  0.00    +0.004 C 
ATOM     12  C   UNL     1      35.132 -19.765 -22.757  0.00  0.00    +0.044 C 
ATOM     13  C   UNL     1      33.565 -13.653 -25.100  0.00  0.00    -0.042 C 
ATOM     14  C   UNL     1      33.086 -17.971 -21.295  0.00  0.00    +0.004 C 
ATOM     15  C   UNL     1      33.248 -14.940 -25.827  0.00  0.00    +0.022 C 
ATOM     16  C   UNL     1      34.188 -12.425 -22.976  0.00  0.00    +0.012 C 
ATOM     17  C   UNL     1      32.027 -13.719 -23.138  0.00  0.00    +0.004 C 
ATOM     18  C   UNL     1      33.783 -11.137 -23.675  0.00  0.00    +0.069 C 
ATOM     19  C   UNL     1      33.850 -12.549 -25.811  0.00  0.00    +0.029 C 
ATOM     20  C   UNL     1      34.048 -11.237 -25.153  0.00  0.00    +0.173 C 
ENDROOT
BRANCH   9  21
ATOM     21  O   UNL     1      35.198 -19.558 -20.318  0.00  0.00    -0.452 OA
BRANCH  21  23
ATOM     22  O   UNL     1      37.314 -20.391 -19.929  0.00  0.00    -0.250 OA
ATOM     23  C   UNL     1      36.101 -20.538 -19.981  0.00  0.00    +0.317 C 
BRANCH  23  24
ATOM     24  C   UNL     1      35.359 -21.824 -19.685  0.00  0.00    +0.121 C 
BRANCH  24  25
ATOM     25  C   UNL     1      33.858 -21.625 -19.518  0.00  0.00    +0.121 C 
BRANCH  25  27
ATOM     26  O   UNL     1      32.153 -22.426 -18.005  0.00  0.00    -0.250 OA
ATOM     27  C   UNL     1      33.320 -22.445 -18.371  0.00  0.00    +0.314 C 
BRANCH  27  28
ATOM     28  O   UNL     1      34.269 -23.227 -17.799  0.00  0.00    -0.480 OA
ATOM     29  H   UNL     1      34.592 -23.022 -16.944  0.00  0.00    +0.295 HD
ENDBRANCH  27  28
ENDBRANCH  25  27
ENDBRANCH  24  25
ENDBRANCH  23  24
ENDBRANCH  21  23
ENDBRANCH   9  21
TORSDOF 6
ENDMDL
MODEL 3
REMARK VINA RESULT:      -9.3      4.016      8.435
REMARK  Name = 119202
REMARK  6 active torsions:
REMARK  status: ('A' for Active; 'I' for Inactive)
REMARK    1  A    between atoms: C_9  and  O_21
REMARK    2  A    between atoms: O_21  and  C_23
REMARK    3  A    between atoms: C_23  and  C_24
REMARK    4  A    between atoms: C_24  and  C_25
REMARK    5  A    between atoms: C_25  and  C_27
REMARK    6  A    between atoms: C_27  and  O_28
REMARK                            x       y       z     vdW  Elec       q    Type
REMARK                         _______ _______ _______ _____ _____    ______ ____
ROOT
ATOM      1  O   UNL     1      33.559 -18.778 -21.853  0.00  0.00    -0.291 OA
ATOM      2  C   UNL     1      36.148 -22.522 -15.720  0.00  0.00    +0.003 C 
ATOM      3  C   UNL     1      35.226 -23.594 -15.109  0.00  0.00    +0.037 C 
ATOM      4  C   UNL     1      36.019 -22.430 -17.242  0.00  0.00    +0.001 C 
ATOM      5  C   UNL     1      34.543 -22.070 -17.602  0.00  0.00    +0.003 C 
ATOM      6  C   UNL     1      34.312 -21.908 -19.153  0.00  0.00    +0.016 C 
ATOM      7  C   UNL     1      33.775 -23.195 -15.400  0.00  0.00    +0.003 C 
ATOM      8  C   UNL     1      33.529 -23.024 -16.911  0.00  0.00    +0.000 C 
ATOM      9  C   UNL     1      35.643 -23.471 -13.630  0.00  0.00    +0.169 C 
ATOM     10  C   UNL     1      37.511 -22.832 -15.105  0.00  0.00    +0.004 C 
ATOM     11  C   UNL     1      36.973 -21.378 -17.823  0.00  0.00    +0.004 C 
ATOM     12  C   UNL     1      37.177 -23.326 -13.686  0.00  0.00    +0.044 C 
ATOM     13  C   UNL     1      35.389 -20.985 -19.738  0.00  0.00    -0.042 C 
ATOM     14  C   UNL     1      35.480 -25.035 -15.622  0.00  0.00    +0.004 C 
ATOM     15  C   UNL     1      36.817 -21.268 -19.333  0.00  0.00    +0.022 C 
ATOM     16  C   UNL     1      32.902 -21.287 -19.376  0.00  0.00    +0.012 C 
ATOM     17  C   UNL     1      34.384 -23.262 -19.894  0.00  0.00    +0.004 C 
ATOM     18  C   UNL     1      32.694 -20.733 -20.777  0.00  0.00    +0.069 C 
ATOM     19  C   UNL     1      35.134 -19.977 -20.589  0.00  0.00    +0.029 C 
ATOM     20  C   UNL     1      33.769 -19.734 -21.111  0.00  0.00    +0.173 C 
ENDROOT
BRANCH   9  21
ATOM     21  O   UNL     1      35.250 -24.584 -12.851  0.00  0.00    -0.452 OA
BRANCH  21  23
ATOM     22  O   UNL     1      36.257 -24.644 -10.776  0.00  0.00    -0.250 OA
ATOM     23  C   UNL     1      36.168 -25.034 -11.932  0.00  0.00    +0.317 C 
BRANCH  23  24
ATOM     24  C   UNL     1      37.049 -26.083 -12.575  0.00  0.00    +0.121 C 
BRANCH  24  25
ATOM     25  C   UNL     1      38.537 -25.814 -12.385  0.00  0.00    +0.121 C 
BRANCH  25  27
ATOM     26  O   UNL     1      40.210 -25.096 -13.974  0.00  0.00    -0.250 OA
ATOM     27  C   UNL     1      39.269 -25.831 -13.704  0.00  0.00    +0.314 C 
BRANCH  27  28
ATOM     28  O   UNL     1      38.787 -26.769 -14.557  0.00  0.00    -0.480 OA
ATOM     29  H   UNL     1      38.185 -27.417 -14.249  0.00  0.00    +0.295 HD
ENDBRANCH  27  28
ENDBRANCH  25  27
ENDBRANCH  24  25
ENDBRANCH  23  24
ENDBRANCH  21  23
ENDBRANCH   9  21
TORSDOF 6
ENDMDL
MODEL 4
REMARK VINA RESULT:      -8.5      3.273      5.791
REMARK  Name = 119202
REMARK  6 active torsions:
REMARK  status: ('A' for Active; 'I' for Inactive)
REMARK    1  A    between atoms: C_9  and  O_21
REMARK    2  A    between atoms: O_21  and  C_23
REMARK    3  A    between atoms: C_23  and  C_24
REMARK    4  A    between atoms: C_24  and  C_25
REMARK    5  A    between atoms: C_25  and  C_27
REMARK    6  A    between atoms: C_27  and  O_28
REMARK                            x       y       z     vdW  Elec       q    Type
REMARK                         _______ _______ _______ _____ _____    ______ ____
ROOT
ATOM      1  O   UNL     1      35.383 -18.409 -21.776  0.00  0.00    -0.291 OA
ATOM      2  C   UNL     1      34.846 -22.846 -15.582  0.00  0.00    +0.003 C 
ATOM      3  C   UNL     1      33.588 -23.726 -15.454  0.00  0.00    +0.037 C 
ATOM      4  C   UNL     1      35.298 -22.670 -17.034  0.00  0.00    +0.001 C 
ATOM      5  C   UNL     1      34.144 -21.997 -17.843  0.00  0.00    +0.003 C 
ATOM      6  C   UNL     1      34.526 -21.730 -19.349  0.00  0.00    +0.016 C 
ATOM      7  C   UNL     1      32.439 -23.022 -16.186  0.00  0.00    +0.003 C 
ATOM      8  C   UNL     1      32.794 -22.744 -17.658  0.00  0.00    +0.000 C 
ATOM      9  C   UNL     1      33.455 -23.750 -13.918  0.00  0.00    +0.169 C 
ATOM     10  C   UNL     1      35.813 -23.457 -14.570  0.00  0.00    +0.004 C 
ATOM     11  C   UNL     1      36.571 -21.819 -17.126  0.00  0.00    +0.004 C 
ATOM     12  C   UNL     1      34.902 -23.925 -13.420  0.00  0.00    +0.044 C 
ATOM     13  C   UNL     1      35.890 -21.029 -19.416  0.00  0.00    -0.042 C 
ATOM     14  C   UNL     1      33.747 -25.167 -16.003  0.00  0.00    +0.004 C 
ATOM     15  C   UNL     1      36.997 -21.619 -18.574  0.00  0.00    +0.022 C 
ATOM     16  C   UNL     1      33.430 -20.820 -19.978  0.00  0.00    +0.012 C 
ATOM     17  C   UNL     1      34.617 -23.040 -20.164  0.00  0.00    +0.004 C 
ATOM     18  C   UNL     1      33.849 -20.181 -21.293  0.00  0.00    +0.069 C 
ATOM     19  C   UNL     1      36.147 -19.958 -20.184  0.00  0.00    +0.029 C 
ATOM     20  C   UNL     1      35.133 -19.416 -21.118  0.00  0.00    +0.173 C 
ENDROOT
BRANCH   9  21
ATOM     21  O   UNL     1      32.611 -24.786 -13.454  0.00  0.00    -0.452 OA
BRANCH  21  23
ATOM     22  O   UNL     1      30.740 -23.667 -12.696  0.00  0.00    -0.250 OA
ATOM     23  C   UNL     1      31.266 -24.501 -13.421  0.00  0.00    +0.317 C 
BRANCH  23  24
ATOM     24  C   UNL     1      30.542 -25.380 -14.418  0.00  0.00    +0.121 C 
BRANCH  24  25
ATOM     25  C   UNL     1      29.066 -25.029 -14.564  0.00  0.00    +0.121 C 
BRANCH  25  27
ATOM     26  O   UNL     1      28.563 -24.364 -16.832  0.00  0.00    -0.250 OA
ATOM     27  C   UNL     1      28.846 -24.043 -15.685  0.00  0.00    +0.314 C 
BRANCH  27  28
ATOM     28  O   UNL     1      28.973 -22.755 -15.280  0.00  0.00    -0.480 OA
ATOM     29  H   UNL     1      28.339 -22.380 -14.702  0.00  0.00    +0.295 HD
ENDBRANCH  27  28
ENDBRANCH  25  27
ENDBRANCH  24  25
ENDBRANCH  23  24
ENDBRANCH  21  23
ENDBRANCH   9  21
TORSDOF 6
ENDMDL
MODEL 5
REMARK VINA RESULT:      -8.4     10.630     13.506
REMARK  Name = 119202
REMARK  6 active torsions:
REMARK  status: ('A' for Active; 'I' for Inactive)
REMARK    1  A    between atoms: C_9  and  O_21
REMARK    2  A    between atoms: O_21  and  C_23
REMARK    3  A    between atoms: C_23  and  C_24
REMARK    4  A    between atoms: C_24  and  C_25
REMARK    5  A    between atoms: C_25  and  C_27
REMARK    6  A    between atoms: C_27  and  O_28
REMARK                            x       y       z     vdW  Elec       q    Type
REMARK                         _______ _______ _______ _____ _____    ______ ____
ROOT
ATOM      1  O   UNL     1      32.576  -6.963 -21.583  0.00  0.00    -0.291 OA
ATOM      2  C   UNL     1      34.182 -14.369 -22.536  0.00  0.00    +0.003 C 
ATOM      3  C   UNL     1      33.676 -15.344 -21.456  0.00  0.00    +0.037 C 
ATOM      4  C   UNL     1      33.228 -13.194 -22.765  0.00  0.00    +0.001 C 
ATOM      5  C   UNL     1      33.071 -12.405 -21.427  0.00  0.00    +0.003 C 
ATOM      6  C   UNL     1      32.137 -11.142 -21.567  0.00  0.00    +0.016 C 
ATOM      7  C   UNL     1      33.596 -14.582 -20.128  0.00  0.00    +0.003 C 
ATOM      8  C   UNL     1      32.694 -13.339 -20.243  0.00  0.00    +0.000 C 
ATOM      9  C   UNL     1      34.797 -16.400 -21.526  0.00  0.00    +0.169 C 
ATOM     10  C   UNL     1      34.530 -15.286 -23.707  0.00  0.00    +0.004 C 
ATOM     11  C   UNL     1      33.743 -12.262 -23.869  0.00  0.00    +0.004 C 
ATOM     12  C   UNL     1      35.060 -16.565 -23.035  0.00  0.00    +0.044 C 
ATOM     13  C   UNL     1      32.570 -10.317 -22.786  0.00  0.00    -0.042 C 
ATOM     14  C   UNL     1      32.303 -15.995 -21.763  0.00  0.00    +0.004 C 
ATOM     15  C   UNL     1      32.808 -11.077 -24.070  0.00  0.00    +0.022 C 
ATOM     16  C   UNL     1      32.272 -10.288 -20.272  0.00  0.00    +0.012 C 
ATOM     17  C   UNL     1      30.655 -11.536 -21.753  0.00  0.00    +0.004 C 
ATOM     18  C   UNL     1      31.731  -8.874 -20.415  0.00  0.00    +0.069 C 
ATOM     19  C   UNL     1      32.722  -8.982 -22.774  0.00  0.00    +0.029 C 
ATOM     20  C   UNL     1      32.385  -8.177 -21.578  0.00  0.00    +0.173 C 
ENDROOT
BRANCH   9  21
ATOM     21  O   UNL     1      34.438 -17.626 -20.918  0.00  0.00    -0.452 OA
BRANCH  21  23
ATOM     22  O   UNL     1      36.497 -18.651 -21.101  0.00  0.00    -0.250 OA
ATOM     23  C   UNL     1      35.276 -18.689 -21.161  0.00  0.00    +0.317 C 
BRANCH  23  24
ATOM     24  C   UNL     1      34.451 -19.908 -21.514  0.00  0.00    +0.121 C 
BRANCH  24  25
ATOM     25  C   UNL     1      33.298 -20.152 -20.547  0.00  0.00    +0.121 C 
BRANCH  25  27
ATOM     26  O   UNL     1      32.694 -22.010 -19.125  0.00  0.00    -0.250 OA
ATOM     27  C   UNL     1      33.569 -21.341 -19.660  0.00  0.00    +0.314 C 
BRANCH  27  28
ATOM     28  O   UNL     1      34.893 -21.608 -19.533  0.00  0.00    -0.480 OA
ATOM     29  H   UNL     1      35.434 -21.664 -20.295  0.00  0.00    +0.295 HD
ENDBRANCH  27  28
ENDBRANCH  25  27
ENDBRANCH  24  25
ENDBRANCH  23  24
ENDBRANCH  21  23
ENDBRANCH   9  21
TORSDOF 6
ENDMDL
MODEL 6
REMARK VINA RESULT:      -8.1      5.336      7.919
REMARK  Name = 119202
REMARK  6 active torsions:
REMARK  status: ('A' for Active; 'I' for Inactive)
REMARK    1  A    between atoms: C_9  and  O_21
REMARK    2  A    between atoms: O_21  and  C_23
REMARK    3  A    between atoms: C_23  and  C_24
REMARK    4  A    between atoms: C_24  and  C_25
REMARK    5  A    between atoms: C_25  and  C_27
REMARK    6  A    between atoms: C_27  and  O_28
REMARK                            x       y       z     vdW  Elec       q    Type
REMARK                         _______ _______ _______ _____ _____    ______ ____
ROOT
ATOM      1  O   UNL     1      35.344 -15.216 -23.558  0.00  0.00    -0.291 OA
ATOM      2  C   UNL     1      35.309 -21.190 -18.799  0.00  0.00    +0.003 C 
ATOM      3  C   UNL     1      34.065 -22.098 -18.818  0.00  0.00    +0.037 C 
ATOM      4  C   UNL     1      35.641 -20.614 -20.177  0.00  0.00    +0.001 C 
ATOM      5  C   UNL     1      34.426 -19.769 -20.676  0.00  0.00    +0.003 C 
ATOM      6  C   UNL     1      34.684 -19.092 -22.077  0.00  0.00    +0.016 C 
ATOM      7  C   UNL     1      32.861 -21.245 -19.235  0.00  0.00    +0.003 C 
ATOM      8  C   UNL     1      33.094 -20.568 -20.598  0.00  0.00    +0.000 C 
ATOM      9  C   UNL     1      34.057 -22.544 -17.342  0.00  0.00    +0.169 C 
ATOM     10  C   UNL     1      36.354 -22.034 -18.073  0.00  0.00    +0.004 C 
ATOM     11  C   UNL     1      36.903 -19.743 -20.131  0.00  0.00    +0.004 C 
ATOM     12  C   UNL     1      35.540 -22.819 -17.028  0.00  0.00    +0.044 C 
ATOM     13  C   UNL     1      36.038 -18.371 -22.056  0.00  0.00    -0.042 C 
ATOM     14  C   UNL     1      34.176 -23.330 -19.753  0.00  0.00    +0.004 C 
ATOM     15  C   UNL     1      37.210 -19.145 -21.498  0.00  0.00    +0.022 C 
ATOM     16  C   UNL     1      33.541 -18.069 -22.343  0.00  0.00    +0.012 C 
ATOM     17  C   UNL     1      34.706 -20.126 -23.224  0.00  0.00    +0.004 C 
ATOM     18  C   UNL     1      33.852 -17.085 -23.460  0.00  0.00    +0.069 C 
ATOM     19  C   UNL     1      36.233 -17.125 -22.518  0.00  0.00    +0.029 C 
ATOM     20  C   UNL     1      35.147 -16.370 -23.184  0.00  0.00    +0.173 C 
ENDROOT
BRANCH   9  21
ATOM     21  O   UNL     1      33.252 -23.686 -17.115  0.00  0.00    -0.452 OA
BRANCH  21  23
ATOM     22  O   UNL     1      32.573 -23.970 -14.929  0.00  0.00    -0.250 OA
ATOM     23  C   UNL     1      32.359 -23.598 -16.075  0.00  0.00    +0.317 C 
BRANCH  23  24
ATOM     24  C   UNL     1      31.072 -22.972 -16.568  0.00  0.00    +0.121 C 
BRANCH  24  25
ATOM     25  C   UNL     1      29.831 -23.762 -16.171  0.00  0.00    +0.121 C 
BRANCH  25  27
ATOM     26  O   UNL     1      27.817 -23.952 -17.492  0.00  0.00    -0.250 OA
ATOM     27  C   UNL     1      28.602 -23.243 -16.876  0.00  0.00    +0.314 C 
BRANCH  27  28
ATOM     28  O   UNL     1      28.447 -21.904 -16.737  0.00  0.00    -0.480 OA
ATOM     29  H   UNL     1      28.472 -21.348 -17.491  0.00  0.00    +0.295 HD
ENDBRANCH  27  28
ENDBRANCH  25  27
ENDBRANCH  24  25
ENDBRANCH  23  24
ENDBRANCH  21  23
ENDBRANCH   9  21
TORSDOF 6
ENDMDL
