MODEL 1
REMARK VINA RESULT:      -6.0      0.000      0.000
REMARK  Name = 4112111
REMARK  10 active torsions:
REMARK  status: ('A' for Active; 'I' for Inactive)
REMARK    1  A    between atoms: C_1  and  C_2
REMARK    2  A    between atoms: C_1  and  C_9
REMARK    3  A    between atoms: C_2  and  C_3
REMARK    4  A    between atoms: C_3  and  C_4
REMARK    5  A    between atoms: C_4  and  N_6
REMARK    6  A    between atoms: C_9  and  C_10
REMARK    7  A    between atoms: C_10  and  C_11
REMARK    8  A    between atoms: C_11  and  C_12
REMARK    9  A    between atoms: C_12  and  C_13
REMARK   10  A    between atoms: C_13  and  C_14
REMARK                            x       y       z     vdW  Elec       q    Type
REMARK                         _______ _______ _______ _____ _____    ______ ____
ROOT
ATOM      1  C   UNL     1      35.336 -18.400 -21.605  0.00  0.00    -0.000 C 
ENDROOT
BRANCH   1   2
ATOM      2  C   UNL     1      34.179 -19.306 -21.176  0.00  0.00    -0.002 C 
BRANCH   2   3
ATOM      3  C   UNL     1      34.620 -20.470 -20.289  0.00  0.00    -0.017 C 
BRANCH   3   4
ATOM      4  C   UNL     1      33.463 -21.338 -19.821  0.00  0.00    -0.028 C 
BRANCH   4   6
ATOM      5  O   UNL     1      34.051 -23.605 -19.739  0.00  0.00    -0.290 OA
ATOM      6  N   UNL     1      33.964 -22.455 -18.986  0.00  0.00    +0.428 N 
ATOM      7  C   UNL     1      35.336 -22.132 -18.444  0.00  0.00    -0.045 C 
ATOM      8  C   UNL     1      33.030 -22.709 -17.830  0.00  0.00    -0.045 C 
ENDBRANCH   4   6
ENDBRANCH   3   4
ENDBRANCH   2   3
ENDBRANCH   1   2
BRANCH   1   9
ATOM      9  C   UNL     1      35.624 -18.541 -23.101  0.00  0.00    -0.000 C 
BRANCH   9  10
ATOM     10  C   UNL     1      34.599 -17.772 -23.939  0.00  0.00    -0.000 C 
BRANCH  10  11
ATOM     11  C   UNL     1      34.910 -16.273 -23.954  0.00  0.00    +0.000 C 
BRANCH  11  12
ATOM     12  C   UNL     1      33.846 -15.423 -23.254  0.00  0.00    +0.000 C 
BRANCH  12  13
ATOM     13  C   UNL     1      34.406 -14.549 -22.130  0.00  0.00    +0.000 C 
BRANCH  13  14
ATOM     14  C   UNL     1      33.976 -15.069 -20.758  0.00  0.00    +0.000 C 
ATOM     15  C   UNL     1      32.564 -15.628 -20.790  0.00  0.00    +0.000 C 
ENDBRANCH  13  14
ENDBRANCH  12  13
ENDBRANCH  11  12
ENDBRANCH  10  11
ENDBRANCH   9  10
ENDBRANCH   1   9
TORSDOF 10
ENDMDL
MODEL 2
REMARK VINA RESULT:      -6.0      3.271      6.523
REMARK  Name = 4112111
REMARK  10 active torsions:
REMARK  status: ('A' for Active; 'I' for Inactive)
REMARK    1  A    between atoms: C_1  and  C_2
REMARK    2  A    between atoms: C_1  and  C_9
REMARK    3  A    between atoms: C_2  and  C_3
REMARK    4  A    between atoms: C_3  and  C_4
REMARK    5  A    between atoms: C_4  and  N_6
REMARK    6  A    between atoms: C_9  and  C_10
REMARK    7  A    between atoms: C_10  and  C_11
REMARK    8  A    between atoms: C_11  and  C_12
REMARK    9  A    between atoms: C_12  and  C_13
REMARK   10  A    between atoms: C_13  and  C_14
REMARK                            x       y       z     vdW  Elec       q    Type
REMARK                         _______ _______ _______ _____ _____    ______ ____
ROOT
ATOM      1  C   UNL     1      34.661 -17.918 -24.515  0.00  0.00    -0.000 C 
ENDROOT
BRANCH   1   2
ATOM      2  C   UNL     1      34.318 -16.444 -24.739  0.00  0.00    -0.002 C 
BRANCH   2   3
ATOM      3  C   UNL     1      34.526 -15.579 -23.495  0.00  0.00    -0.017 C 
BRANCH   3   4
ATOM      4  C   UNL     1      33.386 -14.605 -23.246  0.00  0.00    -0.028 C 
BRANCH   4   6
ATOM      5  O   UNL     1      32.135 -15.607 -21.535  0.00  0.00    -0.290 OA
ATOM      6  N   UNL     1      33.028 -14.592 -21.808  0.00  0.00    +0.428 N 
ATOM      7  C   UNL     1      34.258 -14.794 -20.957  0.00  0.00    -0.045 C 
ATOM      8  C   UNL     1      32.386 -13.279 -21.437  0.00  0.00    -0.045 C 
ENDBRANCH   4   6
ENDBRANCH   3   4
ENDBRANCH   2   3
ENDBRANCH   1   2
BRANCH   1   9
ATOM      9  C   UNL     1      35.193 -18.155 -23.100  0.00  0.00    -0.000 C 
BRANCH   9  10
ATOM     10  C   UNL     1      34.610 -19.433 -22.493  0.00  0.00    -0.000 C 
BRANCH  10  11
ATOM     11  C   UNL     1      34.541 -19.339 -20.967  0.00  0.00    +0.000 C 
BRANCH  11  12
ATOM     12  C   UNL     1      33.565 -20.337 -20.338  0.00  0.00    +0.000 C 
BRANCH  12  13
ATOM     13  C   UNL     1      34.257 -21.483 -19.597  0.00  0.00    +0.000 C 
BRANCH  13  14
ATOM     14  C   UNL     1      35.777 -21.400 -19.745  0.00  0.00    +0.000 C 
ATOM     15  C   UNL     1      36.478 -21.577 -18.408  0.00  0.00    +0.000 C 
ENDBRANCH  13  14
ENDBRANCH  12  13
ENDBRANCH  11  12
ENDBRANCH  10  11
ENDBRANCH   9  10
ENDBRANCH   1   9
TORSDOF 10
ENDMDL
MODEL 3
REMARK VINA RESULT:      -6.0      3.086      4.914
REMARK  Name = 4112111
REMARK  10 active torsions:
REMARK  status: ('A' for Active; 'I' for Inactive)
REMARK    1  A    between atoms: C_1  and  C_2
REMARK    2  A    between atoms: C_1  and  C_9
REMARK    3  A    between atoms: C_2  and  C_3
REMARK    4  A    between atoms: C_3  and  C_4
REMARK    5  A    between atoms: C_4  and  N_6
REMARK    6  A    between atoms: C_9  and  C_10
REMARK    7  A    between atoms: C_10  and  C_11
REMARK    8  A    between atoms: C_11  and  C_12
REMARK    9  A    between atoms: C_12  and  C_13
REMARK   10  A    between atoms: C_13  and  C_14
REMARK                            x       y       z     vdW  Elec       q    Type
REMARK                         _______ _______ _______ _____ _____    ______ ____
ROOT
ATOM      1  C   UNL     1      35.392 -21.979 -18.446  0.00  0.00    -0.000 C 
ENDROOT
BRANCH   1   2
ATOM      2  C   UNL     1      36.799 -21.617 -17.965  0.00  0.00    -0.002 C 
BRANCH   2   3
ATOM      3  C   UNL     1      36.989 -21.804 -16.459  0.00  0.00    -0.017 C 
BRANCH   3   4
ATOM      4  C   UNL     1      36.267 -23.024 -15.911  0.00  0.00    -0.028 C 
BRANCH   4   6
ATOM      5  O   UNL     1      38.468 -23.585 -15.336  0.00  0.00    -0.290 OA
ATOM      6  N   UNL     1      37.149 -23.769 -14.983  0.00  0.00    +0.428 N 
ATOM      7  C   UNL     1      36.958 -23.280 -13.569  0.00  0.00    -0.045 C 
ATOM      8  C   UNL     1      36.841 -25.245 -15.036  0.00  0.00    -0.045 C 
ENDBRANCH   4   6
ENDBRANCH   3   4
ENDBRANCH   2   3
ENDBRANCH   1   2
BRANCH   1   9
ATOM      9  C   UNL     1      35.046 -21.247 -19.745  0.00  0.00    -0.000 C 
BRANCH   9  10
ATOM     10  C   UNL     1      33.535 -21.037 -19.878  0.00  0.00    -0.000 C 
BRANCH  10  11
ATOM     11  C   UNL     1      33.221 -19.753 -20.650  0.00  0.00    +0.000 C 
BRANCH  11  12
ATOM     12  C   UNL     1      34.459 -19.095 -21.266  0.00  0.00    +0.000 C 
BRANCH  12  13
ATOM     13  C   UNL     1      34.609 -19.362 -22.765  0.00  0.00    +0.000 C 
BRANCH  13  14
ATOM     14  C   UNL     1      35.289 -18.189 -23.472  0.00  0.00    +0.000 C 
ATOM     15  C   UNL     1      35.255 -16.930 -22.622  0.00  0.00    +0.000 C 
ENDBRANCH  13  14
ENDBRANCH  12  13
ENDBRANCH  11  12
ENDBRANCH  10  11
ENDBRANCH   9  10
ENDBRANCH   1   9
TORSDOF 10
ENDMDL
MODEL 4
REMARK VINA RESULT:      -6.0      2.794      5.032
REMARK  Name = 4112111
REMARK  10 active torsions:
REMARK  status: ('A' for Active; 'I' for Inactive)
REMARK    1  A    between atoms: C_1  and  C_2
REMARK    2  A    between atoms: C_1  and  C_9
REMARK    3  A    between atoms: C_2  and  C_3
REMARK    4  A    between atoms: C_3  and  C_4
REMARK    5  A    between atoms: C_4  and  N_6
REMARK    6  A    between atoms: C_9  and  C_10
REMARK    7  A    between atoms: C_10  and  C_11
REMARK    8  A    between atoms: C_11  and  C_12
REMARK    9  A    between atoms: C_12  and  C_13
REMARK   10  A    between atoms: C_13  and  C_14
REMARK                            x       y       z     vdW  Elec       q    Type
REMARK                         _______ _______ _______ _____ _____    ______ ____
ROOT
ATOM      1  C   UNL     1      33.443 -22.439 -18.613  0.00  0.00    -0.000 C 
ENDROOT
BRANCH   1   2
ATOM      2  C   UNL     1      33.251 -23.193 -17.296  0.00  0.00    -0.002 C 
BRANCH   2   3
ATOM      3  C   UNL     1      34.469 -23.119 -16.374  0.00  0.00    -0.017 C 
BRANCH   3   4
ATOM      4  C   UNL     1      34.439 -24.149 -15.257  0.00  0.00    -0.028 C 
BRANCH   4   6
ATOM      5  O   UNL     1      36.043 -25.828 -15.575  0.00  0.00    -0.290 OA
ATOM      6  N   UNL     1      35.811 -24.620 -14.955  0.00  0.00    +0.428 N 
ATOM      7  C   UNL     1      36.830 -23.623 -15.452  0.00  0.00    -0.045 C 
ATOM      8  C   UNL     1      35.990 -24.802 -13.469  0.00  0.00    -0.045 C 
ENDBRANCH   4   6
ENDBRANCH   3   4
ENDBRANCH   2   3
ENDBRANCH   1   2
BRANCH   1   9
ATOM      9  C   UNL     1      34.923 -22.153 -18.878  0.00  0.00    -0.000 C 
BRANCH   9  10
ATOM     10  C   UNL     1      35.097 -21.025 -19.899  0.00  0.00    -0.000 C 
BRANCH  10  11
ATOM     11  C   UNL     1      33.745 -20.440 -20.312  0.00  0.00    +0.000 C 
BRANCH  11  12
ATOM     12  C   UNL     1      33.865 -19.196 -21.197  0.00  0.00    +0.000 C 
BRANCH  12  13
ATOM     13  C   UNL     1      35.309 -18.740 -21.414  0.00  0.00    +0.000 C 
BRANCH  13  14
ATOM     14  C   UNL     1      35.513 -18.199 -22.830  0.00  0.00    +0.000 C 
ATOM     15  C   UNL     1      34.924 -19.132 -23.874  0.00  0.00    +0.000 C 
ENDBRANCH  13  14
ENDBRANCH  12  13
ENDBRANCH  11  12
ENDBRANCH  10  11
ENDBRANCH   9  10
ENDBRANCH   1   9
TORSDOF 10
ENDMDL
MODEL 5
REMARK VINA RESULT:      -6.0      3.452      6.037
REMARK  Name = 4112111
REMARK  10 active torsions:
REMARK  status: ('A' for Active; 'I' for Inactive)
REMARK    1  A    between atoms: C_1  and  C_2
REMARK    2  A    between atoms: C_1  and  C_9
REMARK    3  A    between atoms: C_2  and  C_3
REMARK    4  A    between atoms: C_3  and  C_4
REMARK    5  A    between atoms: C_4  and  N_6
REMARK    6  A    between atoms: C_9  and  C_10
REMARK    7  A    between atoms: C_10  and  C_11
REMARK    8  A    between atoms: C_11  and  C_12
REMARK    9  A    between atoms: C_12  and  C_13
REMARK   10  A    between atoms: C_13  and  C_14
REMARK                            x       y       z     vdW  Elec       q    Type
REMARK                         _______ _______ _______ _____ _____    ______ ____
ROOT
ATOM      1  C   UNL     1      34.885 -16.880 -24.846  0.00  0.00    -0.000 C 
ENDROOT
BRANCH   1   2
ATOM      2  C   UNL     1      33.761 -15.887 -25.155  0.00  0.00    -0.002 C 
BRANCH   2   3
ATOM      3  C   UNL     1      33.525 -14.876 -24.033  0.00  0.00    -0.017 C 
BRANCH   3   4
ATOM      4  C   UNL     1      34.251 -15.229 -22.745  0.00  0.00    -0.028 C 
BRANCH   4   6
ATOM      5  O   UNL     1      34.317 -14.422 -20.545  0.00  0.00    -0.290 OA
ATOM      6  N   UNL     1      33.468 -14.772 -21.573  0.00  0.00    +0.428 N 
ATOM      7  C   UNL     1      32.631 -13.570 -21.935  0.00  0.00    -0.045 C 
ATOM      8  C   UNL     1      32.558 -15.873 -21.087  0.00  0.00    -0.045 C 
ENDBRANCH   4   6
ENDBRANCH   3   4
ENDBRANCH   2   3
ENDBRANCH   1   2
BRANCH   1   9
ATOM      9  C   UNL     1      34.451 -18.317 -25.145  0.00  0.00    -0.000 C 
BRANCH   9  10
ATOM     10  C   UNL     1      34.663 -19.226 -23.932  0.00  0.00    -0.000 C 
BRANCH  10  11
ATOM     11  C   UNL     1      35.558 -18.553 -22.887  0.00  0.00    +0.000 C 
BRANCH  11  12
ATOM     12  C   UNL     1      35.008 -18.651 -21.462  0.00  0.00    +0.000 C 
BRANCH  12  13
ATOM     13  C   UNL     1      35.366 -19.962 -20.759  0.00  0.00    +0.000 C 
BRANCH  13  14
ATOM     14  C   UNL     1      34.118 -20.654 -20.208  0.00  0.00    +0.000 C 
ATOM     15  C   UNL     1      32.850 -19.919 -20.608  0.00  0.00    +0.000 C 
ENDBRANCH  13  14
ENDBRANCH  12  13
ENDBRANCH  11  12
ENDBRANCH  10  11
ENDBRANCH   9  10
ENDBRANCH   1   9
TORSDOF 10
ENDMDL
MODEL 6
REMARK VINA RESULT:      -5.9      4.415      7.021
REMARK  Name = 4112111
REMARK  10 active torsions:
REMARK  status: ('A' for Active; 'I' for Inactive)
REMARK    1  A    between atoms: C_1  and  C_2
REMARK    2  A    between atoms: C_1  and  C_9
REMARK    3  A    between atoms: C_2  and  C_3
REMARK    4  A    between atoms: C_3  and  C_4
REMARK    5  A    between atoms: C_4  and  N_6
REMARK    6  A    between atoms: C_9  and  C_10
REMARK    7  A    between atoms: C_10  and  C_11
REMARK    8  A    between atoms: C_11  and  C_12
REMARK    9  A    between atoms: C_12  and  C_13
REMARK   10  A    between atoms: C_13  and  C_14
REMARK                            x       y       z     vdW  Elec       q    Type
REMARK                         _______ _______ _______ _____ _____    ______ ____
ROOT
ATOM      1  C   UNL     1      33.805 -23.540 -15.965  0.00  0.00    -0.000 C 
ENDROOT
BRANCH   1   2
ATOM      2  C   UNL     1      35.291 -23.492 -15.601  0.00  0.00    -0.002 C 
BRANCH   2   3
ATOM      3  C   UNL     1      35.809 -24.800 -15.002  0.00  0.00    -0.017 C 
BRANCH   3   4
ATOM      4  C   UNL     1      36.302 -24.651 -13.572  0.00  0.00    -0.028 C 
BRANCH   4   6
ATOM      5  O   UNL     1      36.897 -26.332 -12.051  0.00  0.00    -0.290 OA
ATOM      6  N   UNL     1      37.254 -25.737 -13.242  0.00  0.00    +0.428 N 
ATOM      7  C   UNL     1      37.248 -26.789 -14.324  0.00  0.00    -0.045 C 
ATOM      8  C   UNL     1      38.652 -25.188 -13.102  0.00  0.00    -0.045 C 
ENDBRANCH   4   6
ENDBRANCH   3   4
ENDBRANCH   2   3
ENDBRANCH   1   2
BRANCH   1   9
ATOM      9  C   UNL     1      33.578 -23.120 -17.419  0.00  0.00    -0.000 C 
BRANCH   9  10
ATOM     10  C   UNL     1      34.829 -22.466 -18.011  0.00  0.00    -0.000 C 
BRANCH  10  11
ATOM     11  C   UNL     1      34.534 -21.844 -19.378  0.00  0.00    +0.000 C 
BRANCH  11  12
ATOM     12  C   UNL     1      33.146 -21.205 -19.470  0.00  0.00    +0.000 C 
BRANCH  12  13
ATOM     13  C   UNL     1      33.035 -20.143 -20.566  0.00  0.00    +0.000 C 
BRANCH  13  14
ATOM     14  C   UNL     1      34.407 -19.569 -20.922  0.00  0.00    +0.000 C 
ATOM     15  C   UNL     1      34.534 -19.311 -22.414  0.00  0.00    +0.000 C 
ENDBRANCH  13  14
ENDBRANCH  12  13
ENDBRANCH  11  12
ENDBRANCH  10  11
ENDBRANCH   9  10
ENDBRANCH   1   9
TORSDOF 10
ENDMDL
MODEL 7
REMARK VINA RESULT:      -5.9      3.647      6.963
REMARK  Name = 4112111
REMARK  10 active torsions:
REMARK  status: ('A' for Active; 'I' for Inactive)
REMARK    1  A    between atoms: C_1  and  C_2
REMARK    2  A    between atoms: C_1  and  C_9
REMARK    3  A    between atoms: C_2  and  C_3
REMARK    4  A    between atoms: C_3  and  C_4
REMARK    5  A    between atoms: C_4  and  N_6
REMARK    6  A    between atoms: C_9  and  C_10
REMARK    7  A    between atoms: C_10  and  C_11
REMARK    8  A    between atoms: C_11  and  C_12
REMARK    9  A    between atoms: C_12  and  C_13
REMARK   10  A    between atoms: C_13  and  C_14
REMARK                            x       y       z     vdW  Elec       q    Type
REMARK                         _______ _______ _______ _____ _____    ______ ____
ROOT
ATOM      1  C   UNL     1      34.910 -17.979 -22.257  0.00  0.00    -0.000 C 
ENDROOT
BRANCH   1   2
ATOM      2  C   UNL     1      35.106 -17.259 -20.921  0.00  0.00    -0.002 C 
BRANCH   2   3
ATOM      3  C   UNL     1      34.465 -15.871 -20.883  0.00  0.00    -0.017 C 
BRANCH   3   4
ATOM      4  C   UNL     1      33.281 -15.733 -21.826  0.00  0.00    -0.028 C 
BRANCH   4   6
ATOM      5  O   UNL     1      34.755 -14.067 -22.564  0.00  0.00    -0.290 OA
ATOM      6  N   UNL     1      33.518 -14.631 -22.788  0.00  0.00    +0.428 N 
ATOM      7  C   UNL     1      33.477 -15.151 -24.204  0.00  0.00    -0.045 C 
ATOM      8  C   UNL     1      32.468 -13.559 -22.631  0.00  0.00    -0.045 C 
ENDBRANCH   4   6
ENDBRANCH   3   4
ENDBRANCH   2   3
ENDBRANCH   1   2
BRANCH   1   9
ATOM      9  C   UNL     1      34.478 -19.432 -22.044  0.00  0.00    -0.000 C 
BRANCH   9  10
ATOM     10  C   UNL     1      33.330 -19.529 -21.037  0.00  0.00    -0.000 C 
BRANCH  10  11
ATOM     11  C   UNL     1      33.588 -20.633 -20.009  0.00  0.00    +0.000 C 
BRANCH  11  12
ATOM     12  C   UNL     1      35.034 -21.136 -20.005  0.00  0.00    +0.000 C 
BRANCH  12  13
ATOM     13  C   UNL     1      35.383 -21.979 -18.777  0.00  0.00    +0.000 C 
BRANCH  13  14
ATOM     14  C   UNL     1      36.708 -21.534 -18.157  0.00  0.00    +0.000 C 
ATOM     15  C   UNL     1      36.849 -22.029 -16.727  0.00  0.00    +0.000 C 
ENDBRANCH  13  14
ENDBRANCH  12  13
ENDBRANCH  11  12
ENDBRANCH  10  11
ENDBRANCH   9  10
ENDBRANCH   1   9
TORSDOF 10
ENDMDL
MODEL 8
REMARK VINA RESULT:      -5.9      3.042      4.075
REMARK  Name = 4112111
REMARK  10 active torsions:
REMARK  status: ('A' for Active; 'I' for Inactive)
REMARK    1  A    between atoms: C_1  and  C_2
REMARK    2  A    between atoms: C_1  and  C_9
REMARK    3  A    between atoms: C_2  and  C_3
REMARK    4  A    between atoms: C_3  and  C_4
REMARK    5  A    between atoms: C_4  and  N_6
REMARK    6  A    between atoms: C_9  and  C_10
REMARK    7  A    between atoms: C_10  and  C_11
REMARK    8  A    between atoms: C_11  and  C_12
REMARK    9  A    between atoms: C_12  and  C_13
REMARK   10  A    between atoms: C_13  and  C_14
REMARK                            x       y       z     vdW  Elec       q    Type
REMARK                         _______ _______ _______ _____ _____    ______ ____
ROOT
ATOM      1  C   UNL     1      34.654 -16.764 -25.187  0.00  0.00    -0.000 C 
ENDROOT
BRANCH   1   2
ATOM      2  C   UNL     1      34.449 -18.251 -24.887  0.00  0.00    -0.002 C 
BRANCH   2   3
ATOM      3  C   UNL     1      35.273 -18.746 -23.698  0.00  0.00    -0.017 C 
BRANCH   3   4
ATOM      4  C   UNL     1      35.607 -17.648 -22.702  0.00  0.00    -0.028 C 
BRANCH   4   6
ATOM      5  O   UNL     1      35.419 -17.062 -20.440  0.00  0.00    -0.290 OA
ATOM      6  N   UNL     1      35.381 -18.125 -21.317  0.00  0.00    +0.428 N 
ATOM      7  C   UNL     1      34.032 -18.792 -21.205  0.00  0.00    -0.045 C 
ATOM      8  C   UNL     1      36.450 -19.112 -20.919  0.00  0.00    -0.045 C 
ENDBRANCH   4   6
ENDBRANCH   3   4
ENDBRANCH   2   3
ENDBRANCH   1   2
BRANCH   1   9
ATOM      9  C   UNL     1      33.402 -16.149 -25.817  0.00  0.00    -0.000 C 
BRANCH   9  10
ATOM     10  C   UNL     1      33.491 -14.621 -25.853  0.00  0.00    -0.000 C 
BRANCH  10  11
ATOM     11  C   UNL     1      32.849 -14.000 -24.610  0.00  0.00    +0.000 C 
BRANCH  11  12
ATOM     12  C   UNL     1      33.863 -13.371 -23.651  0.00  0.00    +0.000 C 
BRANCH  12  13
ATOM     13  C   UNL     1      34.230 -14.275 -22.473  0.00  0.00    +0.000 C 
BRANCH  13  14
ATOM     14  C   UNL     1      33.010 -15.042 -21.961  0.00  0.00    +0.000 C 
ATOM     15  C   UNL     1      32.748 -14.756 -20.492  0.00  0.00    +0.000 C 
ENDBRANCH  13  14
ENDBRANCH  12  13
ENDBRANCH  11  12
ENDBRANCH  10  11
ENDBRANCH   9  10
ENDBRANCH   1   9
TORSDOF 10
ENDMDL
MODEL 9
REMARK VINA RESULT:      -5.9      2.539      4.439
REMARK  Name = 4112111
REMARK  10 active torsions:
REMARK  status: ('A' for Active; 'I' for Inactive)
REMARK    1  A    between atoms: C_1  and  C_2
REMARK    2  A    between atoms: C_1  and  C_9
REMARK    3  A    between atoms: C_2  and  C_3
REMARK    4  A    between atoms: C_3  and  C_4
REMARK    5  A    between atoms: C_4  and  N_6
REMARK    6  A    between atoms: C_9  and  C_10
REMARK    7  A    between atoms: C_10  and  C_11
REMARK    8  A    between atoms: C_11  and  C_12
REMARK    9  A    between atoms: C_12  and  C_13
REMARK   10  A    between atoms: C_13  and  C_14
REMARK                            x       y       z     vdW  Elec       q    Type
REMARK                         _______ _______ _______ _____ _____    ______ ____
ROOT
ATOM      1  C   UNL     1      34.302 -21.634 -19.414  0.00  0.00    -0.000 C 
ENDROOT
BRANCH   1   2
ATOM      2  C   UNL     1      34.018 -22.686 -18.339  0.00  0.00    -0.002 C 
BRANCH   2   3
ATOM      3  C   UNL     1      32.615 -22.574 -17.741  0.00  0.00    -0.017 C 
BRANCH   3   4
ATOM      4  C   UNL     1      32.409 -23.464 -16.526  0.00  0.00    -0.028 C 
BRANCH   4   6
ATOM      5  O   UNL     1      30.276 -22.560 -16.877  0.00  0.00    -0.290 OA
ATOM      6  N   UNL     1      31.034 -23.303 -15.999  0.00  0.00    +0.428 N 
ATOM      7  C   UNL     1      30.378 -24.650 -15.819  0.00  0.00    -0.045 C 
ATOM      8  C   UNL     1      31.060 -22.591 -14.669  0.00  0.00    -0.045 C 
ENDBRANCH   4   6
ENDBRANCH   3   4
ENDBRANCH   2   3
ENDBRANCH   1   2
BRANCH   1   9
ATOM      9  C   UNL     1      33.007 -20.998 -19.924  0.00  0.00    -0.000 C 
BRANCH   9  10
ATOM     10  C   UNL     1      33.292 -19.742 -20.751  0.00  0.00    -0.000 C 
BRANCH  10  11
ATOM     11  C   UNL     1      34.766 -19.669 -21.155  0.00  0.00    +0.000 C 
BRANCH  11  12
ATOM     12  C   UNL     1      35.307 -18.238 -21.231  0.00  0.00    +0.000 C 
BRANCH  12  13
ATOM     13  C   UNL     1      35.292 -17.656 -22.646  0.00  0.00    +0.000 C 
BRANCH  13  14
ATOM     14  C   UNL     1      35.282 -18.763 -23.701  0.00  0.00    +0.000 C 
ATOM     15  C   UNL     1      34.401 -18.398 -24.884  0.00  0.00    +0.000 C 
ENDBRANCH  13  14
ENDBRANCH  12  13
ENDBRANCH  11  12
ENDBRANCH  10  11
ENDBRANCH   9  10
ENDBRANCH   1   9
TORSDOF 10
ENDMDL
