MODEL 1
REMARK VINA RESULT:      -8.5      0.000      0.000
REMARK  Name = 11963552
REMARK  2 active torsions:
REMARK  status: ('A' for Active; 'I' for Inactive)
REMARK    1  A    between atoms: C_15  and  O_21
REMARK    2  A    between atoms: C_19  and  O_23
REMARK                            x       y       z     vdW  Elec       q    Type
REMARK                         _______ _______ _______ _____ _____    ______ ____
ROOT
ATOM      1 CL   UNL     1      30.175  -5.337 -21.806  0.00  0.00    -0.079 Cl
ATOM      2  O   UNL     1      34.205  -8.699 -24.944  0.00  0.00    -0.445 OA
ATOM      3  O   UNL     1      31.001  -9.186 -23.073  0.00  0.00    -0.296 OA
ATOM      4  O   UNL     1      34.986  -8.233 -22.814  0.00  0.00    -0.245 OA
ATOM      5  C   UNL     1      31.198 -11.443 -21.344  0.00  0.00    +0.012 C 
ATOM      6  C   UNL     1      31.672 -10.053 -20.920  0.00  0.00    +0.065 C 
ATOM      7  C   UNL     1      32.184  -7.642 -21.650  0.00  0.00    +0.092 C 
ATOM      8  C   UNL     1      32.332  -6.718 -22.834  0.00  0.00    +0.008 C 
ATOM      9  C   UNL     1      32.283 -12.298 -22.010  0.00  0.00    +0.026 C 
ATOM     10  C   UNL     1      31.580  -8.990 -22.006  0.00  0.00    +0.155 C 
ATOM     11  C   UNL     1      33.294  -6.909 -23.843  0.00  0.00    +0.107 C 
ATOM     12  C   UNL     1      32.682 -11.828 -23.378  0.00  0.00    -0.031 C 
ATOM     13  C   UNL     1      31.441  -5.640 -22.962  0.00  0.00    +0.088 C 
ATOM     14  C   UNL     1      34.348 -11.118 -25.113  0.00  0.00    +0.073 C 
ATOM     15  C   UNL     1      33.368  -6.033 -24.936  0.00  0.00    +0.143 C 
ATOM     16  C   UNL     1      33.942 -11.531 -23.727  0.00  0.00    -0.027 C 
ATOM     17  C   UNL     1      35.116  -9.799 -25.127  0.00  0.00    +0.213 C 
ATOM     18  C   UNL     1      34.271  -8.013 -23.776  0.00  0.00    +0.344 C 
ATOM     19  C   UNL     1      31.513  -4.771 -24.053  0.00  0.00    +0.147 C 
ATOM     20  C   UNL     1      32.477  -4.968 -25.038  0.00  0.00    +0.074 C 
ENDROOT
BRANCH  15  21
ATOM     21  O   UNL     1      34.322  -6.161 -25.904  0.00  0.00    -0.505 OA
ATOM     22  H   UNL     1      34.619  -7.012 -26.158  0.00  0.00    +0.292 HD
ENDBRANCH  15  21
BRANCH  19  23
ATOM     23  O   UNL     1      30.655  -3.720 -24.193  0.00  0.00    -0.505 OA
ATOM     24  H   UNL     1      30.569  -3.291 -25.021  0.00  0.00    +0.292 HD
ENDBRANCH  19  23
TORSDOF 2
ENDMDL
MODEL 2
REMARK VINA RESULT:      -7.1      2.636      4.745
REMARK  Name = 11963552
REMARK  2 active torsions:
REMARK  status: ('A' for Active; 'I' for Inactive)
REMARK    1  A    between atoms: C_15  and  O_21
REMARK    2  A    between atoms: C_19  and  O_23
REMARK                            x       y       z     vdW  Elec       q    Type
REMARK                         _______ _______ _______ _____ _____    ______ ____
ROOT
ATOM      1 CL   UNL     1      32.733  -6.411 -23.093  0.00  0.00    -0.079 Cl
ATOM      2  O   UNL     1      32.243 -11.929 -20.505  0.00  0.00    -0.445 OA
ATOM      3  O   UNL     1      34.155 -10.290 -23.274  0.00  0.00    -0.296 OA
ATOM      4  O   UNL     1      30.473 -11.521 -21.940  0.00  0.00    -0.245 OA
ATOM      5  C   UNL     1      34.101 -11.918 -25.612  0.00  0.00    +0.012 C 
ATOM      6  C   UNL     1      32.984 -10.926 -25.289  0.00  0.00    +0.065 C 
ATOM      7  C   UNL     1      31.958  -9.338 -23.548  0.00  0.00    +0.092 C 
ATOM      8  C   UNL     1      32.012  -8.887 -22.108  0.00  0.00    +0.008 C 
ATOM      9  C   UNL     1      33.869 -13.326 -25.051  0.00  0.00    +0.026 C 
ATOM     10  C   UNL     1      33.132 -10.214 -23.951  0.00  0.00    +0.155 C 
ATOM     11  C   UNL     1      31.773  -9.749 -21.022  0.00  0.00    +0.107 C 
ATOM     12  C   UNL     1      33.984 -13.419 -23.558  0.00  0.00    -0.031 C 
ATOM     13  C   UNL     1      32.360  -7.554 -21.834  0.00  0.00    +0.088 C 
ATOM     14  C   UNL     1      33.155 -14.045 -21.274  0.00  0.00    +0.073 C 
ATOM     15  C   UNL     1      31.864  -9.280 -19.703  0.00  0.00    +0.143 C 
ATOM     16  C   UNL     1      33.016 -13.898 -22.763  0.00  0.00    -0.027 C 
ATOM     17  C   UNL     1      32.029 -13.353 -20.512  0.00  0.00    +0.213 C 
ATOM     18  C   UNL     1      31.394 -11.159 -21.229  0.00  0.00    +0.344 C 
ATOM     19  C   UNL     1      32.455  -7.090 -20.520  0.00  0.00    +0.147 C 
ATOM     20  C   UNL     1      32.206  -7.952 -19.456  0.00  0.00    +0.074 C 
ENDROOT
BRANCH  15  21
ATOM     21  O   UNL     1      31.588 -10.077 -18.631  0.00  0.00    -0.505 OA
ATOM     22  H   UNL     1      31.205  -9.707 -17.860  0.00  0.00    +0.292 HD
ENDBRANCH  15  21
BRANCH  19  23
ATOM     23  O   UNL     1      32.793  -5.798 -20.237  0.00  0.00    -0.505 OA
ATOM     24  H   UNL     1      33.267  -5.599 -19.454  0.00  0.00    +0.292 HD
ENDBRANCH  19  23
TORSDOF 2
ENDMDL
MODEL 3
REMARK VINA RESULT:      -6.8      2.374      6.230
REMARK  Name = 11963552
REMARK  2 active torsions:
REMARK  status: ('A' for Active; 'I' for Inactive)
REMARK    1  A    between atoms: C_15  and  O_21
REMARK    2  A    between atoms: C_19  and  O_23
REMARK                            x       y       z     vdW  Elec       q    Type
REMARK                         _______ _______ _______ _____ _____    ______ ____
ROOT
ATOM      1 CL   UNL     1      34.206 -11.137 -25.168  0.00  0.00    -0.079 Cl
ATOM      2  O   UNL     1      31.282  -7.370 -21.340  0.00  0.00    -0.445 OA
ATOM      3  O   UNL     1      32.029  -7.625 -24.999  0.00  0.00    -0.296 OA
ATOM      4  O   UNL     1      33.574  -7.049 -21.239  0.00  0.00    -0.245 OA
ATOM      5  C   UNL     1      32.939  -5.116 -26.000  0.00  0.00    +0.012 C 
ATOM      6  C   UNL     1      33.889  -6.124 -25.352  0.00  0.00    +0.065 C 
ATOM      7  C   UNL     1      34.120  -8.304 -24.011  0.00  0.00    +0.092 C 
ATOM      8  C   UNL     1      33.370  -9.357 -23.232  0.00  0.00    +0.008 C 
ATOM      9  C   UNL     1      32.331  -4.108 -25.017  0.00  0.00    +0.026 C 
ATOM     10  C   UNL     1      33.213  -7.365 -24.788  0.00  0.00    +0.155 C 
ATOM     11  C   UNL     1      32.629  -9.072 -22.069  0.00  0.00    +0.107 C 
ATOM     12  C   UNL     1      31.331  -4.701 -24.069  0.00  0.00    -0.031 C 
ATOM     13  C   UNL     1      33.373 -10.677 -23.710  0.00  0.00    +0.088 C 
ATOM     14  C   UNL     1      30.392  -5.154 -21.787  0.00  0.00    +0.073 C 
ATOM     15  C   UNL     1      31.929 -10.087 -21.401  0.00  0.00    +0.143 C 
ATOM     16  C   UNL     1      31.425  -4.611 -22.734  0.00  0.00    -0.027 C 
ATOM     17  C   UNL     1      30.994  -6.091 -20.744  0.00  0.00    +0.213 C 
ATOM     18  C   UNL     1      32.585  -7.712 -21.499  0.00  0.00    +0.344 C 
ATOM     19  C   UNL     1      32.670 -11.686 -23.046  0.00  0.00    +0.147 C 
ATOM     20  C   UNL     1      31.950 -11.390 -21.892  0.00  0.00    +0.074 C 
ENDROOT
BRANCH  15  21
ATOM     21  O   UNL     1      31.244  -9.854 -20.244  0.00  0.00    -0.505 OA
ATOM     22  H   UNL     1      30.869 -10.569 -19.770  0.00  0.00    +0.292 HD
ENDBRANCH  15  21
BRANCH  19  23
ATOM     23  O   UNL     1      32.662 -12.973 -23.499  0.00  0.00    -0.505 OA
ATOM     24  H   UNL     1      33.221 -13.224 -24.207  0.00  0.00    +0.292 HD
ENDBRANCH  19  23
TORSDOF 2
ENDMDL
MODEL 4
REMARK VINA RESULT:      -6.4      5.120      7.677
REMARK  Name = 11963552
REMARK  2 active torsions:
REMARK  status: ('A' for Active; 'I' for Inactive)
REMARK    1  A    between atoms: C_15  and  O_21
REMARK    2  A    between atoms: C_19  and  O_23
REMARK                            x       y       z     vdW  Elec       q    Type
REMARK                         _______ _______ _______ _____ _____    ______ ____
ROOT
ATOM      1 CL   UNL     1      34.036 -13.741 -27.684  0.00  0.00    -0.079 Cl
ATOM      2  O   UNL     1      33.830 -14.142 -21.586  0.00  0.00    -0.445 OA
ATOM      3  O   UNL     1      35.472 -15.893 -24.457  0.00  0.00    -0.296 OA
ATOM      4  O   UNL     1      31.935 -15.062 -22.547  0.00  0.00    -0.245 OA
ATOM      5  C   UNL     1      35.225 -18.718 -24.166  0.00  0.00    +0.012 C 
ATOM      6  C   UNL     1      34.132 -17.870 -24.819  0.00  0.00    +0.065 C 
ATOM      7  C   UNL     1      33.251 -15.506 -25.309  0.00  0.00    +0.092 C 
ATOM      8  C   UNL     1      33.429 -14.038 -25.008  0.00  0.00    +0.008 C 
ATOM      9  C   UNL     1      35.057 -18.898 -22.653  0.00  0.00    +0.026 C 
ATOM     10  C   UNL     1      34.392 -16.371 -24.800  0.00  0.00    +0.155 C 
ATOM     11  C   UNL     1      33.295 -13.495 -23.716  0.00  0.00    +0.107 C 
ATOM     12  C   UNL     1      35.305 -17.653 -21.854  0.00  0.00    -0.031 C 
ATOM     13  C   UNL     1      33.788 -13.175 -26.057  0.00  0.00    +0.088 C 
ATOM     14  C   UNL     1      34.689 -15.910 -20.158  0.00  0.00    +0.073 C 
ATOM     15  C   UNL     1      33.499 -12.126 -23.491  0.00  0.00    +0.143 C 
ATOM     16  C   UNL     1      34.416 -17.123 -21.001  0.00  0.00    -0.027 C 
ATOM     17  C   UNL     1      33.629 -14.827 -20.336  0.00  0.00    +0.213 C 
ATOM     18  C   UNL     1      32.912 -14.335 -22.565  0.00  0.00    +0.344 C 
ATOM     19  C   UNL     1      33.995 -11.813 -25.830  0.00  0.00    +0.147 C 
ATOM     20  C   UNL     1      33.850 -11.289 -24.548  0.00  0.00    +0.074 C 
ENDROOT
BRANCH  15  21
ATOM     21  O   UNL     1      33.327 -11.561 -22.261  0.00  0.00    -0.505 OA
ATOM     22  H   UNL     1      34.030 -11.567 -21.641  0.00  0.00    +0.292 HD
ENDBRANCH  15  21
BRANCH  19  23
ATOM     23  O   UNL     1      34.345 -10.961 -26.837  0.00  0.00    -0.505 OA
ATOM     24  H   UNL     1      34.619 -10.088 -26.639  0.00  0.00    +0.292 HD
ENDBRANCH  19  23
TORSDOF 2
ENDMDL
MODEL 5
REMARK VINA RESULT:      -6.3      5.860      8.079
REMARK  Name = 11963552
REMARK  2 active torsions:
REMARK  status: ('A' for Active; 'I' for Inactive)
REMARK    1  A    between atoms: C_15  and  O_21
REMARK    2  A    between atoms: C_19  and  O_23
REMARK                            x       y       z     vdW  Elec       q    Type
REMARK                         _______ _______ _______ _____ _____    ______ ____
ROOT
ATOM      1 CL   UNL     1      32.685 -13.430 -19.751  0.00  0.00    -0.079 Cl
ATOM      2  O   UNL     1      33.837 -16.395 -24.974  0.00  0.00    -0.445 OA
ATOM      3  O   UNL     1      33.012 -17.202 -21.413  0.00  0.00    -0.296 OA
ATOM      4  O   UNL     1      35.794 -15.637 -23.995  0.00  0.00    -0.245 OA
ATOM      5  C   UNL     1      34.740 -19.248 -20.437  0.00  0.00    +0.012 C 
ATOM      6  C   UNL     1      35.134 -17.770 -20.405  0.00  0.00    +0.065 C 
ATOM      7  C   UNL     1      34.572 -15.381 -21.167  0.00  0.00    +0.092 C 
ATOM      8  C   UNL     1      33.689 -14.550 -22.066  0.00  0.00    +0.008 C 
ATOM      9  C   UNL     1      35.168 -19.981 -21.714  0.00  0.00    +0.026 C 
ATOM     10  C   UNL     1      34.130 -16.830 -21.058  0.00  0.00    +0.155 C 
ATOM     11  C   UNL     1      33.679 -14.677 -23.467  0.00  0.00    +0.107 C 
ATOM     12  C   UNL     1      34.405 -19.575 -22.940  0.00  0.00    -0.031 C 
ATOM     13  C   UNL     1      32.802 -13.634 -21.476  0.00  0.00    +0.088 C 
ATOM     14  C   UNL     1      34.222 -18.769 -25.309  0.00  0.00    +0.073 C 
ATOM     15  C   UNL     1      32.816 -13.896 -24.250  0.00  0.00    +0.143 C 
ATOM     16  C   UNL     1      34.983 -19.120 -24.063  0.00  0.00    -0.027 C 
ATOM     17  C   UNL     1      34.523 -17.356 -25.797  0.00  0.00    +0.213 C 
ATOM     18  C   UNL     1      34.587 -15.610 -24.161  0.00  0.00    +0.344 C 
ATOM     19  C   UNL     1      31.940 -12.860 -22.257  0.00  0.00    +0.147 C 
ATOM     20  C   UNL     1      31.949 -12.992 -23.643  0.00  0.00    +0.074 C 
ENDROOT
BRANCH  15  21
ATOM     21  O   UNL     1      32.819 -13.960 -25.613  0.00  0.00    -0.505 OA
ATOM     22  H   UNL     1      32.409 -13.282 -26.114  0.00  0.00    +0.292 HD
ENDBRANCH  15  21
BRANCH  19  23
ATOM     23  O   UNL     1      31.072 -11.967 -21.700  0.00  0.00    -0.505 OA
ATOM     24  H   UNL     1      31.380 -11.131 -21.413  0.00  0.00    +0.292 HD
ENDBRANCH  19  23
TORSDOF 2
ENDMDL
MODEL 6
REMARK VINA RESULT:      -5.8      2.715      4.782
REMARK  Name = 11963552
REMARK  2 active torsions:
REMARK  status: ('A' for Active; 'I' for Inactive)
REMARK    1  A    between atoms: C_15  and  O_21
REMARK    2  A    between atoms: C_19  and  O_23
REMARK                            x       y       z     vdW  Elec       q    Type
REMARK                         _______ _______ _______ _____ _____    ______ ____
ROOT
ATOM      1 CL   UNL     1      35.148  -9.319 -25.871  0.00  0.00    -0.079 Cl
ATOM      2  O   UNL     1      32.026 -10.450 -20.737  0.00  0.00    -0.445 OA
ATOM      3  O   UNL     1      34.613 -12.113 -22.869  0.00  0.00    -0.296 OA
ATOM      4  O   UNL     1      30.720 -10.837 -22.610  0.00  0.00    -0.245 OA
ATOM      5  C   UNL     1      33.924 -14.843 -23.314  0.00  0.00    +0.012 C 
ATOM      6  C   UNL     1      33.381 -13.715 -24.193  0.00  0.00    +0.065 C 
ATOM      7  C   UNL     1      33.126 -11.179 -24.520  0.00  0.00    +0.092 C 
ATOM      8  C   UNL     1      33.313  -9.828 -23.873  0.00  0.00    +0.008 C 
ATOM      9  C   UNL     1      33.037 -15.178 -22.109  0.00  0.00    +0.026 C 
ATOM     10  C   UNL     1      33.777 -12.314 -23.748  0.00  0.00    +0.155 C 
ATOM     11  C   UNL     1      32.648  -9.440 -22.696  0.00  0.00    +0.107 C 
ATOM     12  C   UNL     1      33.023 -14.122 -21.043  0.00  0.00    -0.031 C 
ATOM     13  C   UNL     1      34.226  -8.928 -24.447  0.00  0.00    +0.088 C 
ATOM     14  C   UNL     1      31.887 -12.523 -19.478  0.00  0.00    +0.073 C 
ATOM     15  C   UNL     1      32.881  -8.181 -22.124  0.00  0.00    +0.143 C 
ATOM     16  C   UNL     1      31.905 -13.538 -20.586  0.00  0.00    -0.027 C 
ATOM     17  C   UNL     1      31.175 -11.235 -19.880  0.00  0.00    +0.213 C 
ATOM     18  C   UNL     1      31.667 -10.326 -22.039  0.00  0.00    +0.344 C 
ATOM     19  C   UNL     1      34.461  -7.676 -23.874  0.00  0.00    +0.147 C 
ATOM     20  C   UNL     1      33.788  -7.304 -22.714  0.00  0.00    +0.074 C 
ENDROOT
BRANCH  15  21
ATOM     21  O   UNL     1      32.215  -7.755 -21.012  0.00  0.00    -0.505 OA
ATOM     22  H   UNL     1      31.579  -8.311 -20.606  0.00  0.00    +0.292 HD
ENDBRANCH  15  21
BRANCH  19  23
ATOM     23  O   UNL     1      35.346  -6.791 -24.418  0.00  0.00    -0.505 OA
ATOM     24  H   UNL     1      35.550  -6.835 -25.331  0.00  0.00    +0.292 HD
ENDBRANCH  19  23
TORSDOF 2
ENDMDL
MODEL 7
REMARK VINA RESULT:      -5.8     16.743     19.455
REMARK  Name = 11963552
REMARK  2 active torsions:
REMARK  status: ('A' for Active; 'I' for Inactive)
REMARK    1  A    between atoms: C_15  and  O_21
REMARK    2  A    between atoms: C_19  and  O_23
REMARK                            x       y       z     vdW  Elec       q    Type
REMARK                         _______ _______ _______ _____ _____    ______ ____
ROOT
ATOM      1 CL   UNL     1      39.482 -24.321 -15.712  0.00  0.00    -0.079 Cl
ATOM      2  O   UNL     1      34.022 -24.677 -12.982  0.00  0.00    -0.445 OA
ATOM      3  O   UNL     1      35.425 -24.630 -16.451  0.00  0.00    -0.296 OA
ATOM      4  O   UNL     1      34.807 -22.499 -12.997  0.00  0.00    -0.245 OA
ATOM      5  C   UNL     1      33.945 -22.831 -18.093  0.00  0.00    +0.012 C 
ATOM      6  C   UNL     1      35.104 -22.360 -17.213  0.00  0.00    +0.065 C 
ATOM      7  C   UNL     1      36.764 -22.959 -15.345  0.00  0.00    +0.092 C 
ATOM      8  C   UNL     1      37.130 -23.991 -14.306  0.00  0.00    +0.008 C 
ATOM      9  C   UNL     1      32.576 -22.778 -17.404  0.00  0.00    +0.026 C 
ATOM     10  C   UNL     1      35.714 -23.441 -16.331  0.00  0.00    +0.155 C 
ATOM     11  C   UNL     1      36.274 -24.358 -13.251  0.00  0.00    +0.107 C 
ATOM     12  C   UNL     1      32.393 -23.799 -16.320  0.00  0.00    -0.031 C 
ATOM     13  C   UNL     1      38.365 -24.650 -14.418  0.00  0.00    +0.088 C 
ATOM     14  C   UNL     1      31.817 -24.522 -13.988  0.00  0.00    +0.073 C 
ATOM     15  C   UNL     1      36.656 -25.343 -12.329  0.00  0.00    +0.143 C 
ATOM     16  C   UNL     1      32.056 -23.495 -15.057  0.00  0.00    -0.027 C 
ATOM     17  C   UNL     1      32.661 -24.273 -12.742  0.00  0.00    +0.213 C 
ATOM     18  C   UNL     1      34.964 -23.705 -13.061  0.00  0.00    +0.344 C 
ATOM     19  C   UNL     1      38.742 -25.635 -13.501  0.00  0.00    +0.147 C 
ATOM     20  C   UNL     1      37.888 -25.980 -12.458  0.00  0.00    +0.074 C 
ENDROOT
BRANCH  15  21
ATOM     21  O   UNL     1      35.871 -25.685 -11.266  0.00  0.00    -0.505 OA
ATOM     22  H   UNL     1      36.229 -26.188 -10.563  0.00  0.00    +0.292 HD
ENDBRANCH  15  21
BRANCH  19  23
ATOM     23  O   UNL     1      39.938 -26.285 -13.597  0.00  0.00    -0.505 OA
ATOM     24  H   UNL     1      40.739 -25.799 -13.578  0.00  0.00    +0.292 HD
ENDBRANCH  19  23
TORSDOF 2
ENDMDL
MODEL 8
REMARK VINA RESULT:      -5.7      3.197      6.415
REMARK  Name = 11963552
REMARK  2 active torsions:
REMARK  status: ('A' for Active; 'I' for Inactive)
REMARK    1  A    between atoms: C_15  and  O_21
REMARK    2  A    between atoms: C_19  and  O_23
REMARK                            x       y       z     vdW  Elec       q    Type
REMARK                         _______ _______ _______ _____ _____    ______ ____
ROOT
ATOM      1 CL   UNL     1      35.278 -10.944 -27.295  0.00  0.00    -0.079 Cl
ATOM      2  O   UNL     1      31.937 -12.539 -22.429  0.00  0.00    -0.445 OA
ATOM      3  O   UNL     1      32.711  -9.461 -24.412  0.00  0.00    -0.296 OA
ATOM      4  O   UNL     1      34.176 -12.336 -21.874  0.00  0.00    -0.245 OA
ATOM      5  C   UNL     1      33.327  -7.290 -22.670  0.00  0.00    +0.012 C 
ATOM      6  C   UNL     1      34.387  -8.300 -23.115  0.00  0.00    +0.065 C 
ATOM      7  C   UNL     1      34.866 -10.535 -24.289  0.00  0.00    +0.092 C 
ATOM      8  C   UNL     1      34.241 -11.776 -24.877  0.00  0.00    +0.008 C 
ATOM      9  C   UNL     1      32.606  -7.672 -21.371  0.00  0.00    +0.026 C 
ATOM     10  C   UNL     1      33.857  -9.446 -23.965  0.00  0.00    +0.155 C 
ATOM     11  C   UNL     1      33.471 -12.682 -24.123  0.00  0.00    +0.107 C 
ATOM     12  C   UNL     1      31.681  -8.845 -21.504  0.00  0.00    -0.031 C 
ATOM     13  C   UNL     1      34.396 -12.022 -26.252  0.00  0.00    +0.088 C 
ATOM     14  C   UNL     1      30.798 -11.097 -20.840  0.00  0.00    +0.073 C 
ATOM     15  C   UNL     1      32.892 -13.806 -24.729  0.00  0.00    +0.143 C 
ATOM     16  C   UNL     1      31.762  -9.949 -20.746  0.00  0.00    -0.027 C 
ATOM     17  C   UNL     1      31.503 -12.432 -21.061  0.00  0.00    +0.213 C 
ATOM     18  C   UNL     1      33.270 -12.498 -22.673  0.00  0.00    +0.344 C 
ATOM     19  C   UNL     1      33.814 -13.140 -26.854  0.00  0.00    +0.147 C 
ATOM     20  C   UNL     1      33.064 -14.030 -26.093  0.00  0.00    +0.074 C 
ENDROOT
BRANCH  15  21
ATOM     21  O   UNL     1      32.184 -14.729 -24.016  0.00  0.00    -0.505 OA
ATOM     22  H   UNL     1      32.043 -14.604 -23.098  0.00  0.00    +0.292 HD
ENDBRANCH  15  21
BRANCH  19  23
ATOM     23  O   UNL     1      33.955 -13.391 -28.188  0.00  0.00    -0.505 OA
ATOM     24  H   UNL     1      33.426 -12.931 -28.810  0.00  0.00    +0.292 HD
ENDBRANCH  19  23
TORSDOF 2
ENDMDL
MODEL 9
REMARK VINA RESULT:      -5.6      5.200      8.330
REMARK  Name = 11963552
REMARK  2 active torsions:
REMARK  status: ('A' for Active; 'I' for Inactive)
REMARK    1  A    between atoms: C_15  and  O_21
REMARK    2  A    between atoms: C_19  and  O_23
REMARK                            x       y       z     vdW  Elec       q    Type
REMARK                         _______ _______ _______ _____ _____    ______ ____
ROOT
ATOM      1 CL   UNL     1      33.793 -16.021 -20.335  0.00  0.00    -0.079 Cl
ATOM      2  O   UNL     1      34.290 -14.496 -26.236  0.00  0.00    -0.445 OA
ATOM      3  O   UNL     1      34.508 -12.844 -22.885  0.00  0.00    -0.296 OA
ATOM      4  O   UNL     1      32.070 -14.707 -25.613  0.00  0.00    -0.245 OA
ATOM      5  C   UNL     1      33.023 -10.411 -22.882  0.00  0.00    +0.012 C 
ATOM      6  C   UNL     1      32.367 -11.762 -22.593  0.00  0.00    +0.065 C 
ATOM      7  C   UNL     1      32.624 -14.320 -22.596  0.00  0.00    +0.092 C 
ATOM      8  C   UNL     1      33.504 -15.469 -23.024  0.00  0.00    +0.008 C 
ATOM      9  C   UNL     1      33.006 -10.013 -24.363  0.00  0.00    +0.026 C 
ATOM     10  C   UNL     1      33.293 -12.962 -22.734  0.00  0.00    +0.155 C 
ATOM     11  C   UNL     1      33.821 -15.736 -24.369  0.00  0.00    +0.107 C 
ATOM     12  C   UNL     1      33.914 -10.833 -25.230  0.00  0.00    -0.031 C 
ATOM     13  C   UNL     1      34.069 -16.289 -22.033  0.00  0.00    +0.088 C 
ATOM     14  C   UNL     1      34.424 -12.278 -27.217  0.00  0.00    +0.073 C 
ATOM     15  C   UNL     1      34.667 -16.803 -24.706  0.00  0.00    +0.143 C 
ATOM     16  C   UNL     1      33.503 -11.505 -26.316  0.00  0.00    -0.027 C 
ATOM     17  C   UNL     1      33.974 -13.723 -27.409  0.00  0.00    +0.213 C 
ATOM     18  C   UNL     1      33.260 -14.926 -25.467  0.00  0.00    +0.344 C 
ATOM     19  C   UNL     1      34.914 -17.348 -22.371  0.00  0.00    +0.147 C 
ATOM     20  C   UNL     1      35.212 -17.605 -23.706  0.00  0.00    +0.074 C 
ENDROOT
BRANCH  15  21
ATOM     21  O   UNL     1      34.953 -17.119 -26.002  0.00  0.00    -0.505 OA
ATOM     22  H   UNL     1      34.268 -17.141 -26.641  0.00  0.00    +0.292 HD
ENDBRANCH  15  21
BRANCH  19  23
ATOM     23  O   UNL     1      35.473 -18.152 -21.420  0.00  0.00    -0.505 OA
ATOM     24  H   UNL     1      34.944 -18.495 -20.727  0.00  0.00    +0.292 HD
ENDBRANCH  19  23
TORSDOF 2
ENDMDL
