MODEL 1
REMARK VINA RESULT:      -6.9      0.000      0.000
REMARK  Name = 70766
REMARK  1 active torsions:
REMARK  status: ('A' for Active; 'I' for Inactive)
REMARK    1  A    between atoms: C_4  and  N_11
REMARK                            x       y       z     vdW  Elec       q    Type
REMARK                         _______ _______ _______ _____ _____    ______ ____
ROOT
ATOM      1  N   UNL     1      34.213 -16.736 -25.674  0.00  0.00    -0.242 NA
ATOM      2  C   UNL     1      34.709 -16.898 -22.908  0.00  0.00    +0.016 C 
ATOM      3  C   UNL     1      34.225 -15.700 -23.474  0.00  0.00    +0.020 C 
ATOM      4  C   UNL     1      34.949 -16.952 -21.524  0.00  0.00    +0.042 C 
ATOM      5  C   UNL     1      33.989 -14.585 -22.654  0.00  0.00    +0.002 C 
ATOM      6  C   UNL     1      34.938 -17.998 -23.742  0.00  0.00    +0.022 C 
ATOM      7  C   UNL     1      34.711 -15.837 -20.718  0.00  0.00    +0.014 C 
ATOM      8  C   UNL     1      34.233 -14.656 -21.282  0.00  0.00    +0.001 C 
ATOM      9  C   UNL     1      33.999 -15.684 -24.851  0.00  0.00    +0.099 C 
ATOM     10  C   UNL     1      34.677 -17.865 -25.098  0.00  0.00    +0.099 C 
ENDROOT
BRANCH   4  11
ATOM     11  N   UNL     1      35.435 -18.127 -20.903  0.00  0.00    -0.357 N 
ATOM     12  H   UNL     1      35.605 -18.934 -21.441  0.00  0.00    +0.142 HD
ATOM     13  H   UNL     1      35.604 -18.137 -19.932  0.00  0.00    +0.142 HD
ENDBRANCH   4  11
TORSDOF 1
ENDMDL
MODEL 2
REMARK VINA RESULT:      -6.8      1.075      4.197
REMARK  Name = 70766
REMARK  1 active torsions:
REMARK  status: ('A' for Active; 'I' for Inactive)
REMARK    1  A    between atoms: C_4  and  N_11
REMARK                            x       y       z     vdW  Elec       q    Type
REMARK                         _______ _______ _______ _____ _____    ______ ____
ROOT
ATOM      1  N   UNL     1      34.913 -15.959 -20.535  0.00  0.00    -0.242 NA
ATOM      2  C   UNL     1      34.510 -16.502 -23.268  0.00  0.00    +0.016 C 
ATOM      3  C   UNL     1      34.868 -17.540 -22.383  0.00  0.00    +0.020 C 
ATOM      4  C   UNL     1      34.314 -16.801 -24.627  0.00  0.00    +0.042 C 
ATOM      5  C   UNL     1      35.024 -18.849 -22.867  0.00  0.00    +0.002 C 
ATOM      6  C   UNL     1      34.359 -15.205 -22.766  0.00  0.00    +0.022 C 
ATOM      7  C   UNL     1      34.472 -18.106 -25.098  0.00  0.00    +0.014 C 
ATOM      8  C   UNL     1      34.826 -19.127 -24.219  0.00  0.00    +0.001 C 
ATOM      9  C   UNL     1      35.053 -17.206 -21.040  0.00  0.00    +0.099 C 
ATOM     10  C   UNL     1      34.569 -14.992 -21.412  0.00  0.00    +0.099 C 
ENDROOT
BRANCH   4  11
ATOM     11  N   UNL     1      33.954 -15.799 -25.560  0.00  0.00    -0.357 N 
ATOM     12  H   UNL     1      34.553 -15.033 -25.717  0.00  0.00    +0.142 HD
ATOM     13  H   UNL     1      33.104 -15.868 -26.053  0.00  0.00    +0.142 HD
ENDBRANCH   4  11
TORSDOF 1
ENDMDL
MODEL 3
REMARK VINA RESULT:      -6.8      3.822      5.206
REMARK  Name = 70766
REMARK  1 active torsions:
REMARK  status: ('A' for Active; 'I' for Inactive)
REMARK    1  A    between atoms: C_4  and  N_11
REMARK                            x       y       z     vdW  Elec       q    Type
REMARK                         _______ _______ _______ _____ _____    ______ ____
ROOT
ATOM      1  N   UNL     1      35.646 -17.987 -22.133  0.00  0.00    -0.242 NA
ATOM      2  C   UNL     1      34.648 -20.121 -20.591  0.00  0.00    +0.016 C 
ATOM      3  C   UNL     1      36.021 -19.802 -20.557  0.00  0.00    +0.020 C 
ATOM      4  C   UNL     1      34.175 -21.190 -19.812  0.00  0.00    +0.042 C 
ATOM      5  C   UNL     1      36.893 -20.552 -19.751  0.00  0.00    +0.002 C 
ATOM      6  C   UNL     1      33.796 -19.361 -21.401  0.00  0.00    +0.022 C 
ATOM      7  C   UNL     1      35.051 -21.929 -19.014  0.00  0.00    +0.014 C 
ATOM      8  C   UNL     1      36.407 -21.611 -18.984  0.00  0.00    +0.001 C 
ATOM      9  C   UNL     1      36.454 -18.733 -21.344  0.00  0.00    +0.099 C 
ATOM     10  C   UNL     1      34.339 -18.322 -22.140  0.00  0.00    +0.099 C 
ENDROOT
BRANCH   4  11
ATOM     11  N   UNL     1      32.807 -21.555 -19.807  0.00  0.00    -0.357 N 
ATOM     12  H   UNL     1      32.365 -21.819 -20.647  0.00  0.00    +0.142 HD
ATOM     13  H   UNL     1      32.298 -21.543 -18.964  0.00  0.00    +0.142 HD
ENDBRANCH   4  11
TORSDOF 1
ENDMDL
MODEL 4
REMARK VINA RESULT:      -6.8      1.240      2.603
REMARK  Name = 70766
REMARK  1 active torsions:
REMARK  status: ('A' for Active; 'I' for Inactive)
REMARK    1  A    between atoms: C_4  and  N_11
REMARK                            x       y       z     vdW  Elec       q    Type
REMARK                         _______ _______ _______ _____ _____    ______ ____
ROOT
ATOM      1  N   UNL     1      34.026 -16.397 -25.864  0.00  0.00    -0.242 NA
ATOM      2  C   UNL     1      34.539 -16.435 -23.096  0.00  0.00    +0.016 C 
ATOM      3  C   UNL     1      34.803 -17.575 -23.883  0.00  0.00    +0.020 C 
ATOM      4  C   UNL     1      34.804 -16.481 -21.717  0.00  0.00    +0.042 C 
ATOM      5  C   UNL     1      35.323 -18.733 -23.283  0.00  0.00    +0.002 C 
ATOM      6  C   UNL     1      34.021 -15.291 -23.713  0.00  0.00    +0.022 C 
ATOM      7  C   UNL     1      35.321 -17.637 -21.131  0.00  0.00    +0.014 C 
ATOM      8  C   UNL     1      35.580 -18.761 -21.912  0.00  0.00    +0.001 C 
ATOM      9  C   UNL     1      34.527 -17.493 -25.249  0.00  0.00    +0.099 C 
ATOM     10  C   UNL     1      33.787 -15.325 -25.079  0.00  0.00    +0.099 C 
ENDROOT
BRANCH   4  11
ATOM     11  N   UNL     1      34.559 -15.366 -20.879  0.00  0.00    -0.357 N 
ATOM     12  H   UNL     1      35.287 -14.990 -20.334  0.00  0.00    +0.142 HD
ATOM     13  H   UNL     1      33.659 -14.967 -20.842  0.00  0.00    +0.142 HD
ENDBRANCH   4  11
TORSDOF 1
ENDMDL
MODEL 5
REMARK VINA RESULT:      -6.7      4.373      6.290
REMARK  Name = 70766
REMARK  1 active torsions:
REMARK  status: ('A' for Active; 'I' for Inactive)
REMARK    1  A    between atoms: C_4  and  N_11
REMARK                            x       y       z     vdW  Elec       q    Type
REMARK                         _______ _______ _______ _____ _____    ______ ____
ROOT
ATOM      1  N   UNL     1      35.455 -22.552 -18.001  0.00  0.00    -0.242 NA
ATOM      2  C   UNL     1      35.357 -20.524 -19.951  0.00  0.00    +0.016 C 
ATOM      3  C   UNL     1      34.180 -21.203 -19.572  0.00  0.00    +0.020 C 
ATOM      4  C   UNL     1      35.281 -19.516 -20.927  0.00  0.00    +0.042 C 
ATOM      5  C   UNL     1      32.956 -20.865 -20.171  0.00  0.00    +0.002 C 
ATOM      6  C   UNL     1      36.567 -20.876 -19.343  0.00  0.00    +0.022 C 
ATOM      7  C   UNL     1      34.058 -19.188 -21.515  0.00  0.00    +0.014 C 
ATOM      8  C   UNL     1      32.898 -19.861 -21.138  0.00  0.00    +0.001 C 
ATOM      9  C   UNL     1      34.295 -22.198 -18.600  0.00  0.00    +0.099 C 
ATOM     10  C   UNL     1      36.560 -21.882 -18.389  0.00  0.00    +0.099 C 
ENDROOT
BRANCH   4  11
ATOM     11  N   UNL     1      36.430 -18.803 -21.345  0.00  0.00    -0.357 N 
ATOM     12  H   UNL     1      36.389 -18.228 -22.143  0.00  0.00    +0.142 HD
ATOM     13  H   UNL     1      37.270 -18.882 -20.837  0.00  0.00    +0.142 HD
ENDBRANCH   4  11
TORSDOF 1
ENDMDL
MODEL 6
REMARK VINA RESULT:      -6.7      1.521      3.222
REMARK  Name = 70766
REMARK  1 active torsions:
REMARK  status: ('A' for Active; 'I' for Inactive)
REMARK    1  A    between atoms: C_4  and  N_11
REMARK                            x       y       z     vdW  Elec       q    Type
REMARK                         _______ _______ _______ _____ _____    ______ ____
ROOT
ATOM      1  N   UNL     1      34.416 -14.248 -22.410  0.00  0.00    -0.242 NA
ATOM      2  C   UNL     1      34.725 -17.031 -22.118  0.00  0.00    +0.016 C 
ATOM      3  C   UNL     1      34.583 -16.463 -23.401  0.00  0.00    +0.020 C 
ATOM      4  C   UNL     1      34.877 -18.423 -22.000  0.00  0.00    +0.042 C 
ATOM      5  C   UNL     1      34.596 -17.289 -24.537  0.00  0.00    +0.002 C 
ATOM      6  C   UNL     1      34.709 -16.191 -21.000  0.00  0.00    +0.022 C 
ATOM      7  C   UNL     1      34.889 -19.235 -23.136  0.00  0.00    +0.014 C 
ATOM      8  C   UNL     1      34.749 -18.669 -24.401  0.00  0.00    +0.001 C 
ATOM      9  C   UNL     1      34.434 -15.078 -23.479  0.00  0.00    +0.099 C 
ATOM     10  C   UNL     1      34.554 -14.828 -21.199  0.00  0.00    +0.099 C 
ENDROOT
BRANCH   4  11
ATOM     11  N   UNL     1      35.023 -19.047 -20.738  0.00  0.00    -0.357 N 
ATOM     12  H   UNL     1      35.601 -18.642 -20.052  0.00  0.00    +0.142 HD
ATOM     13  H   UNL     1      34.546 -19.888 -20.546  0.00  0.00    +0.142 HD
ENDBRANCH   4  11
TORSDOF 1
ENDMDL
MODEL 7
REMARK VINA RESULT:      -6.7      3.708      4.914
REMARK  Name = 70766
REMARK  1 active torsions:
REMARK  status: ('A' for Active; 'I' for Inactive)
REMARK    1  A    between atoms: C_4  and  N_11
REMARK                            x       y       z     vdW  Elec       q    Type
REMARK                         _______ _______ _______ _____ _____    ______ ____
ROOT
ATOM      1  N   UNL     1      35.290 -17.933 -22.215  0.00  0.00    -0.242 NA
ATOM      2  C   UNL     1      35.407 -20.104 -20.427  0.00  0.00    +0.016 C 
ATOM      3  C   UNL     1      34.165 -19.663 -20.928  0.00  0.00    +0.020 C 
ATOM      4  C   UNL     1      35.438 -21.190 -19.535  0.00  0.00    +0.042 C 
ATOM      5  C   UNL     1      32.983 -20.310 -20.532  0.00  0.00    +0.002 C 
ATOM      6  C   UNL     1      36.574 -19.447 -20.833  0.00  0.00    +0.022 C 
ATOM      7  C   UNL     1      34.256 -21.826 -19.149  0.00  0.00    +0.014 C 
ATOM      8  C   UNL     1      33.031 -21.386 -19.647  0.00  0.00    +0.001 C 
ATOM      9  C   UNL     1      34.174 -18.582 -21.811  0.00  0.00    +0.099 C 
ATOM     10  C   UNL     1      36.460 -18.383 -21.715  0.00  0.00    +0.099 C 
ENDROOT
BRANCH   4  11
ATOM     11  N   UNL     1      36.656 -21.675 -19.002  0.00  0.00    -0.357 N 
ATOM     12  H   UNL     1      37.513 -21.396 -19.398  0.00  0.00    +0.142 HD
ATOM     13  H   UNL     1      36.646 -22.292 -18.233  0.00  0.00    +0.142 HD
ENDBRANCH   4  11
TORSDOF 1
ENDMDL
MODEL 8
REMARK VINA RESULT:      -6.7      4.405      6.319
REMARK  Name = 70766
REMARK  1 active torsions:
REMARK  status: ('A' for Active; 'I' for Inactive)
REMARK    1  A    between atoms: C_4  and  N_11
REMARK                            x       y       z     vdW  Elec       q    Type
REMARK                         _______ _______ _______ _____ _____    ______ ____
ROOT
ATOM      1  N   UNL     1      35.815 -22.449 -18.034  0.00  0.00    -0.242 NA
ATOM      2  C   UNL     1      34.441 -20.855 -19.903  0.00  0.00    +0.016 C 
ATOM      3  C   UNL     1      35.834 -20.712 -19.736  0.00  0.00    +0.020 C 
ATOM      4  C   UNL     1      33.780 -20.047 -20.844  0.00  0.00    +0.042 C 
ATOM      5  C   UNL     1      36.538 -19.770 -20.504  0.00  0.00    +0.002 C 
ATOM      6  C   UNL     1      33.759 -21.799 -19.128  0.00  0.00    +0.022 C 
ATOM      7  C   UNL     1      34.489 -19.114 -21.602  0.00  0.00    +0.014 C 
ATOM      8  C   UNL     1      35.865 -18.976 -21.433  0.00  0.00    +0.001 C 
ATOM      9  C   UNL     1      36.457 -21.532 -18.793  0.00  0.00    +0.099 C 
ATOM     10  C   UNL     1      34.483 -22.558 -18.222  0.00  0.00    +0.099 C 
ENDROOT
BRANCH   4  11
ATOM     11  N   UNL     1      32.383 -20.148 -21.054  0.00  0.00    -0.357 N 
ATOM     12  H   UNL     1      31.878 -20.894 -20.657  0.00  0.00    +0.142 HD
ATOM     13  H   UNL     1      31.917 -19.471 -21.598  0.00  0.00    +0.142 HD
ENDBRANCH   4  11
TORSDOF 1
ENDMDL
MODEL 9
REMARK VINA RESULT:      -6.6      1.233      2.955
REMARK  Name = 70766
REMARK  1 active torsions:
REMARK  status: ('A' for Active; 'I' for Inactive)
REMARK    1  A    between atoms: C_4  and  N_11
REMARK                            x       y       z     vdW  Elec       q    Type
REMARK                         _______ _______ _______ _____ _____    ______ ____
ROOT
ATOM      1  N   UNL     1      33.700 -14.435 -24.605  0.00  0.00    -0.242 NA
ATOM      2  C   UNL     1      34.594 -16.567 -23.000  0.00  0.00    +0.016 C 
ATOM      3  C   UNL     1      34.303 -16.778 -24.364  0.00  0.00    +0.020 C 
ATOM      4  C   UNL     1      35.039 -17.649 -22.221  0.00  0.00    +0.042 C 
ATOM      5  C   UNL     1      34.461 -18.057 -24.922  0.00  0.00    +0.002 C 
ATOM      6  C   UNL     1      34.431 -15.286 -22.463  0.00  0.00    +0.022 C 
ATOM      7  C   UNL     1      35.192 -18.916 -22.786  0.00  0.00    +0.014 C 
ATOM      8  C   UNL     1      34.903 -19.120 -24.134  0.00  0.00    +0.001 C 
ATOM      9  C   UNL     1      33.864 -15.681 -25.106  0.00  0.00    +0.099 C 
ATOM     10  C   UNL     1      33.988 -14.271 -23.297  0.00  0.00    +0.099 C 
ENDROOT
BRANCH   4  11
ATOM     11  N   UNL     1      35.346 -17.495 -20.847  0.00  0.00    -0.357 N 
ATOM     12  H   UNL     1      36.246 -17.717 -20.516  0.00  0.00    +0.142 HD
ATOM     13  H   UNL     1      34.658 -17.164 -20.224  0.00  0.00    +0.142 HD
ENDBRANCH   4  11
TORSDOF 1
ENDMDL
