MODEL 1
REMARK VINA RESULT:      -9.5      0.000      0.000
REMARK  Name = 11368987
REMARK  3 active torsions:
REMARK  status: ('A' for Active; 'I' for Inactive)
REMARK    1  A    between atoms: N_2  and  C_11
REMARK    2  A    between atoms: C_9  and  O_19
REMARK    3  A    between atoms: C_16  and  O_17
REMARK                            x       y       z     vdW  Elec       q    Type
REMARK                         _______ _______ _______ _____ _____    ______ ____
ROOT
ATOM      1 CL   UNL     1      37.434 -19.055 -21.380  0.00  0.00    -0.061 Cl
ATOM      2  N   UNL     1      34.790 -19.417 -21.671  0.00  0.00    -0.219 N 
ATOM      3  N   UNL     1      33.676 -20.032 -21.229  0.00  0.00    -0.164 NA
ATOM      4  C   UNL     1      35.512 -20.605 -20.020  0.00  0.00    +0.051 A 
ATOM      5  C   UNL     1      34.091 -20.785 -20.194  0.00  0.00    +0.104 A 
ATOM      6  C   UNL     1      35.926 -19.725 -20.981  0.00  0.00    +0.141 A 
ATOM      7  C   UNL     1      36.325 -21.202 -19.065  0.00  0.00    +0.041 C 
ATOM      8  C   UNL     1      33.369 -21.644 -19.345  0.00  0.00    +0.024 C 
ATOM      9  C   UNL     1      35.577 -22.055 -18.230  0.00  0.00    +0.134 C 
ATOM     10  C   UNL     1      34.168 -22.267 -18.362  0.00  0.00    +0.038 C 
ENDROOT
BRANCH   2  11
ATOM     11  C   UNL     1      34.684 -18.549 -22.761  0.00  0.00    +0.084 C 
ATOM     12  C   UNL     1      34.603 -19.071 -24.045  0.00  0.00    +0.022 C 
ATOM     13  C   UNL     1      34.662 -17.179 -22.543  0.00  0.00    +0.022 C 
ATOM     14  C   UNL     1      34.498 -18.204 -25.133  0.00  0.00    +0.038 C 
ATOM     15  C   UNL     1      34.557 -16.312 -23.631  0.00  0.00    +0.038 C 
ATOM     16  C   UNL     1      34.475 -16.825 -24.926  0.00  0.00    +0.134 C 
BRANCH  16  17
ATOM     17  O   UNL     1      34.373 -15.979 -25.987  0.00  0.00    -0.506 OA
ATOM     18  H   UNL     1      33.607 -15.448 -26.091  0.00  0.00    +0.292 HD
ENDBRANCH  16  17
ENDBRANCH   2  11
BRANCH   9  19
ATOM     19  O   UNL     1      36.236 -22.723 -17.231  0.00  0.00    -0.506 OA
ATOM     20  H   UNL     1      37.051 -22.395 -16.906  0.00  0.00    +0.292 HD
ENDBRANCH   9  19
TORSDOF 3
ENDMDL
MODEL 2
REMARK VINA RESULT:      -9.5      1.595      6.738
REMARK  Name = 11368987
REMARK  3 active torsions:
REMARK  status: ('A' for Active; 'I' for Inactive)
REMARK    1  A    between atoms: N_2  and  C_11
REMARK    2  A    between atoms: C_9  and  O_19
REMARK    3  A    between atoms: C_16  and  O_17
REMARK                            x       y       z     vdW  Elec       q    Type
REMARK                         _______ _______ _______ _____ _____    ______ ____
ROOT
ATOM      1 CL   UNL     1      34.984 -19.836 -24.395  0.00  0.00    -0.061 Cl
ATOM      2  N   UNL     1      34.668 -18.225 -22.270  0.00  0.00    -0.219 N 
ATOM      3  N   UNL     1      34.369 -16.990 -21.821  0.00  0.00    -0.164 NA
ATOM      4  C   UNL     1      34.296 -17.120 -24.088  0.00  0.00    +0.051 A 
ATOM      5  C   UNL     1      34.131 -16.272 -22.932  0.00  0.00    +0.104 A 
ATOM      6  C   UNL     1      34.639 -18.361 -23.628  0.00  0.00    +0.141 A 
ATOM      7  C   UNL     1      34.140 -16.765 -25.421  0.00  0.00    +0.041 C 
ATOM      8  C   UNL     1      33.773 -14.919 -23.082  0.00  0.00    +0.024 C 
ATOM      9  C   UNL     1      33.783 -15.408 -25.542  0.00  0.00    +0.134 C 
ATOM     10  C   UNL     1      33.608 -14.526 -24.428  0.00  0.00    +0.038 C 
ENDROOT
BRANCH   2  11
ATOM     11  C   UNL     1      34.969 -19.220 -21.338  0.00  0.00    +0.084 C 
ATOM     12  C   UNL     1      33.946 -19.997 -20.812  0.00  0.00    +0.022 C 
ATOM     13  C   UNL     1      36.288 -19.418 -20.952  0.00  0.00    +0.022 C 
ATOM     14  C   UNL     1      34.248 -20.991 -19.881  0.00  0.00    +0.038 C 
ATOM     15  C   UNL     1      36.589 -20.412 -20.020  0.00  0.00    +0.038 C 
ATOM     16  C   UNL     1      35.569 -21.198 -19.485  0.00  0.00    +0.134 C 
BRANCH  16  17
ATOM     17  O   UNL     1      35.863 -22.168 -18.576  0.00  0.00    -0.506 OA
ATOM     18  H   UNL     1      35.608 -22.062 -17.681  0.00  0.00    +0.292 HD
ENDBRANCH  16  17
ENDBRANCH   2  11
BRANCH   9  19
ATOM     19  O   UNL     1      33.592 -14.899 -26.800  0.00  0.00    -0.506 OA
ATOM     20  H   UNL     1      34.145 -15.171 -27.505  0.00  0.00    +0.292 HD
ENDBRANCH   9  19
TORSDOF 3
ENDMDL
MODEL 3
REMARK VINA RESULT:      -9.1      1.866      6.765
REMARK  Name = 11368987
REMARK  3 active torsions:
REMARK  status: ('A' for Active; 'I' for Inactive)
REMARK    1  A    between atoms: N_2  and  C_11
REMARK    2  A    between atoms: C_9  and  O_19
REMARK    3  A    between atoms: C_16  and  O_17
REMARK                            x       y       z     vdW  Elec       q    Type
REMARK                         _______ _______ _______ _____ _____    ______ ____
ROOT
ATOM      1 CL   UNL     1      34.693 -16.070 -20.266  0.00  0.00    -0.061 Cl
ATOM      2  N   UNL     1      34.729 -17.925 -22.207  0.00  0.00    -0.219 N 
ATOM      3  N   UNL     1      34.582 -18.193 -23.519  0.00  0.00    -0.164 NA
ATOM      4  C   UNL     1      34.268 -15.992 -23.052  0.00  0.00    +0.051 A 
ATOM      5  C   UNL     1      34.293 -17.006 -24.079  0.00  0.00    +0.104 A 
ATOM      6  C   UNL     1      34.551 -16.615 -21.868  0.00  0.00    +0.141 A 
ATOM      7  C   UNL     1      34.010 -14.638 -23.213  0.00  0.00    +0.041 C 
ATOM      8  C   UNL     1      34.037 -16.670 -25.421  0.00  0.00    +0.024 C 
ATOM      9  C   UNL     1      33.757 -14.330 -24.564  0.00  0.00    +0.134 C 
ATOM     10  C   UNL     1      33.769 -15.298 -25.618  0.00  0.00    +0.038 C 
ENDROOT
BRANCH   2  11
ATOM     11  C   UNL     1      35.039 -18.977 -21.341  0.00  0.00    +0.084 C 
ATOM     12  C   UNL     1      34.021 -19.786 -20.857  0.00  0.00    +0.022 C 
ATOM     13  C   UNL     1      36.360 -19.196 -20.979  0.00  0.00    +0.022 C 
ATOM     14  C   UNL     1      34.331 -20.836 -19.992  0.00  0.00    +0.038 C 
ATOM     15  C   UNL     1      36.670 -20.246 -20.114  0.00  0.00    +0.038 C 
ATOM     16  C   UNL     1      35.655 -21.066 -19.621  0.00  0.00    +0.134 C 
BRANCH  16  17
ATOM     17  O   UNL     1      35.957 -22.090 -18.777  0.00  0.00    -0.506 OA
ATOM     18  H   UNL     1      35.863 -21.977 -17.852  0.00  0.00    +0.292 HD
ENDBRANCH  16  17
ENDBRANCH   2  11
BRANCH   9  19
ATOM     19  O   UNL     1      33.483 -13.028 -24.890  0.00  0.00    -0.506 OA
ATOM     20  H   UNL     1      33.854 -12.330 -24.388  0.00  0.00    +0.292 HD
ENDBRANCH   9  19
TORSDOF 3
ENDMDL
MODEL 4
REMARK VINA RESULT:      -9.0      1.437      2.278
REMARK  Name = 11368987
REMARK  3 active torsions:
REMARK  status: ('A' for Active; 'I' for Inactive)
REMARK    1  A    between atoms: N_2  and  C_11
REMARK    2  A    between atoms: C_9  and  O_19
REMARK    3  A    between atoms: C_16  and  O_17
REMARK                            x       y       z     vdW  Elec       q    Type
REMARK                         _______ _______ _______ _____ _____    ______ ____
ROOT
ATOM      1 CL   UNL     1      32.262 -20.030 -21.385  0.00  0.00    -0.061 Cl
ATOM      2  N   UNL     1      34.892 -19.509 -21.539  0.00  0.00    -0.219 N 
ATOM      3  N   UNL     1      36.121 -19.731 -21.034  0.00  0.00    -0.164 NA
ATOM      4  C   UNL     1      34.512 -20.879 -19.914  0.00  0.00    +0.051 A 
ATOM      5  C   UNL     1      35.921 -20.585 -20.014  0.00  0.00    +0.104 A 
ATOM      6  C   UNL     1      33.884 -20.175 -20.903  0.00  0.00    +0.141 A 
ATOM      7  C   UNL     1      33.891 -21.714 -18.995  0.00  0.00    +0.041 C 
ATOM      8  C   UNL     1      36.839 -21.168 -19.121  0.00  0.00    +0.024 C 
ATOM      9  C   UNL     1      34.831 -22.283 -18.115  0.00  0.00    +0.134 C 
ATOM     10  C   UNL     1      36.238 -22.024 -18.173  0.00  0.00    +0.038 C 
ENDROOT
BRANCH   2  11
ATOM     11  C   UNL     1      34.764 -18.647 -22.631  0.00  0.00    +0.084 C 
ATOM     12  C   UNL     1      34.770 -17.275 -22.422  0.00  0.00    +0.022 C 
ATOM     13  C   UNL     1      34.634 -19.176 -23.907  0.00  0.00    +0.022 C 
ATOM     14  C   UNL     1      34.642 -16.414 -23.512  0.00  0.00    +0.038 C 
ATOM     15  C   UNL     1      34.506 -18.315 -24.997  0.00  0.00    +0.038 C 
ATOM     16  C   UNL     1      34.511 -16.934 -24.800  0.00  0.00    +0.134 C 
BRANCH  16  17
ATOM     17  O   UNL     1      34.386 -16.094 -25.863  0.00  0.00    -0.506 OA
ATOM     18  H   UNL     1      33.536 -15.815 -26.142  0.00  0.00    +0.292 HD
ENDBRANCH  16  17
ENDBRANCH   2  11
BRANCH   9  19
ATOM     19  O   UNL     1      34.376 -23.136 -17.144  0.00  0.00    -0.506 OA
ATOM     20  H   UNL     1      33.501 -23.469 -17.184  0.00  0.00    +0.292 HD
ENDBRANCH   9  19
TORSDOF 3
ENDMDL
MODEL 5
REMARK VINA RESULT:      -8.8      2.154      2.777
REMARK  Name = 11368987
REMARK  3 active torsions:
REMARK  status: ('A' for Active; 'I' for Inactive)
REMARK    1  A    between atoms: N_2  and  C_11
REMARK    2  A    between atoms: C_9  and  O_19
REMARK    3  A    between atoms: C_16  and  O_17
REMARK                            x       y       z     vdW  Elec       q    Type
REMARK                         _______ _______ _______ _____ _____    ______ ____
ROOT
ATOM      1 CL   UNL     1      31.952 -18.537 -20.929  0.00  0.00    -0.061 Cl
ATOM      2  N   UNL     1      34.615 -18.268 -21.139  0.00  0.00    -0.219 N 
ATOM      3  N   UNL     1      35.828 -18.819 -20.935  0.00  0.00    -0.164 NA
ATOM      4  C   UNL     1      34.140 -20.187 -20.269  0.00  0.00    +0.051 A 
ATOM      5  C   UNL     1      35.568 -20.021 -20.391  0.00  0.00    +0.104 A 
ATOM      6  C   UNL     1      33.562 -19.048 -20.756  0.00  0.00    +0.141 A 
ATOM      7  C   UNL     1      33.461 -21.285 -19.758  0.00  0.00    +0.041 C 
ATOM      8  C   UNL     1      36.445 -21.038 -19.969  0.00  0.00    +0.024 C 
ATOM      9  C   UNL     1      34.361 -22.285 -19.343  0.00  0.00    +0.134 C 
ATOM     10  C   UNL     1      35.784 -22.170 -19.443  0.00  0.00    +0.038 C 
ENDROOT
BRANCH   2  11
ATOM     11  C   UNL     1      34.548 -16.992 -21.704  0.00  0.00    +0.084 C 
ATOM     12  C   UNL     1      34.644 -16.849 -23.081  0.00  0.00    +0.022 C 
ATOM     13  C   UNL     1      34.386 -15.888 -20.880  0.00  0.00    +0.022 C 
ATOM     14  C   UNL     1      34.577 -15.575 -23.645  0.00  0.00    +0.038 C 
ATOM     15  C   UNL     1      34.319 -14.614 -21.444  0.00  0.00    +0.038 C 
ATOM     16  C   UNL     1      34.414 -14.458 -22.827  0.00  0.00    +0.134 C 
BRANCH  16  17
ATOM     17  O   UNL     1      34.349 -13.215 -23.377  0.00  0.00    -0.506 OA
ATOM     18  H   UNL     1      33.516 -12.820 -23.545  0.00  0.00    +0.292 HD
ENDBRANCH  16  17
ENDBRANCH   2  11
BRANCH   9  19
ATOM     19  O   UNL     1      33.846 -23.439 -18.813  0.00  0.00    -0.506 OA
ATOM     20  H   UNL     1      32.955 -23.466 -18.525  0.00  0.00    +0.292 HD
ENDBRANCH   9  19
TORSDOF 3
ENDMDL
MODEL 6
REMARK VINA RESULT:      -8.7      2.125      6.742
REMARK  Name = 11368987
REMARK  3 active torsions:
REMARK  status: ('A' for Active; 'I' for Inactive)
REMARK    1  A    between atoms: N_2  and  C_11
REMARK    2  A    between atoms: C_9  and  O_19
REMARK    3  A    between atoms: C_16  and  O_17
REMARK                            x       y       z     vdW  Elec       q    Type
REMARK                         _______ _______ _______ _____ _____    ______ ____
ROOT
ATOM      1 CL   UNL     1      35.537 -18.220 -24.086  0.00  0.00    -0.061 Cl
ATOM      2  N   UNL     1      34.266 -17.576 -21.810  0.00  0.00    -0.219 N 
ATOM      3  N   UNL     1      33.561 -16.651 -21.130  0.00  0.00    -0.164 NA
ATOM      4  C   UNL     1      34.140 -15.935 -23.207  0.00  0.00    +0.051 A 
ATOM      5  C   UNL     1      33.463 -15.610 -21.975  0.00  0.00    +0.104 A 
ATOM      6  C   UNL     1      34.642 -17.199 -23.067  0.00  0.00    +0.141 A 
ATOM      7  C   UNL     1      34.270 -15.132 -24.333  0.00  0.00    +0.041 C 
ATOM      8  C   UNL     1      32.836 -14.360 -21.811  0.00  0.00    +0.024 C 
ATOM      9  C   UNL     1      33.635 -13.890 -24.142  0.00  0.00    +0.134 C 
ATOM     10  C   UNL     1      32.951 -13.520 -22.940  0.00  0.00    +0.038 C 
ENDROOT
BRANCH   2  11
ATOM     11  C   UNL     1      34.540 -18.797 -21.188  0.00  0.00    +0.084 C 
ATOM     12  C   UNL     1      35.859 -19.184 -20.993  0.00  0.00    +0.022 C 
ATOM     13  C   UNL     1      33.489 -19.604 -20.774  0.00  0.00    +0.022 C 
ATOM     14  C   UNL     1      36.132 -20.403 -20.372  0.00  0.00    +0.038 C 
ATOM     15  C   UNL     1      33.763 -20.823 -20.153  0.00  0.00    +0.038 C 
ATOM     16  C   UNL     1      35.084 -21.221 -19.952  0.00  0.00    +0.134 C 
BRANCH  16  17
ATOM     17  O   UNL     1      35.351 -22.411 -19.346  0.00  0.00    -0.506 OA
ATOM     18  H   UNL     1      36.238 -22.694 -19.241  0.00  0.00    +0.292 HD
ENDBRANCH  16  17
ENDBRANCH   2  11
BRANCH   9  19
ATOM     19  O   UNL     1      33.673 -12.980 -25.165  0.00  0.00    -0.506 OA
ATOM     20  H   UNL     1      34.468 -12.525 -25.359  0.00  0.00    +0.292 HD
ENDBRANCH   9  19
TORSDOF 3
ENDMDL
MODEL 7
REMARK VINA RESULT:      -8.6      6.507     10.039
REMARK  Name = 11368987
REMARK  3 active torsions:
REMARK  status: ('A' for Active; 'I' for Inactive)
REMARK    1  A    between atoms: N_2  and  C_11
REMARK    2  A    between atoms: C_9  and  O_19
REMARK    3  A    between atoms: C_16  and  O_17
REMARK                            x       y       z     vdW  Elec       q    Type
REMARK                         _______ _______ _______ _____ _____    ______ ____
ROOT
ATOM      1 CL   UNL     1      31.602 -12.252 -22.248  0.00  0.00    -0.061 Cl
ATOM      2  N   UNL     1      33.588 -11.843 -24.008  0.00  0.00    -0.219 N 
ATOM      3  N   UNL     1      34.439 -10.963 -24.569  0.00  0.00    -0.164 NA
ATOM      4  C   UNL     1      33.088  -9.987 -23.026  0.00  0.00    +0.051 A 
ATOM      5  C   UNL     1      34.154  -9.789 -23.978  0.00  0.00    +0.104 A 
ATOM      6  C   UNL     1      32.750 -11.311 -23.072  0.00  0.00    +0.141 A 
ATOM      7  C   UNL     1      32.501  -9.029 -22.209  0.00  0.00    +0.041 C 
ATOM      8  C   UNL     1      34.722  -8.515 -24.162  0.00  0.00    +0.024 C 
ATOM      9  C   UNL     1      33.088  -7.765 -22.414  0.00  0.00    +0.134 C 
ATOM     10  C   UNL     1      34.147  -7.518 -23.345  0.00  0.00    +0.038 C 
ENDROOT
BRANCH   2  11
ATOM     11  C   UNL     1      33.637 -13.177 -24.422  0.00  0.00    +0.084 C 
ATOM     12  C   UNL     1      33.181 -13.516 -25.688  0.00  0.00    +0.022 C 
ATOM     13  C   UNL     1      34.142 -14.141 -23.562  0.00  0.00    +0.022 C 
ATOM     14  C   UNL     1      33.230 -14.848 -26.102  0.00  0.00    +0.038 C 
ATOM     15  C   UNL     1      34.192 -15.472 -23.975  0.00  0.00    +0.038 C 
ATOM     16  C   UNL     1      33.736 -15.825 -25.245  0.00  0.00    +0.134 C 
BRANCH  16  17
ATOM     17  O   UNL     1      33.784 -17.125 -25.648  0.00  0.00    -0.506 OA
ATOM     18  H   UNL     1      34.547 -17.452 -26.084  0.00  0.00    +0.292 HD
ENDBRANCH  16  17
ENDBRANCH   2  11
BRANCH   9  19
ATOM     19  O   UNL     1      32.618  -6.708 -21.680  0.00  0.00    -0.506 OA
ATOM     20  H   UNL     1      33.017  -5.865 -21.763  0.00  0.00    +0.292 HD
ENDBRANCH   9  19
TORSDOF 3
ENDMDL
MODEL 8
REMARK VINA RESULT:      -8.6      6.323      9.654
REMARK  Name = 11368987
REMARK  3 active torsions:
REMARK  status: ('A' for Active; 'I' for Inactive)
REMARK    1  A    between atoms: N_2  and  C_11
REMARK    2  A    between atoms: C_9  and  O_19
REMARK    3  A    between atoms: C_16  and  O_17
REMARK                            x       y       z     vdW  Elec       q    Type
REMARK                         _______ _______ _______ _____ _____    ______ ____
ROOT
ATOM      1 CL   UNL     1      34.865 -11.072 -25.569  0.00  0.00    -0.061 Cl
ATOM      2  N   UNL     1      33.248 -12.259 -23.784  0.00  0.00    -0.219 N 
ATOM      3  N   UNL     1      32.404 -12.108 -22.745  0.00  0.00    -0.164 NA
ATOM      4  C   UNL     1      33.237 -10.123 -23.472  0.00  0.00    +0.051 A 
ATOM      5  C   UNL     1      32.374 -10.782 -22.522  0.00  0.00    +0.104 A 
ATOM      6  C   UNL     1      33.780 -11.097 -24.263  0.00  0.00    +0.141 A 
ATOM      7  C   UNL     1      33.485  -8.761 -23.580  0.00  0.00    +0.041 C 
ATOM      8  C   UNL     1      31.665 -10.036 -21.562  0.00  0.00    +0.024 C 
ATOM      9  C   UNL     1      32.764  -8.040 -22.609  0.00  0.00    +0.134 C 
ATOM     10  C   UNL     1      31.895  -8.646 -21.646  0.00  0.00    +0.038 C 
ENDROOT
BRANCH   2  11
ATOM     11  C   UNL     1      33.494 -13.549 -24.262  0.00  0.00    +0.084 C 
ATOM     12  C   UNL     1      34.225 -14.437 -23.485  0.00  0.00    +0.022 C 
ATOM     13  C   UNL     1      33.004 -13.922 -25.505  0.00  0.00    +0.022 C 
ATOM     14  C   UNL     1      34.471 -15.725 -23.962  0.00  0.00    +0.038 C 
ATOM     15  C   UNL     1      33.249 -15.210 -25.982  0.00  0.00    +0.038 C 
ATOM     16  C   UNL     1      33.982 -16.111 -25.210  0.00  0.00    +0.134 C 
BRANCH  16  17
ATOM     17  O   UNL     1      34.222 -17.368 -25.675  0.00  0.00    -0.506 OA
ATOM     18  H   UNL     1      34.918 -17.516 -26.286  0.00  0.00    +0.292 HD
ENDBRANCH  16  17
ENDBRANCH   2  11
BRANCH   9  19
ATOM     19  O   UNL     1      32.900  -6.676 -22.583  0.00  0.00    -0.506 OA
ATOM     20  H   UNL     1      32.557  -6.157 -23.282  0.00  0.00    +0.292 HD
ENDBRANCH   9  19
TORSDOF 3
ENDMDL
MODEL 9
REMARK VINA RESULT:      -8.6      4.572      6.735
REMARK  Name = 11368987
REMARK  3 active torsions:
REMARK  status: ('A' for Active; 'I' for Inactive)
REMARK    1  A    between atoms: N_2  and  C_11
REMARK    2  A    between atoms: C_9  and  O_19
REMARK    3  A    between atoms: C_16  and  O_17
REMARK                            x       y       z     vdW  Elec       q    Type
REMARK                         _______ _______ _______ _____ _____    ______ ____
ROOT
ATOM      1 CL   UNL     1      32.762 -14.505 -26.069  0.00  0.00    -0.061 Cl
ATOM      2  N   UNL     1      33.812 -14.169 -23.621  0.00  0.00    -0.219 N 
ATOM      3  N   UNL     1      34.476 -14.724 -22.588  0.00  0.00    -0.164 NA
ATOM      4  C   UNL     1      34.141 -16.197 -24.285  0.00  0.00    +0.051 A 
ATOM      5  C   UNL     1      34.698 -15.994 -22.969  0.00  0.00    +0.104 A 
ATOM      6  C   UNL     1      33.583 -15.010 -24.671  0.00  0.00    +0.141 A 
ATOM      7  C   UNL     1      34.157 -17.366 -25.034  0.00  0.00    +0.041 C 
ATOM      8  C   UNL     1      35.348 -17.046 -22.298  0.00  0.00    +0.024 C 
ATOM      9  C   UNL     1      34.813 -18.400 -24.340  0.00  0.00    +0.134 C 
ATOM     10  C   UNL     1      35.381 -18.250 -23.035  0.00  0.00    +0.038 C 
ENDROOT
BRANCH   2  11
ATOM     11  C   UNL     1      33.432 -12.828 -23.526  0.00  0.00    +0.084 C 
ATOM     12  C   UNL     1      32.425 -12.464 -22.643  0.00  0.00    +0.022 C 
ATOM     13  C   UNL     1      34.067 -11.880 -24.317  0.00  0.00    +0.022 C 
ATOM     14  C   UNL     1      32.045 -11.124 -22.549  0.00  0.00    +0.038 C 
ATOM     15  C   UNL     1      33.687 -10.541 -24.223  0.00  0.00    +0.038 C 
ATOM     16  C   UNL     1      32.677 -10.164 -23.339  0.00  0.00    +0.134 C 
BRANCH  16  17
ATOM     17  O   UNL     1      32.306  -8.857 -23.247  0.00  0.00    -0.506 OA
ATOM     18  H   UNL     1      32.934  -8.180 -23.409  0.00  0.00    +0.292 HD
ENDBRANCH  16  17
ENDBRANCH   2  11
BRANCH   9  19
ATOM     19  O   UNL     1      34.914 -19.624 -24.947  0.00  0.00    -0.506 OA
ATOM     20  H   UNL     1      34.365 -19.832 -25.677  0.00  0.00    +0.292 HD
ENDBRANCH   9  19
TORSDOF 3
ENDMDL
