MODEL 1
REMARK VINA RESULT:     -10.2      0.000      0.000
REMARK  Name = 6918638
REMARK  6 active torsions:
REMARK  status: ('A' for Active; 'I' for Inactive)
REMARK    1  A    between atoms: C_1  and  S_7
REMARK    2  A    between atoms: C_3  and  C_18
REMARK    3  A    between atoms: S_7  and  N_10
REMARK    4  A    between atoms: N_10  and  C_12
REMARK    5  A    between atoms: C_19  and  C_22
REMARK    6  A    between atoms: N_21  and  O_24
REMARK                            x       y       z     vdW  Elec       q    Type
REMARK                         _______ _______ _______ _____ _____    ______ ____
ROOT
ATOM      1  C   UNL     1      34.483 -16.697 -22.203  0.00  0.00    +0.125 C 
ATOM      2  C   UNL     1      34.123 -17.665 -21.266  0.00  0.00    +0.020 C 
ATOM      3  C   UNL     1      34.206 -19.018 -21.596  0.00  0.00    +0.001 C 
ATOM      4  C   UNL     1      34.926 -17.082 -23.469  0.00  0.00    +0.020 C 
ATOM      5  C   UNL     1      34.648 -19.403 -22.861  0.00  0.00    +0.000 C 
ATOM      6  C   UNL     1      35.008 -18.435 -23.798  0.00  0.00    +0.001 C 
ENDROOT
BRANCH   1   7
ATOM      7  S   UNL     1      34.381 -15.002 -21.793  0.00  0.00    +0.074 S 
ATOM      8  O   UNL     1      34.874 -14.239 -22.933  0.00  0.00    -0.150 OA
ATOM      9  O   UNL     1      35.002 -14.800 -20.489  0.00  0.00    -0.150 OA
BRANCH   7  10
ATOM     10  N   UNL     1      32.682 -14.742 -21.669  0.00  0.00    -0.215 N 
ATOM     11  H   UNL     1      32.047 -15.487 -21.773  0.00  0.00    +0.174 HD
BRANCH  10  12
ATOM     12  C   UNL     1      32.220 -13.404 -21.412  0.00  0.00    +0.065 C 
ATOM     13  C   UNL     1      31.901 -12.570 -22.477  0.00  0.00    +0.016 C 
ATOM     14  C   UNL     1      32.094 -12.962 -20.100  0.00  0.00    +0.016 C 
ATOM     15  C   UNL     1      31.452 -11.273 -22.226  0.00  0.00    +0.001 C 
ATOM     16  C   UNL     1      31.645 -11.666 -19.850  0.00  0.00    +0.001 C 
ATOM     17  C   UNL     1      31.324 -10.821 -20.913  0.00  0.00    +0.000 C 
ENDBRANCH  10  12
ENDBRANCH   7  10
ENDBRANCH   1   7
BRANCH   3  18
ATOM     18  C   UNL     1      33.831 -20.029 -20.618  0.00  0.00    +0.005 C 
ATOM     19  C   UNL     1      34.674 -20.927 -20.062  0.00  0.00    +0.060 C 
BRANCH  19  22
ATOM     20  O   UNL     1      34.925 -22.670 -18.449  0.00  0.00    -0.268 OA
ATOM     21  N   UNL     1      32.816 -21.851 -18.923  0.00  0.00    -0.193 N 
ATOM     22  C   UNL     1      34.179 -21.913 -19.061  0.00  0.00    +0.268 C 
ATOM     23  H   UNL     1      32.264 -21.223 -19.441  0.00  0.00    +0.183 HD
BRANCH  21  24
ATOM     24  O   UNL     1      32.260 -22.743 -17.995  0.00  0.00    -0.295 OA
ATOM     25  H   UNL     1      31.509 -23.205 -18.400  0.00  0.00    +0.241 HD
ENDBRANCH  21  24
ENDBRANCH  19  22
ENDBRANCH   3  18
TORSDOF 6
ENDMDL
MODEL 2
REMARK VINA RESULT:     -10.1      5.244      8.283
REMARK  Name = 6918638
REMARK  6 active torsions:
REMARK  status: ('A' for Active; 'I' for Inactive)
REMARK    1  A    between atoms: C_1  and  S_7
REMARK    2  A    between atoms: C_3  and  C_18
REMARK    3  A    between atoms: S_7  and  N_10
REMARK    4  A    between atoms: N_10  and  C_12
REMARK    5  A    between atoms: C_19  and  C_22
REMARK    6  A    between atoms: N_21  and  O_24
REMARK                            x       y       z     vdW  Elec       q    Type
REMARK                         _______ _______ _______ _____ _____    ______ ____
ROOT
ATOM      1  C   UNL     1      33.076 -23.113 -17.093  0.00  0.00    +0.125 C 
ATOM      2  C   UNL     1      31.707 -22.847 -17.076  0.00  0.00    +0.020 C 
ATOM      3  C   UNL     1      30.983 -22.998 -15.892  0.00  0.00    +0.001 C 
ATOM      4  C   UNL     1      33.720 -23.530 -15.928  0.00  0.00    +0.020 C 
ATOM      5  C   UNL     1      31.627 -23.415 -14.728  0.00  0.00    +0.000 C 
ATOM      6  C   UNL     1      32.996 -23.681 -14.746  0.00  0.00    +0.001 C 
ENDROOT
BRANCH   1   7
ATOM      7  S   UNL     1      33.984 -22.925 -18.573  0.00  0.00    +0.074 S 
ATOM      8  O   UNL     1      33.869 -24.168 -19.326  0.00  0.00    -0.150 OA
ATOM      9  O   UNL     1      35.313 -22.423 -18.243  0.00  0.00    -0.150 OA
BRANCH   7  10
ATOM     10  N   UNL     1      33.099 -21.708 -19.412  0.00  0.00    -0.215 N 
ATOM     11  H   UNL     1      32.115 -21.716 -19.424  0.00  0.00    +0.174 HD
BRANCH  10  12
ATOM     12  C   UNL     1      33.841 -20.681 -20.093  0.00  0.00    +0.065 C 
ATOM     13  C   UNL     1      33.163 -19.623 -20.688  0.00  0.00    +0.016 C 
ATOM     14  C   UNL     1      35.227 -20.756 -20.147  0.00  0.00    +0.016 C 
ATOM     15  C   UNL     1      33.882 -18.627 -21.349  0.00  0.00    +0.001 C 
ATOM     16  C   UNL     1      35.947 -19.760 -20.808  0.00  0.00    +0.001 C 
ATOM     17  C   UNL     1      35.275 -18.696 -21.408  0.00  0.00    +0.000 C 
ENDBRANCH  10  12
ENDBRANCH   7  10
ENDBRANCH   1   7
BRANCH   3  18
ATOM     18  C   UNL     1      29.554 -22.720 -15.873  0.00  0.00    +0.005 C 
ATOM     19  C   UNL     1      28.766 -22.610 -16.966  0.00  0.00    +0.060 C 
BRANCH  19  22
ATOM     20  O   UNL     1      26.568 -22.174 -17.789  0.00  0.00    -0.268 OA
ATOM     21  N   UNL     1      26.929 -22.287 -15.508  0.00  0.00    -0.193 N 
ATOM     22  C   UNL     1      27.310 -22.332 -16.825  0.00  0.00    +0.268 C 
ATOM     23  H   UNL     1      27.568 -22.421 -14.773  0.00  0.00    +0.183 HD
BRANCH  21  24
ATOM     24  O   UNL     1      25.569 -22.035 -15.280  0.00  0.00    -0.295 OA
ATOM     25  H   UNL     1      25.255 -21.366 -15.908  0.00  0.00    +0.241 HD
ENDBRANCH  21  24
ENDBRANCH  19  22
ENDBRANCH   3  18
TORSDOF 6
ENDMDL
MODEL 3
REMARK VINA RESULT:     -10.0      2.751      7.788
REMARK  Name = 6918638
REMARK  6 active torsions:
REMARK  status: ('A' for Active; 'I' for Inactive)
REMARK    1  A    between atoms: C_1  and  S_7
REMARK    2  A    between atoms: C_3  and  C_18
REMARK    3  A    between atoms: S_7  and  N_10
REMARK    4  A    between atoms: N_10  and  C_12
REMARK    5  A    between atoms: C_19  and  C_22
REMARK    6  A    between atoms: N_21  and  O_24
REMARK                            x       y       z     vdW  Elec       q    Type
REMARK                         _______ _______ _______ _____ _____    ______ ____
ROOT
ATOM      1  C   UNL     1      34.584 -16.712 -23.023  0.00  0.00    +0.125 C 
ATOM      2  C   UNL     1      33.922 -15.576 -22.559  0.00  0.00    +0.020 C 
ATOM      3  C   UNL     1      33.332 -14.694 -23.466  0.00  0.00    +0.001 C 
ATOM      4  C   UNL     1      34.657 -16.967 -24.393  0.00  0.00    +0.020 C 
ATOM      5  C   UNL     1      33.406 -14.948 -24.835  0.00  0.00    +0.000 C 
ATOM      6  C   UNL     1      34.068 -16.085 -25.299  0.00  0.00    +0.001 C 
ENDROOT
BRANCH   1   7
ATOM      7  S   UNL     1      35.322 -17.818 -21.890  0.00  0.00    +0.074 S 
ATOM      8  O   UNL     1      35.274 -17.199 -20.572  0.00  0.00    -0.150 OA
ATOM      9  O   UNL     1      36.613 -18.239 -22.424  0.00  0.00    -0.150 OA
BRANCH   7  10
ATOM     10  N   UNL     1      34.233 -19.153 -21.895  0.00  0.00    -0.215 N 
ATOM     11  H   UNL     1      33.537 -19.235 -22.586  0.00  0.00    +0.174 HD
BRANCH  10  12
ATOM     12  C   UNL     1      34.371 -20.142 -20.860  0.00  0.00    +0.065 C 
ATOM     13  C   UNL     1      33.236 -20.640 -20.229  0.00  0.00    +0.016 C 
ATOM     14  C   UNL     1      35.637 -20.591 -20.503  0.00  0.00    +0.016 C 
ATOM     15  C   UNL     1      33.370 -21.599 -19.226  0.00  0.00    +0.001 C 
ATOM     16  C   UNL     1      35.771 -21.550 -19.500  0.00  0.00    +0.001 C 
ATOM     17  C   UNL     1      34.637 -22.055 -18.861  0.00  0.00    +0.000 C 
ENDBRANCH  10  12
ENDBRANCH   7  10
ENDBRANCH   1   7
BRANCH   3  18
ATOM     18  C   UNL     1      32.641 -13.508 -22.983  0.00  0.00    +0.005 C 
ATOM     19  C   UNL     1      32.297 -13.275 -21.696  0.00  0.00    +0.060 C 
BRANCH  19  22
ATOM     20  O   UNL     1      31.068 -11.276 -22.135  0.00  0.00    -0.268 OA
ATOM     21  N   UNL     1      31.626 -11.815 -19.957  0.00  0.00    -0.193 N 
ATOM     22  C   UNL     1      31.598 -12.017 -21.314  0.00  0.00    +0.268 C 
ATOM     23  H   UNL     1      32.068 -12.444 -19.343  0.00  0.00    +0.183 HD
BRANCH  21  24
ATOM     24  O   UNL     1      30.986 -10.654 -19.505  0.00  0.00    -0.295 OA
ATOM     25  H   UNL     1      31.551 -10.205 -18.857  0.00  0.00    +0.241 HD
ENDBRANCH  21  24
ENDBRANCH  19  22
ENDBRANCH   3  18
TORSDOF 6
ENDMDL
MODEL 4
REMARK VINA RESULT:     -10.0      3.311      8.535
REMARK  Name = 6918638
REMARK  6 active torsions:
REMARK  status: ('A' for Active; 'I' for Inactive)
REMARK    1  A    between atoms: C_1  and  S_7
REMARK    2  A    between atoms: C_3  and  C_18
REMARK    3  A    between atoms: S_7  and  N_10
REMARK    4  A    between atoms: N_10  and  C_12
REMARK    5  A    between atoms: C_19  and  C_22
REMARK    6  A    between atoms: N_21  and  O_24
REMARK                            x       y       z     vdW  Elec       q    Type
REMARK                         _______ _______ _______ _____ _____    ______ ____
ROOT
ATOM      1  C   UNL     1      34.736 -16.701 -23.070  0.00  0.00    +0.125 C 
ATOM      2  C   UNL     1      34.596 -15.338 -22.808  0.00  0.00    +0.020 C 
ATOM      3  C   UNL     1      34.086 -14.489 -23.790  0.00  0.00    +0.001 C 
ATOM      4  C   UNL     1      34.366 -17.214 -24.314  0.00  0.00    +0.020 C 
ATOM      5  C   UNL     1      33.717 -15.001 -25.034  0.00  0.00    +0.000 C 
ATOM      6  C   UNL     1      33.857 -16.364 -25.296  0.00  0.00    +0.001 C 
ENDROOT
BRANCH   1   7
ATOM      7  S   UNL     1      35.374 -17.766 -21.842  0.00  0.00    +0.074 S 
ATOM      8  O   UNL     1      35.315 -17.061 -20.568  0.00  0.00    -0.150 OA
ATOM      9  O   UNL     1      36.658 -18.287 -22.298  0.00  0.00    -0.150 OA
BRANCH   7  10
ATOM     10  N   UNL     1      34.215 -19.041 -21.803  0.00  0.00    -0.215 N 
ATOM     11  H   UNL     1      33.467 -19.064 -22.441  0.00  0.00    +0.174 HD
BRANCH  10  12
ATOM     12  C   UNL     1      34.374 -20.068 -20.809  0.00  0.00    +0.065 C 
ATOM     13  C   UNL     1      33.249 -20.621 -20.206  0.00  0.00    +0.016 C 
ATOM     14  C   UNL     1      35.649 -20.499 -20.463  0.00  0.00    +0.016 C 
ATOM     15  C   UNL     1      33.403 -21.618 -19.243  0.00  0.00    +0.001 C 
ATOM     16  C   UNL     1      35.803 -21.496 -19.500  0.00  0.00    +0.001 C 
ATOM     17  C   UNL     1      34.680 -22.056 -18.890  0.00  0.00    +0.000 C 
ENDBRANCH  10  12
ENDBRANCH   7  10
ENDBRANCH   1   7
BRANCH   3  18
ATOM     18  C   UNL     1      33.939 -13.067 -23.518  0.00  0.00    +0.005 C 
ATOM     19  C   UNL     1      33.963 -12.087 -24.450  0.00  0.00    +0.060 C 
BRANCH  19  22
ATOM     20  O   UNL     1      32.710 -10.188 -23.726  0.00  0.00    -0.268 OA
ATOM     21  N   UNL     1      34.981  -9.978 -24.105  0.00  0.00    -0.193 N 
ATOM     22  C   UNL     1      33.792 -10.661 -24.055  0.00  0.00    +0.268 C 
ATOM     23  H   UNL     1      35.822 -10.409 -24.378  0.00  0.00    +0.183 HD
BRANCH  21  24
ATOM     24  O   UNL     1      34.916  -8.625 -23.744  0.00  0.00    -0.295 OA
ATOM     25  H   UNL     1      35.289  -8.082 -24.456  0.00  0.00    +0.241 HD
ENDBRANCH  21  24
ENDBRANCH  19  22
ENDBRANCH   3  18
TORSDOF 6
ENDMDL
MODEL 5
REMARK VINA RESULT:      -9.9      5.344      8.617
REMARK  Name = 6918638
REMARK  6 active torsions:
REMARK  status: ('A' for Active; 'I' for Inactive)
REMARK    1  A    between atoms: C_1  and  S_7
REMARK    2  A    between atoms: C_3  and  C_18
REMARK    3  A    between atoms: S_7  and  N_10
REMARK    4  A    between atoms: N_10  and  C_12
REMARK    5  A    between atoms: C_19  and  C_22
REMARK    6  A    between atoms: N_21  and  O_24
REMARK                            x       y       z     vdW  Elec       q    Type
REMARK                         _______ _______ _______ _____ _____    ______ ____
ROOT
ATOM      1  C   UNL     1      33.139 -23.179 -16.864  0.00  0.00    +0.125 C 
ATOM      2  C   UNL     1      33.847 -23.573 -15.730  0.00  0.00    +0.020 C 
ATOM      3  C   UNL     1      33.178 -23.753 -14.518  0.00  0.00    +0.001 C 
ATOM      4  C   UNL     1      31.762 -22.963 -16.787  0.00  0.00    +0.020 C 
ATOM      5  C   UNL     1      31.803 -23.537 -14.441  0.00  0.00    +0.000 C 
ATOM      6  C   UNL     1      31.095 -23.142 -15.576  0.00  0.00    +0.001 C 
ENDROOT
BRANCH   1   7
ATOM      7  S   UNL     1      33.973 -22.953 -18.382  0.00  0.00    +0.074 S 
ATOM      8  O   UNL     1      33.799 -24.168 -19.169  0.00  0.00    -0.150 OA
ATOM      9  O   UNL     1      35.325 -22.483 -18.104  0.00  0.00    -0.150 OA
BRANCH   7  10
ATOM     10  N   UNL     1      33.067 -21.695 -19.132  0.00  0.00    -0.215 N 
ATOM     11  H   UNL     1      32.095 -21.623 -18.999  0.00  0.00    +0.174 HD
BRANCH  10  12
ATOM     12  C   UNL     1      33.774 -20.753 -19.959  0.00  0.00    +0.065 C 
ATOM     13  C   UNL     1      33.062 -19.795 -20.672  0.00  0.00    +0.016 C 
ATOM     14  C   UNL     1      35.160 -20.810 -20.034  0.00  0.00    +0.016 C 
ATOM     15  C   UNL     1      33.748 -18.882 -21.474  0.00  0.00    +0.001 C 
ATOM     16  C   UNL     1      35.846 -19.898 -20.836  0.00  0.00    +0.001 C 
ATOM     17  C   UNL     1      35.140 -18.933 -21.555  0.00  0.00    +0.000 C 
ENDBRANCH  10  12
ENDBRANCH   7  10
ENDBRANCH   1   7
BRANCH   3  18
ATOM     18  C   UNL     1      33.917 -24.166 -13.334  0.00  0.00    +0.005 C 
ATOM     19  C   UNL     1      35.256 -24.339 -13.270  0.00  0.00    +0.060 C 
BRANCH  19  22
ATOM     20  O   UNL     1      36.527 -25.807 -11.881  0.00  0.00    -0.268 OA
ATOM     21  N   UNL     1      35.725 -23.822 -11.008  0.00  0.00    -0.193 N 
ATOM     22  C   UNL     1      35.907 -24.755 -11.997  0.00  0.00    +0.268 C 
ATOM     23  H   UNL     1      35.217 -22.993 -11.157  0.00  0.00    +0.183 HD
BRANCH  21  24
ATOM     24  O   UNL     1      36.310 -24.128  -9.772  0.00  0.00    -0.295 OA
ATOM     25  H   UNL     1      37.150 -24.592  -9.918  0.00  0.00    +0.241 HD
ENDBRANCH  21  24
ENDBRANCH  19  22
ENDBRANCH   3  18
TORSDOF 6
ENDMDL
MODEL 6
REMARK VINA RESULT:      -9.7      4.025      9.082
REMARK  Name = 6918638
REMARK  6 active torsions:
REMARK  status: ('A' for Active; 'I' for Inactive)
REMARK    1  A    between atoms: C_1  and  S_7
REMARK    2  A    between atoms: C_3  and  C_18
REMARK    3  A    between atoms: S_7  and  N_10
REMARK    4  A    between atoms: N_10  and  C_12
REMARK    5  A    between atoms: C_19  and  C_22
REMARK    6  A    between atoms: N_21  and  O_24
REMARK                            x       y       z     vdW  Elec       q    Type
REMARK                         _______ _______ _______ _____ _____    ______ ____
ROOT
ATOM      1  C   UNL     1      34.838 -21.446 -19.489  0.00  0.00    +0.125 C 
ATOM      2  C   UNL     1      34.326 -20.539 -20.416  0.00  0.00    +0.020 C 
ATOM      3  C   UNL     1      35.173 -19.611 -21.025  0.00  0.00    +0.001 C 
ATOM      4  C   UNL     1      36.196 -21.425 -19.170  0.00  0.00    +0.020 C 
ATOM      5  C   UNL     1      36.530 -19.590 -20.705  0.00  0.00    +0.000 C 
ATOM      6  C   UNL     1      37.042 -20.497 -19.778  0.00  0.00    +0.001 C 
ENDROOT
BRANCH   1   7
ATOM      7  S   UNL     1      33.781 -22.608 -18.727  0.00  0.00    +0.074 S 
ATOM      8  O   UNL     1      33.924 -23.872 -19.438  0.00  0.00    -0.150 OA
ATOM      9  O   UNL     1      32.454 -22.018 -18.601  0.00  0.00    -0.150 OA
BRANCH   7  10
ATOM     10  N   UNL     1      34.481 -22.792 -17.163  0.00  0.00    -0.215 N 
ATOM     11  H   UNL     1      35.418 -22.544 -16.996  0.00  0.00    +0.174 HD
BRANCH  10  12
ATOM     12  C   UNL     1      33.655 -23.320 -16.110  0.00  0.00    +0.065 C 
ATOM     13  C   UNL     1      32.276 -23.374 -16.280  0.00  0.00    +0.016 C 
ATOM     14  C   UNL     1      34.245 -23.773 -14.937  0.00  0.00    +0.016 C 
ATOM     15  C   UNL     1      31.475 -23.887 -15.259  0.00  0.00    +0.001 C 
ATOM     16  C   UNL     1      33.444 -24.286 -13.916  0.00  0.00    +0.001 C 
ATOM     17  C   UNL     1      32.060 -24.343 -14.077  0.00  0.00    +0.000 C 
ENDBRANCH  10  12
ENDBRANCH   7  10
ENDBRANCH   1   7
BRANCH   3  18
ATOM     18  C   UNL     1      34.639 -18.665 -21.993  0.00  0.00    +0.005 C 
ATOM     19  C   UNL     1      35.362 -17.731 -22.651  0.00  0.00    +0.060 C 
BRANCH  19  22
ATOM     20  O   UNL     1      33.982 -15.890 -23.292  0.00  0.00    -0.268 OA
ATOM     21  N   UNL     1      35.031 -17.150 -24.922  0.00  0.00    -0.193 N 
ATOM     22  C   UNL     1      34.709 -16.818 -23.630  0.00  0.00    +0.268 C 
ATOM     23  H   UNL     1      35.620 -17.907 -25.137  0.00  0.00    +0.183 HD
BRANCH  21  24
ATOM     24  O   UNL     1      34.463 -16.339 -25.915  0.00  0.00    -0.295 OA
ATOM     25  H   UNL     1      34.252 -15.469 -25.540  0.00  0.00    +0.241 HD
ENDBRANCH  21  24
ENDBRANCH  19  22
ENDBRANCH   3  18
TORSDOF 6
ENDMDL
MODEL 7
REMARK VINA RESULT:      -9.5      1.884      2.451
REMARK  Name = 6918638
REMARK  6 active torsions:
REMARK  status: ('A' for Active; 'I' for Inactive)
REMARK    1  A    between atoms: C_1  and  S_7
REMARK    2  A    between atoms: C_3  and  C_18
REMARK    3  A    between atoms: S_7  and  N_10
REMARK    4  A    between atoms: N_10  and  C_12
REMARK    5  A    between atoms: C_19  and  C_22
REMARK    6  A    between atoms: N_21  and  O_24
REMARK                            x       y       z     vdW  Elec       q    Type
REMARK                         _______ _______ _______ _____ _____    ______ ____
ROOT
ATOM      1  C   UNL     1      34.281 -16.732 -22.130  0.00  0.00    +0.125 C 
ATOM      2  C   UNL     1      34.143 -17.761 -21.199  0.00  0.00    +0.020 C 
ATOM      3  C   UNL     1      34.443 -19.075 -21.563  0.00  0.00    +0.001 C 
ATOM      4  C   UNL     1      34.720 -17.016 -23.424  0.00  0.00    +0.020 C 
ATOM      5  C   UNL     1      34.881 -19.358 -22.856  0.00  0.00    +0.000 C 
ATOM      6  C   UNL     1      35.020 -18.328 -23.787  0.00  0.00    +0.001 C 
ENDROOT
BRANCH   1   7
ATOM      7  S   UNL     1      33.906 -15.088 -21.677  0.00  0.00    +0.074 S 
ATOM      8  O   UNL     1      35.084 -14.273 -21.948  0.00  0.00    -0.150 OA
ATOM      9  O   UNL     1      33.349 -15.091 -20.329  0.00  0.00    -0.150 OA
BRANCH   7  10
ATOM     10  N   UNL     1      32.681 -14.651 -22.807  0.00  0.00    -0.215 N 
ATOM     11  H   UNL     1      31.760 -14.984 -22.708  0.00  0.00    +0.174 HD
BRANCH  10  12
ATOM     12  C   UNL     1      33.044 -13.786 -23.897  0.00  0.00    +0.065 C 
ATOM     13  C   UNL     1      32.998 -14.267 -25.201  0.00  0.00    +0.016 C 
ATOM     14  C   UNL     1      33.434 -12.478 -23.636  0.00  0.00    +0.016 C 
ATOM     15  C   UNL     1      33.350 -13.429 -26.258  0.00  0.00    +0.001 C 
ATOM     16  C   UNL     1      33.785 -11.639 -24.694  0.00  0.00    +0.001 C 
ATOM     17  C   UNL     1      33.743 -12.114 -26.005  0.00  0.00    +0.000 C 
ENDBRANCH  10  12
ENDBRANCH   7  10
ENDBRANCH   1   7
BRANCH   3  18
ATOM     18  C   UNL     1      34.299 -20.150 -20.593  0.00  0.00    +0.005 C 
ATOM     19  C   UNL     1      35.305 -20.927 -20.134  0.00  0.00    +0.060 C 
BRANCH  19  22
ATOM     20  O   UNL     1      35.775 -22.199 -18.169  0.00  0.00    -0.268 OA
ATOM     21  N   UNL     1      33.895 -22.691 -19.422  0.00  0.00    -0.193 N 
ATOM     22  C   UNL     1      35.041 -21.995 -19.131  0.00  0.00    +0.268 C 
ATOM     23  H   UNL     1      33.343 -22.484 -20.209  0.00  0.00    +0.183 HD
BRANCH  21  24
ATOM     24  O   UNL     1      33.564 -23.715 -18.525  0.00  0.00    -0.295 OA
ATOM     25  H   UNL     1      33.983 -23.541 -17.667  0.00  0.00    +0.241 HD
ENDBRANCH  21  24
ENDBRANCH  19  22
ENDBRANCH   3  18
TORSDOF 6
ENDMDL
MODEL 8
REMARK VINA RESULT:      -9.5      1.741      2.348
REMARK  Name = 6918638
REMARK  6 active torsions:
REMARK  status: ('A' for Active; 'I' for Inactive)
REMARK    1  A    between atoms: C_1  and  S_7
REMARK    2  A    between atoms: C_3  and  C_18
REMARK    3  A    between atoms: S_7  and  N_10
REMARK    4  A    between atoms: N_10  and  C_12
REMARK    5  A    between atoms: C_19  and  C_22
REMARK    6  A    between atoms: N_21  and  O_24
REMARK                            x       y       z     vdW  Elec       q    Type
REMARK                         _______ _______ _______ _____ _____    ______ ____
ROOT
ATOM      1  C   UNL     1      34.058 -16.350 -22.858  0.00  0.00    +0.125 C 
ATOM      2  C   UNL     1      34.115 -17.441 -21.991  0.00  0.00    +0.020 C 
ATOM      3  C   UNL     1      34.572 -18.676 -22.453  0.00  0.00    +0.001 C 
ATOM      4  C   UNL     1      34.458 -16.494 -24.187  0.00  0.00    +0.020 C 
ATOM      5  C   UNL     1      34.971 -18.819 -23.782  0.00  0.00    +0.000 C 
ATOM      6  C   UNL     1      34.914 -17.728 -24.649  0.00  0.00    +0.001 C 
ENDROOT
BRANCH   1   7
ATOM      7  S   UNL     1      33.486 -14.804 -22.281  0.00  0.00    +0.074 S 
ATOM      8  O   UNL     1      34.563 -14.190 -21.515  0.00  0.00    -0.150 OA
ATOM      9  O   UNL     1      32.189 -14.995 -21.643  0.00  0.00    -0.150 OA
BRANCH   7  10
ATOM     10  N   UNL     1      33.285 -13.904 -23.737  0.00  0.00    -0.215 N 
ATOM     11  H   UNL     1      33.204 -14.360 -24.606  0.00  0.00    +0.174 HD
BRANCH  10  12
ATOM     12  C   UNL     1      33.241 -12.470 -23.645  0.00  0.00    +0.065 C 
ATOM     13  C   UNL     1      32.323 -11.863 -22.794  0.00  0.00    +0.016 C 
ATOM     14  C   UNL     1      34.117 -11.705 -24.405  0.00  0.00    +0.016 C 
ATOM     15  C   UNL     1      32.281 -10.472 -22.704  0.00  0.00    +0.001 C 
ATOM     16  C   UNL     1      34.075 -10.314 -24.316  0.00  0.00    +0.001 C 
ATOM     17  C   UNL     1      33.157  -9.697 -23.465  0.00  0.00    +0.000 C 
ENDBRANCH  10  12
ENDBRANCH   7  10
ENDBRANCH   1   7
BRANCH   3  18
ATOM     18  C   UNL     1      34.632 -19.815 -21.549  0.00  0.00    +0.005 C 
ATOM     19  C   UNL     1      33.702 -20.120 -20.616  0.00  0.00    +0.060 C 
BRANCH  19  22
ATOM     20  O   UNL     1      32.961 -22.127 -19.558  0.00  0.00    -0.268 OA
ATOM     21  N   UNL     1      35.127 -21.395 -19.220  0.00  0.00    -0.193 N 
ATOM     22  C   UNL     1      33.864 -21.320 -19.750  0.00  0.00    +0.268 C 
ATOM     23  H   UNL     1      35.815 -20.717 -19.407  0.00  0.00    +0.183 HD
BRANCH  21  24
ATOM     24  O   UNL     1      35.372 -22.500 -18.392  0.00  0.00    -0.295 OA
ATOM     25  H   UNL     1      36.329 -22.636 -18.311  0.00  0.00    +0.241 HD
ENDBRANCH  21  24
ENDBRANCH  19  22
ENDBRANCH   3  18
TORSDOF 6
ENDMDL
MODEL 9
REMARK VINA RESULT:      -9.3      5.395      8.539
REMARK  Name = 6918638
REMARK  6 active torsions:
REMARK  status: ('A' for Active; 'I' for Inactive)
REMARK    1  A    between atoms: C_1  and  S_7
REMARK    2  A    between atoms: C_3  and  C_18
REMARK    3  A    between atoms: S_7  and  N_10
REMARK    4  A    between atoms: N_10  and  C_12
REMARK    5  A    between atoms: C_19  and  C_22
REMARK    6  A    between atoms: N_21  and  O_24
REMARK                            x       y       z     vdW  Elec       q    Type
REMARK                         _______ _______ _______ _____ _____    ______ ____
ROOT
ATOM      1  C   UNL     1      33.833 -23.140 -17.087  0.00  0.00    +0.125 C 
ATOM      2  C   UNL     1      35.059 -23.362 -16.460  0.00  0.00    +0.020 C 
ATOM      3  C   UNL     1      35.097 -23.724 -15.113  0.00  0.00    +0.001 C 
ATOM      4  C   UNL     1      32.646 -23.279 -16.367  0.00  0.00    +0.020 C 
ATOM      5  C   UNL     1      33.911 -23.862 -14.393  0.00  0.00    +0.000 C 
ATOM      6  C   UNL     1      32.685 -23.640 -15.020  0.00  0.00    +0.001 C 
ENDROOT
BRANCH   1   7
ATOM      7  S   UNL     1      33.783 -22.688 -18.773  0.00  0.00    +0.074 S 
ATOM      8  O   UNL     1      32.648 -21.792 -18.958  0.00  0.00    -0.150 OA
ATOM      9  O   UNL     1      33.864 -23.898 -19.582  0.00  0.00    -0.150 OA
BRANCH   7  10
ATOM     10  N   UNL     1      35.227 -21.768 -18.964  0.00  0.00    -0.215 N 
ATOM     11  H   UNL     1      36.029 -21.969 -18.431  0.00  0.00    +0.174 HD
BRANCH  10  12
ATOM     12  C   UNL     1      35.225 -20.698 -19.926  0.00  0.00    +0.065 C 
ATOM     13  C   UNL     1      36.418 -20.060 -20.247  0.00  0.00    +0.016 C 
ATOM     14  C   UNL     1      34.031 -20.315 -20.525  0.00  0.00    +0.016 C 
ATOM     15  C   UNL     1      36.416 -19.023 -21.180  0.00  0.00    +0.001 C 
ATOM     16  C   UNL     1      34.029 -19.278 -21.457  0.00  0.00    +0.001 C 
ATOM     17  C   UNL     1      35.221 -18.632 -21.785  0.00  0.00    +0.000 C 
ENDBRANCH  10  12
ENDBRANCH   7  10
ENDBRANCH   1   7
BRANCH   3  18
ATOM     18  C   UNL     1      36.376 -23.956 -14.458  0.00  0.00    +0.005 C 
ATOM     19  C   UNL     1      37.200 -24.999 -14.703  0.00  0.00    +0.060 C 
BRANCH  19  22
ATOM     20  O   UNL     1      38.845 -24.349 -13.098  0.00  0.00    -0.268 OA
ATOM     21  N   UNL     1      39.210 -26.216 -14.412  0.00  0.00    -0.193 N 
ATOM     22  C   UNL     1      38.494 -25.130 -13.976  0.00  0.00    +0.268 C 
ATOM     23  H   UNL     1      38.880 -26.811 -15.123  0.00  0.00    +0.183 HD
BRANCH  21  24
ATOM     24  O   UNL     1      40.443 -26.421 -13.779  0.00  0.00    -0.295 OA
ATOM     25  H   UNL     1      40.334 -26.323 -12.820  0.00  0.00    +0.241 HD
ENDBRANCH  21  24
ENDBRANCH  19  22
ENDBRANCH   3  18
TORSDOF 6
ENDMDL
