MODEL 1
REMARK VINA RESULT:      -7.8      0.000      0.000
REMARK  Name = 445732
REMARK  8 active torsions:
REMARK  status: ('A' for Active; 'I' for Inactive)
REMARK    1  A    between atoms: N_2  and  C_15
REMARK    2  A    between atoms: C_15  and  C_16
REMARK    3  A    between atoms: C_16  and  N_17
REMARK    4  A    between atoms: N_17  and  CA_20
REMARK    5  A    between atoms: CA_20  and  CB_21
REMARK    6  A    between atoms: CA_20  and  C_24
REMARK    7  A    between atoms: CB_21  and  O_22
REMARK    8  A    between atoms: C_24  and  O_25
REMARK                            x       y       z     vdW  Elec       q    Type
REMARK                         _______ _______ _______ _____ _____    ______ ____
ROOT
ATOM      1  O   UNL     1      36.852 -21.207 -19.415  0.00  0.00    -0.212 OA
ATOM      2  N   UNL     1      34.686 -19.702 -20.879  0.00  0.00    -0.235 NA
ATOM      3  N   UNL     1      32.513 -20.157 -20.615  0.00  0.00    -0.240 NA
ATOM      4  N   UNL     1      32.856 -21.948 -19.015  0.00  0.00    -0.263 N 
ATOM      5  N   UNL     1      35.158 -22.430 -18.443  0.00  0.00    -0.304 NA
ATOM      6  N   UNL     1      33.363 -23.616 -17.513  0.00  0.00    -0.320 N 
ATOM      7  C   UNL     1      34.619 -20.727 -19.980  0.00  0.00    +0.233 C 
ATOM      8  C   UNL     1      33.277 -20.978 -19.843  0.00  0.00    +0.140 C 
ATOM      9  C   UNL     1      33.395 -19.393 -21.232  0.00  0.00    +0.203 C 
ATOM     10  C   UNL     1      35.656 -21.439 -19.285  0.00  0.00    +0.204 C 
ATOM     11  C   UNL     1      33.861 -22.639 -18.341  0.00  0.00    +0.248 C 
ATOM     12  H   UNL     1      31.902 -22.157 -18.892  0.00  0.00    +0.157 HD
ATOM     13  H   UNL     1      32.391 -23.758 -17.448  0.00  0.00    +0.146 HD
ATOM     14  H   UNL     1      33.977 -24.173 -16.983  0.00  0.00    +0.146 HD
ENDROOT
BRANCH   2  15
ATOM     15  C   UNL     1      35.873 -19.050 -21.379  0.00  0.00    +0.052 C 
BRANCH  15  16
ATOM     16  C   ACE A   0      35.723 -18.634 -22.840  0.00  0.00    -0.064 C 
BRANCH  16  17
ATOM     17  N   UNL     1      35.753 -17.181 -22.954  0.00  0.00    +0.389 N 
ATOM     18  H1  UNL     1      36.595 -16.904 -23.461  0.00  0.00    -0.084 HD
ATOM     19  H2  UNL     1      35.755 -16.781 -22.016  0.00  0.00    -0.084 HD
BRANCH  17  20
ATOM     20  CA  UNL     1      34.583 -16.690 -23.668  0.00  0.00    -0.002 C 
BRANCH  20  21
ATOM     21  CB  UNL     1      34.645 -17.170 -25.117  0.00  0.00    +0.118 C 
BRANCH  21  22
ATOM     22  O   UNL     1      34.174 -16.146 -25.983  0.00  0.00    -0.384 OA
ATOM     23  H   UNL     1      33.961 -16.526 -26.849  0.00  0.00    +0.210 HD
ENDBRANCH  21  22
ENDBRANCH  20  21
BRANCH  20  24
ATOM     24  C   UNL     1      34.529 -15.162 -23.577  0.00  0.00    +0.118 C 
BRANCH  24  25
ATOM     25  O   UNL     1      33.174 -14.731 -23.574  0.00  0.00    -0.384 OA
ATOM     26  H   UNL     1      32.588 -15.504 -23.583  0.00  0.00    +0.210 HD
ENDBRANCH  24  25
ENDBRANCH  20  24
ENDBRANCH  17  20
ENDBRANCH  16  17
ENDBRANCH  15  16
ENDBRANCH   2  15
TORSDOF 8
ENDMDL
MODEL 2
REMARK VINA RESULT:      -7.8      7.327     10.014
REMARK  Name = 445732
REMARK  8 active torsions:
REMARK  status: ('A' for Active; 'I' for Inactive)
REMARK    1  A    between atoms: N_2  and  C_15
REMARK    2  A    between atoms: C_15  and  C_16
REMARK    3  A    between atoms: C_16  and  N_17
REMARK    4  A    between atoms: N_17  and  CA_20
REMARK    5  A    between atoms: CA_20  and  CB_21
REMARK    6  A    between atoms: CA_20  and  C_24
REMARK    7  A    between atoms: CB_21  and  O_22
REMARK    8  A    between atoms: C_24  and  O_25
REMARK                            x       y       z     vdW  Elec       q    Type
REMARK                         _______ _______ _______ _____ _____    ______ ____
ROOT
ATOM      1  O   UNL     1      32.321 -23.383 -13.243  0.00  0.00    -0.212 OA
ATOM      2  N   UNL     1      33.669 -23.187 -15.934  0.00  0.00    -0.235 NA
ATOM      3  N   UNL     1      32.528 -22.903 -17.836  0.00  0.00    -0.240 NA
ATOM      4  N   UNL     1      30.344 -22.868 -16.779  0.00  0.00    -0.263 N 
ATOM      5  N   UNL     1      30.329 -23.125 -14.372  0.00  0.00    -0.304 NA
ATOM      6  N   UNL     1      28.359 -22.858 -15.614  0.00  0.00    -0.320 N 
ATOM      7  C   UNL     1      32.351 -23.134 -15.583  0.00  0.00    +0.233 C 
ATOM      8  C   UNL     1      31.684 -22.961 -16.769  0.00  0.00    +0.140 C 
ATOM      9  C   UNL     1      33.725 -23.043 -17.300  0.00  0.00    +0.203 C 
ATOM     10  C   UNL     1      31.716 -23.228 -14.297  0.00  0.00    +0.204 C 
ATOM     11  C   UNL     1      29.728 -22.959 -15.533  0.00  0.00    +0.248 C 
ATOM     12  H   UNL     1      29.832 -22.744 -17.611  0.00  0.00    +0.157 HD
ATOM     13  H   UNL     1      27.927 -22.733 -16.490  0.00  0.00    +0.146 HD
ATOM     14  H   UNL     1      27.812 -22.908 -14.798  0.00  0.00    +0.146 HD
ENDROOT
BRANCH   2  15
ATOM     15  C   UNL     1      34.804 -23.359 -15.060  0.00  0.00    +0.052 C 
BRANCH  15  16
ATOM     16  C   ACE A   0      35.041 -24.826 -14.715  0.00  0.00    -0.064 C 
BRANCH  16  17
ATOM     17  N   UNL     1      34.996 -25.017 -13.271  0.00  0.00    +0.389 N 
ATOM     18  H1  UNL     1      34.964 -26.017 -13.067  0.00  0.00    -0.084 HD
ATOM     19  H2  UNL     1      34.164 -24.552 -12.907  0.00  0.00    -0.084 HD
BRANCH  17  20
ATOM     20  CA  UNL     1      36.170 -24.438 -12.632  0.00  0.00    -0.002 C 
BRANCH  20  21
ATOM     21  CB  UNL     1      37.313 -25.451 -12.680  0.00  0.00    +0.118 C 
BRANCH  21  22
ATOM     22  O   UNL     1      36.900 -26.670 -12.075  0.00  0.00    -0.384 OA
ATOM     23  H   UNL     1      36.721 -26.519 -11.133  0.00  0.00    +0.210 HD
ENDBRANCH  21  22
ENDBRANCH  20  21
BRANCH  20  24
ATOM     24  C   UNL     1      35.827 -24.036 -11.195  0.00  0.00    +0.118 C 
BRANCH  24  25
ATOM     25  O   UNL     1      35.240 -25.140 -10.517  0.00  0.00    -0.384 OA
ATOM     26  H   UNL     1      34.874 -24.842  -9.669  0.00  0.00    +0.210 HD
ENDBRANCH  24  25
ENDBRANCH  20  24
ENDBRANCH  17  20
ENDBRANCH  16  17
ENDBRANCH  15  16
ENDBRANCH   2  15
TORSDOF 8
ENDMDL
MODEL 3
REMARK VINA RESULT:      -7.8      2.676      7.524
REMARK  Name = 445732
REMARK  8 active torsions:
REMARK  status: ('A' for Active; 'I' for Inactive)
REMARK    1  A    between atoms: N_2  and  C_15
REMARK    2  A    between atoms: C_15  and  C_16
REMARK    3  A    between atoms: C_16  and  N_17
REMARK    4  A    between atoms: N_17  and  CA_20
REMARK    5  A    between atoms: CA_20  and  CB_21
REMARK    6  A    between atoms: CA_20  and  C_24
REMARK    7  A    between atoms: CB_21  and  O_22
REMARK    8  A    between atoms: C_24  and  O_25
REMARK                            x       y       z     vdW  Elec       q    Type
REMARK                         _______ _______ _______ _____ _____    ______ ____
ROOT
ATOM      1  O   UNL     1      34.563 -17.733 -25.396  0.00  0.00    -0.212 OA
ATOM      2  N   UNL     1      34.726 -16.249 -22.775  0.00  0.00    -0.235 NA
ATOM      3  N   UNL     1      33.914 -14.183 -22.507  0.00  0.00    -0.240 NA
ATOM      4  N   UNL     1      33.118 -13.962 -24.789  0.00  0.00    -0.263 N 
ATOM      5  N   UNL     1      33.499 -15.867 -26.232  0.00  0.00    -0.304 NA
ATOM      6  N   UNL     1      32.428 -13.923 -26.984  0.00  0.00    -0.320 N 
ATOM      7  C   UNL     1      34.199 -15.888 -23.982  0.00  0.00    +0.233 C 
ATOM      8  C   UNL     1      33.713 -14.621 -23.781  0.00  0.00    +0.140 C 
ATOM      9  C   UNL     1      34.530 -15.191 -21.920  0.00  0.00    +0.203 C 
ATOM     10  C   UNL     1      34.125 -16.601 -25.227  0.00  0.00    +0.204 C 
ATOM     11  C   UNL     1      33.045 -14.653 -25.996  0.00  0.00    +0.248 C 
ATOM     12  H   UNL     1      32.758 -13.052 -24.682  0.00  0.00    +0.157 HD
ATOM     13  H   UNL     1      32.094 -13.017 -26.790  0.00  0.00    +0.146 HD
ATOM     14  H   UNL     1      32.317 -14.306 -27.884  0.00  0.00    +0.146 HD
ENDROOT
BRANCH   2  15
ATOM     15  C   UNL     1      35.370 -17.495 -22.436  0.00  0.00    +0.052 C 
BRANCH  15  16
ATOM     16  C   ACE A   0      34.688 -18.187 -21.259  0.00  0.00    -0.064 C 
BRANCH  16  17
ATOM     17  N   UNL     1      35.545 -19.243 -20.732  0.00  0.00    +0.389 N 
ATOM     18  H1  UNL     1      35.880 -18.970 -19.808  0.00  0.00    -0.084 HD
ATOM     19  H2  UNL     1      36.328 -19.375 -21.371  0.00  0.00    -0.084 HD
BRANCH  17  20
ATOM     20  CA  UNL     1      34.815 -20.499 -20.624  0.00  0.00    -0.002 C 
BRANCH  20  21
ATOM     21  CB  UNL     1      33.321 -20.199 -20.514  0.00  0.00    +0.118 C 
BRANCH  21  22
ATOM     22  O   UNL     1      32.776 -20.884 -19.393  0.00  0.00    -0.384 OA
ATOM     23  H   UNL     1      31.987 -20.415 -19.079  0.00  0.00    +0.210 HD
ENDBRANCH  21  22
ENDBRANCH  20  21
BRANCH  20  24
ATOM     24  C   UNL     1      35.327 -21.287 -19.415  0.00  0.00    +0.118 C 
BRANCH  24  25
ATOM     25  O   UNL     1      34.940 -22.651 -19.534  0.00  0.00    -0.384 OA
ATOM     26  H   UNL     1      35.725 -23.198 -19.695  0.00  0.00    +0.210 HD
ENDBRANCH  24  25
ENDBRANCH  20  24
ENDBRANCH  17  20
ENDBRANCH  16  17
ENDBRANCH  15  16
ENDBRANCH   2  15
TORSDOF 8
ENDMDL
MODEL 4
REMARK VINA RESULT:      -7.7      1.475      2.141
REMARK  Name = 445732
REMARK  8 active torsions:
REMARK  status: ('A' for Active; 'I' for Inactive)
REMARK    1  A    between atoms: N_2  and  C_15
REMARK    2  A    between atoms: C_15  and  C_16
REMARK    3  A    between atoms: C_16  and  N_17
REMARK    4  A    between atoms: N_17  and  CA_20
REMARK    5  A    between atoms: CA_20  and  CB_21
REMARK    6  A    between atoms: CA_20  and  C_24
REMARK    7  A    between atoms: CB_21  and  O_22
REMARK    8  A    between atoms: C_24  and  O_25
REMARK                            x       y       z     vdW  Elec       q    Type
REMARK                         _______ _______ _______ _____ _____    ______ ____
ROOT
ATOM      1  O   UNL     1      32.320 -20.008 -20.859  0.00  0.00    -0.212 OA
ATOM      2  N   UNL     1      35.271 -19.385 -20.827  0.00  0.00    -0.235 NA
ATOM      3  N   UNL     1      36.749 -20.610 -19.680  0.00  0.00    -0.240 NA
ATOM      4  N   UNL     1      35.109 -22.169 -18.804  0.00  0.00    -0.263 N 
ATOM      5  N   UNL     1      32.816 -21.780 -19.472  0.00  0.00    -0.304 NA
ATOM      6  N   UNL     1      33.425 -23.552 -18.064  0.00  0.00    -0.320 N 
ATOM      7  C   UNL     1      34.554 -20.374 -20.217  0.00  0.00    +0.233 C 
ATOM      8  C   UNL     1      35.489 -21.102 -19.526  0.00  0.00    +0.140 C 
ATOM      9  C   UNL     1      36.586 -19.569 -20.474  0.00  0.00    +0.203 C 
ATOM     10  C   UNL     1      33.146 -20.665 -20.238  0.00  0.00    +0.204 C 
ATOM     11  C   UNL     1      33.745 -22.452 -18.823  0.00  0.00    +0.248 C 
ATOM     12  H   UNL     1      35.752 -22.715 -18.295  0.00  0.00    +0.157 HD
ATOM     13  H   UNL     1      34.133 -24.043 -17.586  0.00  0.00    +0.146 HD
ATOM     14  H   UNL     1      32.490 -23.851 -17.999  0.00  0.00    +0.146 HD
ENDROOT
BRANCH   2  15
ATOM     15  C   UNL     1      34.769 -18.337 -21.682  0.00  0.00    +0.052 C 
BRANCH  15  16
ATOM     16  C   ACE A   0      35.744 -18.002 -22.807  0.00  0.00    -0.064 C 
BRANCH  16  17
ATOM     17  N   UNL     1      35.592 -16.609 -23.206  0.00  0.00    +0.389 N 
ATOM     18  H1  UNL     1      36.358 -16.356 -23.833  0.00  0.00    -0.084 HD
ATOM     19  H2  UNL     1      35.609 -16.027 -22.369  0.00  0.00    -0.084 HD
BRANCH  17  20
ATOM     20  CA  UNL     1      34.325 -16.399 -23.893  0.00  0.00    -0.002 C 
BRANCH  20  21
ATOM     21  CB  UNL     1      34.467 -16.847 -25.347  0.00  0.00    +0.118 C 
BRANCH  21  22
ATOM     22  O   UNL     1      33.904 -15.866 -26.209  0.00  0.00    -0.384 OA
ATOM     23  H   UNL     1      33.157 -15.435 -25.764  0.00  0.00    +0.210 HD
ENDBRANCH  21  22
ENDBRANCH  20  21
BRANCH  20  24
ATOM     24  C   UNL     1      33.923 -14.925 -23.790  0.00  0.00    +0.118 C 
BRANCH  24  25
ATOM     25  O   UNL     1      34.800 -14.251 -22.897  0.00  0.00    -0.384 OA
ATOM     26  H   UNL     1      35.652 -14.715 -22.867  0.00  0.00    +0.210 HD
ENDBRANCH  24  25
ENDBRANCH  20  24
ENDBRANCH  17  20
ENDBRANCH  16  17
ENDBRANCH  15  16
ENDBRANCH   2  15
TORSDOF 8
ENDMDL
MODEL 5
REMARK VINA RESULT:      -7.7      7.461      9.578
REMARK  Name = 445732
REMARK  8 active torsions:
REMARK  status: ('A' for Active; 'I' for Inactive)
REMARK    1  A    between atoms: N_2  and  C_15
REMARK    2  A    between atoms: C_15  and  C_16
REMARK    3  A    between atoms: C_16  and  N_17
REMARK    4  A    between atoms: N_17  and  CA_20
REMARK    5  A    between atoms: CA_20  and  CB_21
REMARK    6  A    between atoms: CA_20  and  C_24
REMARK    7  A    between atoms: CB_21  and  O_22
REMARK    8  A    between atoms: C_24  and  O_25
REMARK                            x       y       z     vdW  Elec       q    Type
REMARK                         _______ _______ _______ _____ _____    ______ ____
ROOT
ATOM      1  O   UNL     1      33.414 -23.049 -17.262  0.00  0.00    -0.212 OA
ATOM      2  N   UNL     1      34.928 -23.640 -14.720  0.00  0.00    -0.235 NA
ATOM      3  N   UNL     1      33.915 -24.310 -12.842  0.00  0.00    -0.240 NA
ATOM      4  N   UNL     1      31.676 -24.276 -13.776  0.00  0.00    -0.263 N 
ATOM      5  N   UNL     1      31.506 -23.605 -16.095  0.00  0.00    -0.304 NA
ATOM      6  N   UNL     1      29.627 -24.188 -14.821  0.00  0.00    -0.320 N 
ATOM      7  C   UNL     1      33.594 -23.700 -15.008  0.00  0.00    +0.233 C 
ATOM      8  C   UNL     1      33.007 -24.112 -13.838  0.00  0.00    +0.140 C 
ATOM      9  C   UNL     1      35.071 -24.016 -13.406  0.00  0.00    +0.203 C 
ATOM     10  C   UNL     1      32.880 -23.416 -16.223  0.00  0.00    +0.204 C 
ATOM     11  C   UNL     1      30.983 -24.002 -14.953  0.00  0.00    +0.248 C 
ATOM     12  H   UNL     1      31.220 -24.569 -12.954  0.00  0.00    +0.157 HD
ATOM     13  H   UNL     1      29.253 -24.485 -13.960  0.00  0.00    +0.146 HD
ATOM     14  H   UNL     1      29.030 -24.025 -15.586  0.00  0.00    +0.146 HD
ENDROOT
BRANCH   2  15
ATOM     15  C   UNL     1      36.000 -23.258 -15.607  0.00  0.00    +0.052 C 
BRANCH  15  16
ATOM     16  C   ACE A   0      37.353 -23.265 -14.902  0.00  0.00    -0.064 C 
BRANCH  16  17
ATOM     17  N   UNL     1      38.220 -24.280 -15.486  0.00  0.00    +0.389 N 
ATOM     18  H1  UNL     1      39.042 -23.827 -15.887  0.00  0.00    -0.084 HD
ATOM     19  H2  UNL     1      37.698 -24.777 -16.208  0.00  0.00    -0.084 HD
BRANCH  17  20
ATOM     20  CA  UNL     1      38.649 -25.240 -14.478  0.00  0.00    -0.002 C 
BRANCH  20  21
ATOM     21  CB  UNL     1      40.116 -25.593 -14.718  0.00  0.00    +0.118 C 
BRANCH  21  22
ATOM     22  O   UNL     1      40.316 -25.901 -16.092  0.00  0.00    -0.384 OA
ATOM     23  H   UNL     1      41.261 -25.836 -16.304  0.00  0.00    +0.210 HD
ENDBRANCH  21  22
ENDBRANCH  20  21
BRANCH  20  24
ATOM     24  C   UNL     1      37.751 -26.480 -14.533  0.00  0.00    +0.118 C 
BRANCH  24  25
ATOM     25  O   UNL     1      37.369 -26.733 -15.879  0.00  0.00    -0.384 OA
ATOM     26  H   UNL     1      37.987 -26.290 -16.481  0.00  0.00    +0.210 HD
ENDBRANCH  24  25
ENDBRANCH  20  24
ENDBRANCH  17  20
ENDBRANCH  16  17
ENDBRANCH  15  16
ENDBRANCH   2  15
TORSDOF 8
ENDMDL
MODEL 6
REMARK VINA RESULT:      -7.7      9.110     10.325
REMARK  Name = 445732
REMARK  8 active torsions:
REMARK  status: ('A' for Active; 'I' for Inactive)
REMARK    1  A    between atoms: N_2  and  C_15
REMARK    2  A    between atoms: C_15  and  C_16
REMARK    3  A    between atoms: C_16  and  N_17
REMARK    4  A    between atoms: N_17  and  CA_20
REMARK    5  A    between atoms: CA_20  and  CB_21
REMARK    6  A    between atoms: CA_20  and  C_24
REMARK    7  A    between atoms: CB_21  and  O_22
REMARK    8  A    between atoms: C_24  and  O_25
REMARK                            x       y       z     vdW  Elec       q    Type
REMARK                         _______ _______ _______ _____ _____    ______ ____
ROOT
ATOM      1  O   UNL     1      36.292 -26.849 -15.714  0.00  0.00    -0.212 OA
ATOM      2  N   UNL     1      35.851 -24.317 -14.133  0.00  0.00    -0.235 NA
ATOM      3  N   UNL     1      37.474 -23.340 -12.945  0.00  0.00    -0.240 NA
ATOM      4  N   UNL     1      39.174 -24.976 -13.508  0.00  0.00    -0.263 N 
ATOM      5  N   UNL     1      38.470 -26.778 -14.962  0.00  0.00    -0.304 NA
ATOM      6  N   UNL     1      40.660 -26.616 -14.143  0.00  0.00    -0.320 N 
ATOM      7  C   UNL     1      36.964 -25.091 -14.300  0.00  0.00    +0.233 C 
ATOM      8  C   UNL     1      37.934 -24.464 -13.561  0.00  0.00    +0.140 C 
ATOM      9  C   UNL     1      36.208 -23.276 -13.311  0.00  0.00    +0.203 C 
ATOM     10  C   UNL     1      37.166 -26.297 -15.056  0.00  0.00    +0.204 C 
ATOM     11  C   UNL     1      39.372 -26.145 -14.241  0.00  0.00    +0.248 C 
ATOM     12  H   UNL     1      39.896 -24.554 -12.988  0.00  0.00    +0.157 HD
ATOM     13  H   UNL     1      41.321 -26.129 -13.600  0.00  0.00    +0.146 HD
ATOM     14  H   UNL     1      40.921 -27.437 -14.618  0.00  0.00    +0.146 HD
ENDROOT
BRANCH   2  15
ATOM     15  C   UNL     1      34.541 -24.530 -14.700  0.00  0.00    +0.052 C 
BRANCH  15  16
ATOM     16  C   ACE A   0      33.430 -24.240 -13.695  0.00  0.00    -0.064 C 
BRANCH  16  17
ATOM     17  N   UNL     1      32.444 -25.313 -13.712  0.00  0.00    +0.389 N 
ATOM     18  H1  UNL     1      32.602 -25.925 -12.911  0.00  0.00    -0.084 HD
ATOM     19  H2  UNL     1      32.544 -25.833 -14.584  0.00  0.00    -0.084 HD
BRANCH  17  20
ATOM     20  CA  UNL     1      31.091 -24.777 -13.643  0.00  0.00    -0.002 C 
BRANCH  20  21
ATOM     21  CB  UNL     1      30.248 -25.409 -14.749  0.00  0.00    +0.118 C 
BRANCH  21  22
ATOM     22  O   UNL     1      28.879 -25.420 -14.362  0.00  0.00    -0.384 OA
ATOM     23  H   UNL     1      28.470 -24.573 -14.597  0.00  0.00    +0.210 HD
ENDBRANCH  21  22
ENDBRANCH  20  21
BRANCH  20  24
ATOM     24  C   UNL     1      31.136 -23.251 -13.764  0.00  0.00    +0.118 C 
BRANCH  24  25
ATOM     25  O   UNL     1      30.353 -22.837 -14.878  0.00  0.00    -0.384 OA
ATOM     26  H   UNL     1      29.417 -22.818 -14.626  0.00  0.00    +0.210 HD
ENDBRANCH  24  25
ENDBRANCH  20  24
ENDBRANCH  17  20
ENDBRANCH  16  17
ENDBRANCH  15  16
ENDBRANCH   2  15
TORSDOF 8
ENDMDL
MODEL 7
REMARK VINA RESULT:      -7.6      6.567      9.711
REMARK  Name = 445732
REMARK  8 active torsions:
REMARK  status: ('A' for Active; 'I' for Inactive)
REMARK    1  A    between atoms: N_2  and  C_15
REMARK    2  A    between atoms: C_15  and  C_16
REMARK    3  A    between atoms: C_16  and  N_17
REMARK    4  A    between atoms: N_17  and  CA_20
REMARK    5  A    between atoms: CA_20  and  CB_21
REMARK    6  A    between atoms: CA_20  and  C_24
REMARK    7  A    between atoms: CB_21  and  O_22
REMARK    8  A    between atoms: C_24  and  O_25
REMARK                            x       y       z     vdW  Elec       q    Type
REMARK                         _______ _______ _______ _____ _____    ______ ____
ROOT
ATOM      1  O   UNL     1      37.325 -22.588 -16.193  0.00  0.00    -0.212 OA
ATOM      2  N   UNL     1      35.801 -23.529 -13.766  0.00  0.00    -0.235 NA
ATOM      3  N   UNL     1      33.613 -23.987 -13.819  0.00  0.00    -0.240 NA
ATOM      4  N   UNL     1      33.333 -23.452 -16.169  0.00  0.00    -0.263 N 
ATOM      5  N   UNL     1      35.327 -22.729 -17.334  0.00  0.00    -0.304 NA
ATOM      6  N   UNL     1      33.248 -22.904 -18.403  0.00  0.00    -0.320 N 
ATOM      7  C   UNL     1      35.394 -23.292 -15.047  0.00  0.00    +0.233 C 
ATOM      8  C   UNL     1      34.053 -23.582 -15.042  0.00  0.00    +0.140 C 
ATOM      9  C   UNL     1      34.695 -23.946 -13.065  0.00  0.00    +0.203 C 
ATOM     10  C   UNL     1      36.126 -22.844 -16.200  0.00  0.00    +0.204 C 
ATOM     11  C   UNL     1      34.043 -23.017 -17.286  0.00  0.00    +0.248 C 
ATOM     12  H   UNL     1      32.369 -23.650 -16.203  0.00  0.00    +0.157 HD
ATOM     13  H   UNL     1      32.290 -23.125 -18.349  0.00  0.00    +0.146 HD
ATOM     14  H   UNL     1      33.637 -22.605 -19.255  0.00  0.00    +0.146 HD
ENDROOT
BRANCH   2  15
ATOM     15  C   UNL     1      37.131 -23.380 -13.226  0.00  0.00    +0.052 C 
BRANCH  15  16
ATOM     16  C   ACE A   0      37.547 -24.588 -12.391  0.00  0.00    -0.064 C 
BRANCH  16  17
ATOM     17  N   UNL     1      38.850 -25.075 -12.827  0.00  0.00    +0.389 N 
ATOM     18  H1  UNL     1      39.075 -25.928 -12.314  0.00  0.00    -0.084 HD
ATOM     19  H2  UNL     1      39.546 -24.353 -12.641  0.00  0.00    -0.084 HD
BRANCH  17  20
ATOM     20  CA  UNL     1      38.847 -25.363 -14.254  0.00  0.00    -0.002 C 
BRANCH  20  21
ATOM     21  CB  UNL     1      37.953 -26.574 -14.516  0.00  0.00    +0.118 C 
BRANCH  21  22
ATOM     22  O   UNL     1      37.375 -26.472 -15.811  0.00  0.00    -0.384 OA
ATOM     23  H   UNL     1      36.642 -27.102 -15.889  0.00  0.00    +0.210 HD
ENDBRANCH  21  22
ENDBRANCH  20  21
BRANCH  20  24
ATOM     24  C   UNL     1      40.282 -25.603 -14.732  0.00  0.00    +0.118 C 
BRANCH  24  25
ATOM     25  O   UNL     1      40.284 -25.859 -16.132  0.00  0.00    -0.384 OA
ATOM     26  H   UNL     1      39.456 -26.298 -16.381  0.00  0.00    +0.210 HD
ENDBRANCH  24  25
ENDBRANCH  20  24
ENDBRANCH  17  20
ENDBRANCH  16  17
ENDBRANCH  15  16
ENDBRANCH   2  15
TORSDOF 8
ENDMDL
MODEL 8
REMARK VINA RESULT:      -7.6      8.284     10.068
REMARK  Name = 445732
REMARK  8 active torsions:
REMARK  status: ('A' for Active; 'I' for Inactive)
REMARK    1  A    between atoms: N_2  and  C_15
REMARK    2  A    between atoms: C_15  and  C_16
REMARK    3  A    between atoms: C_16  and  N_17
REMARK    4  A    between atoms: N_17  and  CA_20
REMARK    5  A    between atoms: CA_20  and  CB_21
REMARK    6  A    between atoms: CA_20  and  C_24
REMARK    7  A    between atoms: CB_21  and  O_22
REMARK    8  A    between atoms: C_24  and  O_25
REMARK                            x       y       z     vdW  Elec       q    Type
REMARK                         _______ _______ _______ _____ _____    ______ ____
ROOT
ATOM      1  O   UNL     1      36.683 -26.000 -11.842  0.00  0.00    -0.212 OA
ATOM      2  N   UNL     1      35.704 -24.086 -13.959  0.00  0.00    -0.235 NA
ATOM      3  N   UNL     1      36.932 -23.533 -15.744  0.00  0.00    -0.240 NA
ATOM      4  N   UNL     1      38.833 -24.915 -15.140  0.00  0.00    -0.263 N 
ATOM      5  N   UNL     1      38.617 -26.172 -13.083  0.00  0.00    -0.304 NA
ATOM      6  N   UNL     1      40.542 -26.276 -14.417  0.00  0.00    -0.320 N 
ATOM      7  C   UNL     1      36.879 -24.771 -13.839  0.00  0.00    +0.233 C 
ATOM      8  C   UNL     1      37.603 -24.409 -14.946  0.00  0.00    +0.140 C 
ATOM      9  C   UNL     1      35.783 -23.356 -15.120  0.00  0.00    +0.203 C 
ATOM     10  C   UNL     1      37.339 -25.682 -12.827  0.00  0.00    +0.204 C 
ATOM     11  C   UNL     1      39.279 -25.798 -14.159  0.00  0.00    +0.248 C 
ATOM     12  H   UNL     1      39.382 -24.677 -15.922  0.00  0.00    +0.157 HD
ATOM     13  H   UNL     1      41.021 -25.986 -15.227  0.00  0.00    +0.146 HD
ATOM     14  H   UNL     1      40.965 -26.909 -13.794  0.00  0.00    +0.146 HD
ENDROOT
BRANCH   2  15
ATOM     15  C   UNL     1      34.580 -24.108 -13.053  0.00  0.00    +0.052 C 
BRANCH  15  16
ATOM     16  C   ACE A   0      33.261 -24.332 -13.787  0.00  0.00    -0.064 C 
BRANCH  16  17
ATOM     17  N   UNL     1      32.392 -23.173 -13.624  0.00  0.00    +0.389 N 
ATOM     18  H1  UNL     1      32.590 -22.500 -14.365  0.00  0.00    -0.084 HD
ATOM     19  H2  UNL     1      32.571 -22.759 -12.709  0.00  0.00    -0.084 HD
BRANCH  17  20
ATOM     20  CA  UNL     1      30.990 -23.561 -13.693  0.00  0.00    -0.002 C 
BRANCH  20  21
ATOM     21  CB  UNL     1      30.900 -25.076 -13.869  0.00  0.00    +0.118 C 
BRANCH  21  22
ATOM     22  O   UNL     1      29.581 -25.436 -14.261  0.00  0.00    -0.384 OA
ATOM     23  H   UNL     1      29.104 -24.645 -14.558  0.00  0.00    +0.210 HD
ENDBRANCH  21  22
ENDBRANCH  20  21
BRANCH  20  24
ATOM     24  C   UNL     1      30.307 -22.814 -14.843  0.00  0.00    +0.118 C 
BRANCH  24  25
ATOM     25  O   UNL     1      30.700 -23.385 -16.084  0.00  0.00    -0.384 OA
ATOM     26  H   UNL     1      29.920 -23.500 -16.649  0.00  0.00    +0.210 HD
ENDBRANCH  24  25
ENDBRANCH  20  24
ENDBRANCH  17  20
ENDBRANCH  16  17
ENDBRANCH  15  16
ENDBRANCH   2  15
TORSDOF 8
ENDMDL
MODEL 9
REMARK VINA RESULT:      -7.5      4.764      9.624
REMARK  Name = 445732
REMARK  8 active torsions:
REMARK  status: ('A' for Active; 'I' for Inactive)
REMARK    1  A    between atoms: N_2  and  C_15
REMARK    2  A    between atoms: C_15  and  C_16
REMARK    3  A    between atoms: C_16  and  N_17
REMARK    4  A    between atoms: N_17  and  CA_20
REMARK    5  A    between atoms: CA_20  and  CB_21
REMARK    6  A    between atoms: CA_20  and  C_24
REMARK    7  A    between atoms: CB_21  and  O_22
REMARK    8  A    between atoms: C_24  and  O_25
REMARK                            x       y       z     vdW  Elec       q    Type
REMARK                         _______ _______ _______ _____ _____    ______ ____
ROOT
ATOM      1  O   UNL     1      33.124 -23.171 -18.140  0.00  0.00    -0.212 OA
ATOM      2  N   UNL     1      35.573 -23.036 -16.383  0.00  0.00    -0.235 NA
ATOM      3  N   UNL     1      37.358 -21.791 -16.897  0.00  0.00    -0.240 NA
ATOM      4  N   UNL     1      36.440 -20.938 -18.975  0.00  0.00    -0.263 N 
ATOM      5  N   UNL     1      34.219 -21.711 -19.548  0.00  0.00    -0.304 NA
ATOM      6  N   UNL     1      35.418 -20.229 -20.912  0.00  0.00    -0.320 N 
ATOM      7  C   UNL     1      35.283 -22.427 -17.571  0.00  0.00    +0.233 C 
ATOM      8  C   UNL     1      36.395 -21.676 -17.854  0.00  0.00    +0.140 C 
ATOM      9  C   UNL     1      36.831 -22.622 -16.018  0.00  0.00    +0.203 C 
ATOM     10  C   UNL     1      34.112 -22.496 -18.403  0.00  0.00    +0.204 C 
ATOM     11  C   UNL     1      35.306 -21.005 -19.782  0.00  0.00    +0.248 C 
ATOM     12  H   UNL     1      37.221 -20.388 -19.212  0.00  0.00    +0.157 HD
ATOM     13  H   UNL     1      36.237 -19.707 -21.070  0.00  0.00    +0.146 HD
ATOM     14  H   UNL     1      34.679 -20.194 -21.560  0.00  0.00    +0.146 HD
ENDROOT
BRANCH   2  15
ATOM     15  C   UNL     1      34.735 -23.942 -15.635  0.00  0.00    +0.052 C 
BRANCH  15  16
ATOM     16  C   ACE A   0      35.537 -25.093 -15.033  0.00  0.00    -0.064 C 
BRANCH  16  17
ATOM     17  N   UNL     1      35.254 -25.212 -13.608  0.00  0.00    +0.389 N 
ATOM     18  H1  UNL     1      35.279 -26.197 -13.344  0.00  0.00    -0.084 HD
ATOM     19  H2  UNL     1      34.332 -24.816 -13.426  0.00  0.00    -0.084 HD
BRANCH  17  20
ATOM     20  CA  UNL     1      36.237 -24.482 -12.819  0.00  0.00    -0.002 C 
BRANCH  20  21
ATOM     21  CB  UNL     1      37.412 -25.408 -12.508  0.00  0.00    +0.118 C 
BRANCH  21  22
ATOM     22  O   UNL     1      36.926 -26.682 -12.105  0.00  0.00    -0.384 OA
ATOM     23  H   UNL     1      37.212 -26.865 -11.197  0.00  0.00    +0.210 HD
ENDBRANCH  21  22
ENDBRANCH  20  21
BRANCH  20  24
ATOM     24  C   UNL     1      35.580 -23.950 -11.543  0.00  0.00    +0.118 C 
BRANCH  24  25
ATOM     25  O   UNL     1      35.333 -25.027 -10.648  0.00  0.00    -0.384 OA
ATOM     26  H   UNL     1      35.030 -24.677  -9.795  0.00  0.00    +0.210 HD
ENDBRANCH  24  25
ENDBRANCH  20  24
ENDBRANCH  17  20
ENDBRANCH  16  17
ENDBRANCH  15  16
ENDBRANCH   2  15
TORSDOF 8
ENDMDL
