MODEL 1
REMARK VINA RESULT:      -7.2      0.000      0.000
REMARK  Name = 13450
REMARK  3 active torsions:
REMARK  status: ('A' for Active; 'I' for Inactive)
REMARK    1  A    between atoms: N_1  and  C_11
REMARK    2  A    between atoms: N_4  and  C_17
REMARK    3  A    between atoms: C_8  and  S_15
REMARK                            x       y       z     vdW  Elec       q    Type
REMARK                         _______ _______ _______ _____ _____    ______ ____
ROOT
ATOM      1  N   UNL     1      30.640 -22.974 -16.890  0.00  0.00    -0.261 N 
ATOM      2  N   UNL     1      32.681 -23.427 -15.825  0.00  0.00    -0.247 NA
ATOM      3  N   UNL     1      32.629 -22.569 -18.066  0.00  0.00    -0.254 NA
ATOM      4  N   UNL     1      34.752 -23.861 -14.814  0.00  0.00    -0.258 N 
ATOM      5  N   UNL     1      34.731 -23.022 -17.004  0.00  0.00    -0.254 NA
ATOM      6  C   UNL     1      32.021 -22.990 -16.929  0.00  0.00    +0.221 C 
ATOM      7  C   UNL     1      34.019 -23.415 -15.935  0.00  0.00    +0.221 C 
ATOM      8  C   UNL     1      33.969 -22.613 -18.031  0.00  0.00    +0.191 C 
ATOM      9  H   UNL     1      30.156 -22.657 -17.686  0.00  0.00    +0.160 HD
ATOM     10  H   UNL     1      35.735 -23.864 -14.865  0.00  0.00    +0.160 HD
ENDROOT
BRANCH   1  11
ATOM     11  C   UNL     1      29.866 -23.399 -15.737  0.00  0.00    +0.065 C 
ATOM     12  C   UNL     1      30.455 -22.750 -14.482  0.00  0.00    +0.020 C 
ATOM     13  C   UNL     1      28.416 -22.953 -15.935  0.00  0.00    +0.020 C 
ATOM     14  C   UNL     1      29.944 -24.924 -15.627  0.00  0.00    +0.020 C 
ENDBRANCH   1  11
BRANCH   8  15
ATOM     15  S   UNL     1      34.827 -22.073 -19.496  0.00  0.00    -0.016 S 
ATOM     16  C   UNL     1      36.429 -21.555 -18.817  0.00  0.00    +0.087 C 
ENDBRANCH   8  15
BRANCH   4  17
ATOM     17  C   UNL     1      34.128 -24.309 -13.608  0.00  0.00    +0.099 C 
ATOM     18  C   UNL     1      35.136 -24.330 -12.476  0.00  0.00    +0.024 C 
ENDBRANCH   4  17
TORSDOF 3
ENDMDL
MODEL 2
REMARK VINA RESULT:      -6.6      9.345     11.033
REMARK  Name = 13450
REMARK  3 active torsions:
REMARK  status: ('A' for Active; 'I' for Inactive)
REMARK    1  A    between atoms: N_1  and  C_11
REMARK    2  A    between atoms: N_4  and  C_17
REMARK    3  A    between atoms: C_8  and  S_15
REMARK                            x       y       z     vdW  Elec       q    Type
REMARK                         _______ _______ _______ _____ _____    ______ ____
ROOT
ATOM      1  N   UNL     1      32.745 -14.184 -22.319  0.00  0.00    -0.261 N 
ATOM      2  N   UNL     1      34.018 -15.908 -23.275  0.00  0.00    -0.247 NA
ATOM      3  N   UNL     1      32.917 -14.283 -24.656  0.00  0.00    -0.254 NA
ATOM      4  N   UNL     1      35.276 -17.607 -24.290  0.00  0.00    -0.258 N 
ATOM      5  N   UNL     1      34.211 -16.033 -25.663  0.00  0.00    -0.254 NA
ATOM      6  C   UNL     1      33.240 -14.808 -23.448  0.00  0.00    +0.221 C 
ATOM      7  C   UNL     1      34.462 -16.460 -24.415  0.00  0.00    +0.221 C 
ATOM      8  C   UNL     1      33.432 -14.941 -25.706  0.00  0.00    +0.191 C 
ATOM      9  H   UNL     1      32.181 -13.386 -22.438  0.00  0.00    +0.160 HD
ATOM     10  H   UNL     1      35.617 -18.036 -25.108  0.00  0.00    +0.160 HD
ENDROOT
BRANCH   1  11
ATOM     11  C   UNL     1      33.013 -14.644 -20.968  0.00  0.00    +0.065 C 
ATOM     12  C   UNL     1      34.524 -14.824 -20.799  0.00  0.00    +0.020 C 
ATOM     13  C   UNL     1      32.489 -13.594 -19.985  0.00  0.00    +0.020 C 
ATOM     14  C   UNL     1      32.296 -15.980 -20.750  0.00  0.00    +0.020 C 
ENDBRANCH   1  11
BRANCH   8  15
ATOM     15  S   UNL     1      33.043 -14.300 -27.322  0.00  0.00    -0.016 S 
ATOM     16  C   UNL     1      33.487 -12.548 -27.141  0.00  0.00    +0.087 C 
ENDBRANCH   8  15
BRANCH   4  17
ATOM     17  C   UNL     1      35.625 -18.175 -23.024  0.00  0.00    +0.099 C 
ATOM     18  C   UNL     1      34.714 -19.346 -22.709  0.00  0.00    +0.024 C 
ENDBRANCH   4  17
TORSDOF 3
ENDMDL
MODEL 3
REMARK VINA RESULT:      -6.6     12.519     14.481
REMARK  Name = 13450
REMARK  3 active torsions:
REMARK  status: ('A' for Active; 'I' for Inactive)
REMARK    1  A    between atoms: N_1  and  C_11
REMARK    2  A    between atoms: N_4  and  C_17
REMARK    3  A    between atoms: C_8  and  S_15
REMARK                            x       y       z     vdW  Elec       q    Type
REMARK                         _______ _______ _______ _____ _____    ______ ____
ROOT
ATOM      1  N   UNL     1      33.518  -9.579 -24.101  0.00  0.00    -0.261 N 
ATOM      2  N   UNL     1      32.302 -10.819 -22.523  0.00  0.00    -0.247 NA
ATOM      3  N   UNL     1      33.560 -11.920 -24.244  0.00  0.00    -0.254 NA
ATOM      4  N   UNL     1      31.106 -12.113 -20.975  0.00  0.00    -0.258 N 
ATOM      5  N   UNL     1      32.327 -13.215 -22.646  0.00  0.00    -0.254 NA
ATOM      6  C   UNL     1      33.116 -10.806 -23.610  0.00  0.00    +0.221 C 
ATOM      7  C   UNL     1      31.953 -12.045 -22.103  0.00  0.00    +0.221 C 
ATOM      8  C   UNL     1      33.129 -13.075 -23.714  0.00  0.00    +0.191 C 
ATOM      9  H   UNL     1      34.109  -9.564 -24.888  0.00  0.00    +0.160 HD
ATOM     10  H   UNL     1      30.832 -12.998 -20.644  0.00  0.00    +0.160 HD
ENDROOT
BRANCH   1  11
ATOM     11  C   UNL     1      33.114  -8.313 -23.518  0.00  0.00    +0.065 C 
ATOM     12  C   UNL     1      33.256  -8.403 -21.996  0.00  0.00    +0.020 C 
ATOM     13  C   UNL     1      34.021  -7.212 -24.071  0.00  0.00    +0.020 C 
ATOM     14  C   UNL     1      31.655  -8.039 -23.894  0.00  0.00    +0.020 C 
ENDBRANCH   1  11
BRANCH   8  15
ATOM     15  S   UNL     1      33.678 -14.573 -24.503  0.00  0.00    -0.016 S 
ATOM     16  C   UNL     1      32.925 -14.422 -26.149  0.00  0.00    +0.087 C 
ENDBRANCH   8  15
BRANCH   4  17
ATOM     17  C   UNL     1      30.627 -10.949 -20.295  0.00  0.00    +0.099 C 
ATOM     18  C   UNL     1      31.368 -10.771 -18.983  0.00  0.00    +0.024 C 
ENDBRANCH   4  17
TORSDOF 3
ENDMDL
MODEL 4
REMARK VINA RESULT:      -6.4      1.510      4.366
REMARK  Name = 13450
REMARK  3 active torsions:
REMARK  status: ('A' for Active; 'I' for Inactive)
REMARK    1  A    between atoms: N_1  and  C_11
REMARK    2  A    between atoms: N_4  and  C_17
REMARK    3  A    between atoms: C_8  and  S_15
REMARK                            x       y       z     vdW  Elec       q    Type
REMARK                         _______ _______ _______ _____ _____    ______ ____
ROOT
ATOM      1  N   UNL     1      35.908 -23.476 -15.959  0.00  0.00    -0.261 N 
ATOM      2  N   UNL     1      33.566 -23.605 -15.980  0.00  0.00    -0.247 NA
ATOM      3  N   UNL     1      34.753 -22.532 -17.769  0.00  0.00    -0.254 NA
ATOM      4  N   UNL     1      31.224 -23.702 -16.059  0.00  0.00    -0.258 N 
ATOM      5  N   UNL     1      32.358 -22.647 -17.819  0.00  0.00    -0.254 NA
ATOM      6  C   UNL     1      34.710 -23.197 -16.587  0.00  0.00    +0.221 C 
ATOM      7  C   UNL     1      32.442 -23.299 -16.648  0.00  0.00    +0.221 C 
ATOM      8  C   UNL     1      33.553 -22.294 -18.320  0.00  0.00    +0.191 C 
ATOM      9  H   UNL     1      36.741 -23.184 -16.394  0.00  0.00    +0.160 HD
ATOM     10  H   UNL     1      30.382 -23.491 -16.524  0.00  0.00    +0.160 HD
ENDROOT
BRANCH   1  11
ATOM     11  C   UNL     1      36.003 -24.179 -14.691  0.00  0.00    +0.065 C 
ATOM     12  C   UNL     1      35.899 -25.684 -14.953  0.00  0.00    +0.020 C 
ATOM     13  C   UNL     1      37.351 -23.843 -14.050  0.00  0.00    +0.020 C 
ATOM     14  C   UNL     1      34.855 -23.721 -13.787  0.00  0.00    +0.020 C 
ENDBRANCH   1  11
BRANCH   8  15
ATOM     15  S   UNL     1      33.543 -21.423 -19.873  0.00  0.00    -0.016 S 
ATOM     16  C   UNL     1      35.273 -20.885 -20.007  0.00  0.00    +0.087 C 
ENDBRANCH   8  15
BRANCH   4  17
ATOM     17  C   UNL     1      31.160 -24.402 -14.814  0.00  0.00    +0.099 C 
ATOM     18  C   UNL     1      30.047 -25.432 -14.851  0.00  0.00    +0.024 C 
ENDBRANCH   4  17
TORSDOF 3
ENDMDL
MODEL 5
REMARK VINA RESULT:      -6.4      2.403      4.214
REMARK  Name = 13450
REMARK  3 active torsions:
REMARK  status: ('A' for Active; 'I' for Inactive)
REMARK    1  A    between atoms: N_1  and  C_11
REMARK    2  A    between atoms: N_4  and  C_17
REMARK    3  A    between atoms: C_8  and  S_15
REMARK                            x       y       z     vdW  Elec       q    Type
REMARK                         _______ _______ _______ _____ _____    ______ ____
ROOT
ATOM      1  N   UNL     1      32.561 -24.408 -13.758  0.00  0.00    -0.261 N 
ATOM      2  N   UNL     1      33.471 -23.584 -15.757  0.00  0.00    -0.247 NA
ATOM      3  N   UNL     1      34.887 -24.487 -14.042  0.00  0.00    -0.254 NA
ATOM      4  N   UNL     1      34.441 -22.775 -17.733  0.00  0.00    -0.258 N 
ATOM      5  N   UNL     1      35.849 -23.651 -16.075  0.00  0.00    -0.254 NA
ATOM      6  C   UNL     1      33.670 -24.152 -14.540  0.00  0.00    +0.221 C 
ATOM      7  C   UNL     1      34.594 -23.365 -16.460  0.00  0.00    +0.221 C 
ATOM      8  C   UNL     1      35.918 -24.209 -14.856  0.00  0.00    +0.191 C 
ATOM      9  H   UNL     1      32.698 -24.821 -12.875  0.00  0.00    +0.160 HD
ATOM     10  H   UNL     1      35.246 -22.601 -18.272  0.00  0.00    +0.160 HD
ENDROOT
BRANCH   1  11
ATOM     11  C   UNL     1      31.203 -24.098 -14.170  0.00  0.00    +0.065 C 
ATOM     12  C   UNL     1      31.198 -22.734 -14.865  0.00  0.00    +0.020 C 
ATOM     13  C   UNL     1      30.728 -25.188 -15.134  0.00  0.00    +0.020 C 
ATOM     14  C   UNL     1      30.308 -24.060 -12.928  0.00  0.00    +0.020 C 
ENDBRANCH   1  11
BRANCH   8  15
ATOM     15  S   UNL     1      37.544 -24.623 -14.258  0.00  0.00    -0.016 S 
ATOM     16  C   UNL     1      37.220 -26.153 -13.334  0.00  0.00    +0.087 C 
ENDBRANCH   8  15
BRANCH   4  17
ATOM     17  C   UNL     1      33.166 -22.416 -18.272  0.00  0.00    +0.099 C 
ATOM     18  C   UNL     1      33.343 -21.456 -19.434  0.00  0.00    +0.024 C 
ENDBRANCH   4  17
TORSDOF 3
ENDMDL
MODEL 6
REMARK VINA RESULT:      -6.3      2.076      4.943
REMARK  Name = 13450
REMARK  3 active torsions:
REMARK  status: ('A' for Active; 'I' for Inactive)
REMARK    1  A    between atoms: N_1  and  C_11
REMARK    2  A    between atoms: N_4  and  C_17
REMARK    3  A    between atoms: C_8  and  S_15
REMARK                            x       y       z     vdW  Elec       q    Type
REMARK                         _______ _______ _______ _____ _____    ______ ____
ROOT
ATOM      1  N   UNL     1      37.443 -23.603 -14.285  0.00  0.00    -0.261 N 
ATOM      2  N   UNL     1      35.200 -23.621 -14.976  0.00  0.00    -0.247 NA
ATOM      3  N   UNL     1      36.909 -22.684 -16.376  0.00  0.00    -0.254 NA
ATOM      4  N   UNL     1      32.977 -23.610 -15.721  0.00  0.00    -0.258 N 
ATOM      5  N   UNL     1      34.625 -22.688 -17.110  0.00  0.00    -0.254 NA
ATOM      6  C   UNL     1      36.492 -23.294 -15.239  0.00  0.00    +0.221 C 
ATOM      7  C   UNL     1      34.333 -23.291 -15.947  0.00  0.00    +0.221 C 
ATOM      8  C   UNL     1      35.932 -22.414 -17.256  0.00  0.00    +0.191 C 
ATOM      9  H   UNL     1      38.380 -23.369 -14.471  0.00  0.00    +0.160 HD
ATOM     10  H   UNL     1      32.317 -23.380 -16.414  0.00  0.00    +0.160 HD
ENDROOT
BRANCH   1  11
ATOM     11  C   UNL     1      37.130 -24.253 -13.025  0.00  0.00    +0.065 C 
ATOM     12  C   UNL     1      38.342 -24.137 -12.097  0.00  0.00    +0.020 C 
ATOM     13  C   UNL     1      35.918 -23.554 -12.406  0.00  0.00    +0.020 C 
ATOM     14  C   UNL     1      36.814 -25.727 -13.296  0.00  0.00    +0.020 C 
ENDBRANCH   1  11
BRANCH   8  15
ATOM     15  S   UNL     1      36.416 -21.611 -18.770  0.00  0.00    -0.016 S 
ATOM     16  C   UNL     1      34.820 -21.423 -19.616  0.00  0.00    +0.087 C 
ENDBRANCH   8  15
BRANCH   4  17
ATOM     17  C   UNL     1      32.520 -24.252 -14.528  0.00  0.00    +0.099 C 
ATOM     18  C   UNL     1      31.695 -23.286 -13.699  0.00  0.00    +0.024 C 
ENDBRANCH   4  17
TORSDOF 3
ENDMDL
MODEL 7
REMARK VINA RESULT:      -6.3      9.976     12.003
REMARK  Name = 13450
REMARK  3 active torsions:
REMARK  status: ('A' for Active; 'I' for Inactive)
REMARK    1  A    between atoms: N_1  and  C_11
REMARK    2  A    between atoms: N_4  and  C_17
REMARK    3  A    between atoms: C_8  and  S_15
REMARK                            x       y       z     vdW  Elec       q    Type
REMARK                         _______ _______ _______ _____ _____    ______ ____
ROOT
ATOM      1  N   UNL     1      34.062 -15.546 -22.569  0.00  0.00    -0.261 N 
ATOM      2  N   UNL     1      32.968 -13.547 -22.008  0.00  0.00    -0.247 NA
ATOM      3  N   UNL     1      33.951 -13.842 -24.178  0.00  0.00    -0.254 NA
ATOM      4  N   UNL     1      31.889 -11.526 -21.506  0.00  0.00    -0.258 N 
ATOM      5  N   UNL     1      32.840 -11.787 -23.633  0.00  0.00    -0.254 NA
ATOM      6  C   UNL     1      33.649 -14.277 -22.928  0.00  0.00    +0.221 C 
ATOM      7  C   UNL     1      32.600 -12.326 -22.427  0.00  0.00    +0.221 C 
ATOM      8  C   UNL     1      33.520 -12.602 -24.456  0.00  0.00    +0.191 C 
ATOM      9  H   UNL     1      34.555 -16.080 -23.233  0.00  0.00    +0.160 HD
ATOM     10  H   UNL     1      31.606 -10.625 -21.784  0.00  0.00    +0.160 HD
ENDROOT
BRANCH   1  11
ATOM     11  C   UNL     1      33.806 -16.131 -21.265  0.00  0.00    +0.065 C 
ATOM     12  C   UNL     1      32.324 -15.950 -20.926  0.00  0.00    +0.020 C 
ATOM     13  C   UNL     1      34.160 -17.619 -21.324  0.00  0.00    +0.020 C 
ATOM     14  C   UNL     1      34.675 -15.418 -20.226  0.00  0.00    +0.020 C 
ENDBRANCH   1  11
BRANCH   8  15
ATOM     15  S   UNL     1      33.886 -11.973 -26.081  0.00  0.00    -0.016 S 
ATOM     16  C   UNL     1      33.290 -13.320 -27.143  0.00  0.00    +0.087 C 
ENDBRANCH   8  15
BRANCH   4  17
ATOM     17  C   UNL     1      31.564 -11.969 -20.186  0.00  0.00    +0.099 C 
ATOM     18  C   UNL     1      31.488 -10.783 -19.242  0.00  0.00    +0.024 C 
ENDBRANCH   4  17
TORSDOF 3
ENDMDL
MODEL 8
REMARK VINA RESULT:      -6.2      8.803     11.144
REMARK  Name = 13450
REMARK  3 active torsions:
REMARK  status: ('A' for Active; 'I' for Inactive)
REMARK    1  A    between atoms: N_1  and  C_11
REMARK    2  A    between atoms: N_4  and  C_17
REMARK    3  A    between atoms: C_8  and  S_15
REMARK                            x       y       z     vdW  Elec       q    Type
REMARK                         _______ _______ _______ _____ _____    ______ ____
ROOT
ATOM      1  N   UNL     1      34.653 -17.268 -23.033  0.00  0.00    -0.261 N 
ATOM      2  N   UNL     1      33.488 -15.289 -22.553  0.00  0.00    -0.247 NA
ATOM      3  N   UNL     1      33.920 -15.940 -24.822  0.00  0.00    -0.254 NA
ATOM      4  N   UNL     1      32.318 -13.299 -22.138  0.00  0.00    -0.258 N 
ATOM      5  N   UNL     1      32.727 -13.911 -24.364  0.00  0.00    -0.254 NA
ATOM      6  C   UNL     1      34.003 -16.135 -23.482  0.00  0.00    +0.221 C 
ATOM      7  C   UNL     1      32.871 -14.211 -23.063  0.00  0.00    +0.221 C 
ATOM      8  C   UNL     1      33.277 -14.820 -25.185  0.00  0.00    +0.191 C 
ATOM      9  H   UNL     1      35.027 -17.886 -23.702  0.00  0.00    +0.160 HD
ATOM     10  H   UNL     1      31.860 -12.498 -22.481  0.00  0.00    +0.160 HD
ENDROOT
BRANCH   1  11
ATOM     11  C   UNL     1      34.812 -17.595 -21.627  0.00  0.00    +0.065 C 
ATOM     12  C   UNL     1      36.097 -18.409 -21.453  0.00  0.00    +0.020 C 
ATOM     13  C   UNL     1      34.898 -16.290 -20.833  0.00  0.00    +0.020 C 
ATOM     14  C   UNL     1      33.603 -18.417 -21.171  0.00  0.00    +0.020 C 
ENDBRANCH   1  11
BRANCH   8  15
ATOM     15  S   UNL     1      33.136 -14.507 -26.932  0.00  0.00    -0.016 S 
ATOM     16  C   UNL     1      33.503 -12.730 -27.021  0.00  0.00    +0.087 C 
ENDBRANCH   8  15
BRANCH   4  17
ATOM     17  C   UNL     1      32.397 -13.488 -20.723  0.00  0.00    +0.099 C 
ATOM     18  C   UNL     1      31.915 -12.243 -20.002  0.00  0.00    +0.024 C 
ENDBRANCH   4  17
TORSDOF 3
ENDMDL
MODEL 9
REMARK VINA RESULT:      -6.2      2.418      4.203
REMARK  Name = 13450
REMARK  3 active torsions:
REMARK  status: ('A' for Active; 'I' for Inactive)
REMARK    1  A    between atoms: N_1  and  C_11
REMARK    2  A    between atoms: N_4  and  C_17
REMARK    3  A    between atoms: C_8  and  S_15
REMARK                            x       y       z     vdW  Elec       q    Type
REMARK                         _______ _______ _______ _____ _____    ______ ____
ROOT
ATOM      1  N   UNL     1      31.099 -24.264 -13.870  0.00  0.00    -0.261 N 
ATOM      2  N   UNL     1      32.859 -23.658 -15.298  0.00  0.00    -0.247 NA
ATOM      3  N   UNL     1      33.284 -24.270 -13.017  0.00  0.00    -0.254 NA
ATOM      4  N   UNL     1      34.661 -23.061 -16.676  0.00  0.00    -0.258 N 
ATOM      5  N   UNL     1      35.105 -23.655 -14.452  0.00  0.00    -0.254 NA
ATOM      6  C   UNL     1      32.451 -24.058 -14.067  0.00  0.00    +0.221 C 
ATOM      7  C   UNL     1      34.185 -23.478 -15.414  0.00  0.00    +0.221 C 
ATOM      8  C   UNL     1      34.581 -24.050 -13.280  0.00  0.00    +0.191 C 
ATOM      9  H   UNL     1      30.797 -24.555 -12.980  0.00  0.00    +0.160 HD
ATOM     10  H   UNL     1      35.628 -22.921 -16.793  0.00  0.00    +0.160 HD
ENDROOT
BRANCH   1  11
ATOM     11  C   UNL     1      30.102 -24.072 -14.908  0.00  0.00    +0.065 C 
ATOM     12  C   UNL     1      28.927 -25.018 -14.643  0.00  0.00    +0.020 C 
ATOM     13  C   UNL     1      29.632 -22.617 -14.866  0.00  0.00    +0.020 C 
ATOM     14  C   UNL     1      30.735 -24.388 -16.266  0.00  0.00    +0.020 C 
ENDBRANCH   1  11
BRANCH   8  15
ATOM     15  S   UNL     1      35.726 -24.309 -11.941  0.00  0.00    -0.016 S 
ATOM     16  C   UNL     1      36.831 -25.571 -12.637  0.00  0.00    +0.087 C 
ENDBRANCH   8  15
BRANCH   4  17
ATOM     17  C   UNL     1      33.797 -22.833 -17.793  0.00  0.00    +0.099 C 
ATOM     18  C   UNL     1      34.569 -22.183 -18.925  0.00  0.00    +0.024 C 
ENDBRANCH   4  17
TORSDOF 3
ENDMDL
