MODEL 1
REMARK VINA RESULT:      -7.3      0.000      0.000
REMARK  Name = 10172827
REMARK  5 active torsions:
REMARK  status: ('A' for Active; 'I' for Inactive)
REMARK    1  A    between atoms: C_6  and  O_23
REMARK    2  A    between atoms: C_7  and  O_25
REMARK    3  A    between atoms: C_20  and  O_27
REMARK    4  A    between atoms: C_21  and  N_29
REMARK    5  A    between atoms: N_29  and  C_31
REMARK                            x       y       z     vdW  Elec       q    Type
REMARK                         _______ _______ _______ _____ _____    ______ ____
ROOT
ATOM      1  O   UNL     1      34.796 -24.844 -15.003  0.00  0.00    -0.449 OA
ATOM      2  O   UNL     1      38.011 -22.966 -17.586  0.00  0.00    -0.289 OA
ATOM      3  O   UNL     1      34.513 -23.183 -13.422  0.00  0.00    -0.245 OA
ATOM      4  C   UNL     1      37.239 -24.686 -15.135  0.00  0.00    +0.062 C 
ATOM      5  C   UNL     1      36.029 -25.343 -14.417  0.00  0.00    +0.173 C 
ATOM      6  C   UNL     1      36.232 -21.123 -18.978  0.00  0.00    +0.149 C 
ATOM      7  C   UNL     1      36.721 -20.916 -17.537  0.00  0.00    +0.199 C 
ATOM      8  C   UNL     1      37.397 -23.248 -14.688  0.00  0.00    -0.020 C 
ATOM      9  C   UNL     1      38.561 -25.409 -14.861  0.00  0.00    +0.008 C 
ATOM     10  C   UNL     1      35.288 -22.318 -19.179  0.00  0.00    +0.058 C 
ATOM     11  C   UNL     1      35.968 -26.858 -14.598  0.00  0.00    +0.048 C 
ATOM     12  C   UNL     1      37.448 -22.104 -16.919  0.00  0.00    +0.202 C 
ATOM     13  C   UNL     1      37.472 -22.136 -15.431  0.00  0.00    +0.036 C 
ATOM     14  C   UNL     1      32.863 -23.593 -15.082  0.00  0.00    +0.109 C 
ATOM     15  C   UNL     1      32.731 -23.361 -16.465  0.00  0.00    +0.010 C 
ATOM     16  C   UNL     1      34.115 -22.329 -18.243  0.00  0.00    -0.024 C 
ATOM     17  C   UNL     1      34.156 -23.814 -14.403  0.00  0.00    +0.344 C 
ATOM     18  C   UNL     1      33.875 -23.335 -17.388  0.00  0.00    -0.004 C 
ATOM     19  C   UNL     1      31.438 -23.159 -16.983  0.00  0.00    +0.015 C 
ATOM     20  C   UNL     1      31.736 -23.583 -14.248  0.00  0.00    +0.141 C 
ATOM     21  C   UNL     1      30.318 -23.163 -16.150  0.00  0.00    +0.048 C 
ATOM     22  C   UNL     1      30.467 -23.371 -14.783  0.00  0.00    +0.051 C 
ENDROOT
BRANCH   6  23
ATOM     23  O   UNL     1      37.346 -21.271 -19.864  0.00  0.00    -0.381 OA
ATOM     24  H   UNL     1      37.078 -21.798 -20.634  0.00  0.00    +0.210 HD
ENDBRANCH   6  23
BRANCH   7  25
ATOM     25  O   UNL     1      37.615 -19.810 -17.519  0.00  0.00    -0.375 OA
ATOM     26  H   UNL     1      37.943 -19.645 -18.417  0.00  0.00    +0.211 HD
ENDBRANCH   7  25
BRANCH  20  27
ATOM     27  O   UNL     1      31.832 -23.804 -12.905  0.00  0.00    -0.505 OA
ATOM     28  H   UNL     1      31.994 -23.088 -12.322  0.00  0.00    +0.292 HD
ENDBRANCH  20  27
BRANCH  21  29
ATOM     29  N   UNL     1      29.033 -22.955 -16.695  0.00  0.00    -0.333 N 
ATOM     30  H   UNL     1      28.895 -23.131 -17.654  0.00  0.00    +0.147 HD
BRANCH  29  31
ATOM     31  C   UNL     1      27.924 -22.499 -15.917  0.00  0.00    +0.087 C 
ATOM     32  C   UNL     1      26.823 -21.943 -16.803  0.00  0.00    +0.023 C 
ENDBRANCH  29  31
ENDBRANCH  21  29
TORSDOF 5
ENDMDL
MODEL 2
REMARK VINA RESULT:      -5.7     12.914     16.265
REMARK  Name = 10172827
REMARK  5 active torsions:
REMARK  status: ('A' for Active; 'I' for Inactive)
REMARK    1  A    between atoms: C_6  and  O_23
REMARK    2  A    between atoms: C_7  and  O_25
REMARK    3  A    between atoms: C_20  and  O_27
REMARK    4  A    between atoms: C_21  and  N_29
REMARK    5  A    between atoms: N_29  and  C_31
REMARK                            x       y       z     vdW  Elec       q    Type
REMARK                         _______ _______ _______ _____ _____    ______ ____
ROOT
ATOM      1  O   UNL     1      32.804  -8.120 -24.121  0.00  0.00    -0.449 OA
ATOM      2  O   UNL     1      30.967  -8.197 -19.979  0.00  0.00    -0.289 OA
ATOM      3  O   UNL     1      35.044  -8.299 -23.583  0.00  0.00    -0.245 OA
ATOM      4  C   UNL     1      32.207  -6.583 -22.308  0.00  0.00    +0.062 C 
ATOM      5  C   UNL     1      32.719  -6.714 -23.767  0.00  0.00    +0.173 C 
ATOM      6  C   UNL     1      31.252 -11.071 -19.583  0.00  0.00    +0.149 C 
ATOM      7  C   UNL     1      32.415 -10.074 -19.475  0.00  0.00    +0.199 C 
ATOM      8  C   UNL     1      33.305  -6.947 -21.332  0.00  0.00    -0.020 C 
ATOM      9  C   UNL     1      31.727  -5.169 -21.966  0.00  0.00    +0.008 C 
ATOM     10  C   UNL     1      30.669 -11.239 -20.994  0.00  0.00    +0.058 C 
ATOM     11  C   UNL     1      31.772  -6.103 -24.798  0.00  0.00    +0.048 C 
ATOM     12  C   UNL     1      32.104  -8.658 -19.946  0.00  0.00    +0.202 C 
ATOM     13  C   UNL     1      33.285  -7.838 -20.331  0.00  0.00    +0.036 C 
ATOM     14  C   UNL     1      33.869 -10.114 -24.570  0.00  0.00    +0.109 C 
ATOM     15  C   UNL     1      32.906 -11.052 -24.149  0.00  0.00    +0.010 C 
ATOM     16  C   UNL     1      31.697 -11.548 -22.043  0.00  0.00    -0.024 C 
ATOM     17  C   UNL     1      33.995  -8.753 -24.009  0.00  0.00    +0.344 C 
ATOM     18  C   UNL     1      31.904 -10.763 -23.112  0.00  0.00    -0.004 C 
ATOM     19  C   UNL     1      32.900 -12.317 -24.764  0.00  0.00    +0.015 C 
ATOM     20  C   UNL     1      34.815 -10.454 -25.547  0.00  0.00    +0.141 C 
ATOM     21  C   UNL     1      33.836 -12.647 -25.746  0.00  0.00    +0.048 C 
ATOM     22  C   UNL     1      34.795 -11.718 -26.135  0.00  0.00    +0.051 C 
ENDROOT
BRANCH   6  23
ATOM     23  O   UNL     1      30.194 -10.699 -18.696  0.00  0.00    -0.381 OA
ATOM     24  H   UNL     1      30.106 -11.368 -17.999  0.00  0.00    +0.210 HD
ENDBRANCH   6  23
BRANCH   7  25
ATOM     25  O   UNL     1      32.814  -9.993 -18.112  0.00  0.00    -0.375 OA
ATOM     26  H   UNL     1      32.643 -10.842 -17.674  0.00  0.00    +0.211 HD
ENDBRANCH   7  25
BRANCH  20  27
ATOM     27  O   UNL     1      35.760  -9.568 -25.975  0.00  0.00    -0.505 OA
ATOM     28  H   UNL     1      35.741  -9.253 -26.858  0.00  0.00    +0.292 HD
ENDBRANCH  20  27
BRANCH  21  29
ATOM     29  N   UNL     1      33.810 -13.925 -26.343  0.00  0.00    -0.333 N 
ATOM     30  H   UNL     1      34.335 -14.072 -27.163  0.00  0.00    +0.147 HD
BRANCH  29  31
ATOM     31  C   UNL     1      33.055 -15.016 -25.810  0.00  0.00    +0.087 C 
ATOM     32  C   UNL     1      33.966 -16.080 -25.223  0.00  0.00    +0.023 C 
ENDBRANCH  29  31
ENDBRANCH  21  29
TORSDOF 5
ENDMDL
MODEL 3
REMARK VINA RESULT:      -4.9     16.137     19.034
REMARK  Name = 10172827
REMARK  5 active torsions:
REMARK  status: ('A' for Active; 'I' for Inactive)
REMARK    1  A    between atoms: C_6  and  O_23
REMARK    2  A    between atoms: C_7  and  O_25
REMARK    3  A    between atoms: C_20  and  O_27
REMARK    4  A    between atoms: C_21  and  N_29
REMARK    5  A    between atoms: N_29  and  C_31
REMARK                            x       y       z     vdW  Elec       q    Type
REMARK                         _______ _______ _______ _____ _____    ______ ____
ROOT
ATOM      1  O   UNL     1      31.917  -6.245 -22.721  0.00  0.00    -0.449 OA
ATOM      2  O   UNL     1      33.263  -3.071 -25.663  0.00  0.00    -0.289 OA
ATOM      3  O   UNL     1      30.169  -7.188 -23.903  0.00  0.00    -0.245 OA
ATOM      4  C   UNL     1      31.430  -3.919 -23.320  0.00  0.00    +0.062 C 
ATOM      5  C   UNL     1      31.157  -5.074 -22.320  0.00  0.00    +0.173 C 
ATOM      6  C   UNL     1      34.672  -4.899 -27.444  0.00  0.00    +0.149 C 
ATOM      7  C   UNL     1      33.143  -4.761 -27.396  0.00  0.00    +0.199 C 
ATOM      8  C   UNL     1      30.699  -4.169 -24.622  0.00  0.00    -0.020 C 
ATOM      9  C   UNL     1      30.988  -2.551 -22.791  0.00  0.00    +0.008 C 
ATOM     10  C   UNL     1      35.310  -5.502 -26.185  0.00  0.00    +0.058 C 
ATOM     11  C   UNL     1      31.624  -4.767 -20.899  0.00  0.00    +0.048 C 
ATOM     12  C   UNL     1      32.601  -3.929 -26.240  0.00  0.00    +0.202 C 
ATOM     13  C   UNL     1      31.183  -4.192 -25.872  0.00  0.00    +0.036 C 
ATOM     14  C   UNL     1      32.221  -8.350 -23.609  0.00  0.00    +0.109 C 
ATOM     15  C   UNL     1      33.528  -8.254 -24.126  0.00  0.00    +0.010 C 
ATOM     16  C   UNL     1      34.701  -6.805 -25.759  0.00  0.00    -0.024 C 
ATOM     17  C   UNL     1      31.306  -7.199 -23.462  0.00  0.00    +0.344 C 
ATOM     18  C   UNL     1      34.129  -6.984 -24.558  0.00  0.00    -0.004 C 
ATOM     19  C   UNL     1      34.293  -9.432 -24.217  0.00  0.00    +0.015 C 
ATOM     20  C   UNL     1      31.693  -9.594 -23.234  0.00  0.00    +0.141 C 
ATOM     21  C   UNL     1      33.767 -10.666 -23.830  0.00  0.00    +0.048 C 
ATOM     22  C   UNL     1      32.467 -10.748 -23.343  0.00  0.00    +0.051 C 
ENDROOT
BRANCH   6  23
ATOM     23  O   UNL     1      35.277  -3.627 -27.696  0.00  0.00    -0.381 OA
ATOM     24  H   UNL     1      35.112  -3.368 -28.616  0.00  0.00    +0.210 HD
ENDBRANCH   6  23
BRANCH   7  25
ATOM     25  O   UNL     1      32.707  -4.150 -28.604  0.00  0.00    -0.375 OA
ATOM     26  H   UNL     1      33.261  -4.456 -29.339  0.00  0.00    +0.211 HD
ENDBRANCH   7  25
BRANCH  20  27
ATOM     27  O   UNL     1      30.431  -9.719 -22.730  0.00  0.00    -0.505 OA
ATOM     28  H   UNL     1      29.705  -9.836 -23.311  0.00  0.00    +0.292 HD
ENDBRANCH  20  27
BRANCH  21  29
ATOM     29  N   UNL     1      34.555 -11.832 -23.936  0.00  0.00    -0.333 N 
ATOM     30  H   UNL     1      35.533 -11.746 -23.867  0.00  0.00    +0.147 HD
BRANCH  29  31
ATOM     31  C   UNL     1      33.995 -13.131 -24.138  0.00  0.00    +0.087 C 
ATOM     32  C   UNL     1      34.201 -14.015 -22.919  0.00  0.00    +0.023 C 
ENDBRANCH  29  31
ENDBRANCH  21  29
TORSDOF 5
ENDMDL
MODEL 4
REMARK VINA RESULT:      -4.5      5.263      8.454
REMARK  Name = 10172827
REMARK  5 active torsions:
REMARK  status: ('A' for Active; 'I' for Inactive)
REMARK    1  A    between atoms: C_6  and  O_23
REMARK    2  A    between atoms: C_7  and  O_25
REMARK    3  A    between atoms: C_20  and  O_27
REMARK    4  A    between atoms: C_21  and  N_29
REMARK    5  A    between atoms: N_29  and  C_31
REMARK                            x       y       z     vdW  Elec       q    Type
REMARK                         _______ _______ _______ _____ _____    ______ ____
ROOT
ATOM      1  O   UNL     1      34.599 -19.668 -22.981  0.00  0.00    -0.449 OA
ATOM      2  O   UNL     1      33.179 -15.365 -23.087  0.00  0.00    -0.289 OA
ATOM      3  O   UNL     1      36.511 -19.440 -21.704  0.00  0.00    -0.245 OA
ATOM      4  C   UNL     1      34.905 -17.626 -24.302  0.00  0.00    +0.062 C 
ATOM      5  C   UNL     1      35.212 -19.143 -24.189  0.00  0.00    +0.173 C 
ATOM      6  C   UNL     1      32.085 -15.349 -20.385  0.00  0.00    +0.149 C 
ATOM      7  C   UNL     1      33.586 -15.271 -20.700  0.00  0.00    +0.199 C 
ATOM      8  C   UNL     1      35.751 -16.845 -23.319  0.00  0.00    -0.020 C 
ATOM      9  C   UNL     1      35.175 -17.063 -25.700  0.00  0.00    +0.008 C 
ATOM     10  C   UNL     1      31.416 -16.685 -20.737  0.00  0.00    +0.058 C 
ATOM     11  C   UNL     1      34.613 -19.968 -25.326  0.00  0.00    +0.048 C 
ATOM     12  C   UNL     1      33.960 -15.530 -22.155  0.00  0.00    +0.202 C 
ATOM     13  C   UNL     1      35.365 -15.961 -22.388  0.00  0.00    +0.036 C 
ATOM     14  C   UNL     1      34.562 -20.478 -20.824  0.00  0.00    +0.109 C 
ATOM     15  C   UNL     1      33.294 -20.052 -20.382  0.00  0.00    +0.010 C 
ATOM     16  C   UNL     1      32.113 -17.884 -20.165  0.00  0.00    -0.024 C 
ATOM     17  C   UNL     1      35.351 -19.781 -21.861  0.00  0.00    +0.344 C 
ATOM     18  C   UNL     1      32.609 -18.871 -20.927  0.00  0.00    -0.004 C 
ATOM     19  C   UNL     1      32.654 -20.806 -19.381  0.00  0.00    +0.015 C 
ATOM     20  C   UNL     1      35.178 -21.600 -20.249  0.00  0.00    +0.141 C 
ATOM     21  C   UNL     1      33.265 -21.930 -18.822  0.00  0.00    +0.048 C 
ATOM     22  C   UNL     1      34.527 -22.324 -19.252  0.00  0.00    +0.051 C 
ENDROOT
BRANCH   6  23
ATOM     23  O   UNL     1      31.382 -14.298 -21.054  0.00  0.00    -0.381 OA
ATOM     24  H   UNL     1      30.855 -14.673 -21.778  0.00  0.00    +0.210 HD
ENDBRANCH   6  23
BRANCH   7  25
ATOM     25  O   UNL     1      34.050 -13.969 -20.365  0.00  0.00    -0.375 OA
ATOM     26  H   UNL     1      34.939 -14.033 -19.981  0.00  0.00    +0.211 HD
ENDBRANCH   7  25
BRANCH  20  27
ATOM     27  O   UNL     1      36.405 -22.036 -20.656  0.00  0.00    -0.505 OA
ATOM     28  H   UNL     1      37.113 -22.079 -20.044  0.00  0.00    +0.292 HD
ENDBRANCH  20  27
BRANCH  21  29
ATOM     29  N   UNL     1      32.602 -22.665 -17.817  0.00  0.00    -0.333 N 
ATOM     30  H   UNL     1      31.620 -22.733 -17.853  0.00  0.00    +0.147 HD
BRANCH  29  31
ATOM     31  C   UNL     1      33.292 -23.317 -16.748  0.00  0.00    +0.087 C 
ATOM     32  C   UNL     1      32.434 -23.379 -15.496  0.00  0.00    +0.023 C 
ENDBRANCH  29  31
ENDBRANCH  21  29
TORSDOF 5
ENDMDL
