MODEL 1
REMARK VINA RESULT:     -11.0      0.000      0.000
REMARK  Name = 2793
REMARK  6 active torsions:
REMARK  status: ('A' for Active; 'I' for Inactive)
REMARK    1  A    between atoms: N_1  and  C_20
REMARK    2  A    between atoms: C_2  and  N_8
REMARK    3  A    between atoms: C_2  and  C_17
REMARK    4  A    between atoms: C_20  and  C_21
REMARK    5  A    between atoms: C_21  and  C_22
REMARK    6  A    between atoms: C_22  and  N_24
REMARK                            x       y       z     vdW  Elec       q    Type
REMARK                         _______ _______ _______ _____ _____    ______ ____
ROOT
ATOM      1  N   UNL     1      32.027  -9.744 -22.387  0.00  0.00    +0.387 N 
ATOM      2  C   UNL     1      32.135  -6.897 -23.106  0.00  0.00    +0.024 C 
ATOM      3  C   UNL     1      33.308  -7.623 -22.439  0.00  0.00    -0.033 C 
ATOM      4  C   UNL     1      31.226  -7.898 -23.832  0.00  0.00    -0.033 C 
ATOM      5  C   UNL     1      32.840  -8.813 -21.593  0.00  0.00    -0.079 C 
ATOM      6  C   UNL     1      30.838  -9.077 -22.931  0.00  0.00    -0.079 C 
ATOM      7  H   UNL     1      32.595 -10.066 -23.171  0.00  0.00    -0.080 HD
ENDROOT
BRANCH   2   8
ATOM      8  N   UNL     1      32.640  -5.907 -24.058  0.00  0.00    +0.395 N 
ATOM      9  C   UNL     1      31.531  -5.299 -24.807  0.00  0.00    -0.077 C 
ATOM     10  C   UNL     1      33.621  -6.519 -24.965  0.00  0.00    -0.077 C 
ATOM     11  C   UNL     1      32.038  -4.225 -25.771  0.00  0.00    -0.023 C 
ATOM     12  C   UNL     1      34.196  -5.486 -25.935  0.00  0.00    -0.023 C 
ATOM     13  C   UNL     1      33.092  -4.786 -26.719  0.00  0.00    -0.004 C 
ATOM     14  H   UNL     1      33.112  -5.166 -23.539  0.00  0.00    -0.079 HD
ENDBRANCH   2   8
BRANCH   2  17
ATOM     15  O   UNL     1      30.142  -5.913 -22.205  0.00  0.00    -0.277 OA
ATOM     16  N   UNL     1      32.113  -5.627 -21.052  0.00  0.00    -0.330 N 
ATOM     17  C   UNL     1      31.350  -6.108 -22.089  0.00  0.00    +0.201 C 
ATOM     18  H   UNL     1      31.692  -5.100 -20.335  0.00  0.00    +0.145 HD
ATOM     19  H   UNL     1      33.080  -5.809 -21.026  0.00  0.00    +0.145 HD
ENDBRANCH   2  17
BRANCH   1  20
ATOM     20  C   UNL     1      31.641 -10.902 -21.581  0.00  0.00    -0.076 C 
BRANCH  20  21
ATOM     21  C   UNL     1      31.797 -12.215 -22.353  0.00  0.00    -0.001 C 
BRANCH  21  22
ATOM     22  C   UNL     1      32.913 -13.126 -21.838  0.00  0.00    +0.093 C 
BRANCH  22  24
ATOM     23 CL   UNL     1      35.067  -9.379 -24.978  0.00  0.00    -0.082 Cl
ATOM     24  N   UNL     1      33.533 -13.868 -22.947  0.00  0.00    -0.287 N 
ATOM     25  C   UNL     1      33.743 -13.085 -24.112  0.00  0.00    +0.048 C 
ATOM     26  C   UNL     1      33.972 -15.195 -22.690  0.00  0.00    +0.048 C 
ATOM     27  C   UNL     1      33.452 -13.578 -25.395  0.00  0.00    -0.008 C 
ATOM     28  C   UNL     1      34.206 -16.166 -23.693  0.00  0.00    -0.008 C 
ATOM     29  C   UNL     1      32.905 -14.966 -25.566  0.00  0.00    +0.032 C 
ATOM     30  C   UNL     1      33.961 -15.988 -25.177  0.00  0.00    +0.032 C 
ATOM     31  C   UNL     1      34.247 -11.770 -24.015  0.00  0.00    +0.026 C 
ATOM     32  C   UNL     1      34.248 -15.589 -21.352  0.00  0.00    +0.015 C 
ATOM     33  C   UNL     1      33.659 -12.773 -26.529  0.00  0.00    -0.002 C 
ATOM     34  C   UNL     1      34.721 -17.437 -23.335  0.00  0.00    -0.003 C 
ATOM     35  C   UNL     1      34.453 -10.977 -25.145  0.00  0.00    +0.059 C 
ATOM     36  C   UNL     1      34.736 -16.855 -21.017  0.00  0.00    +0.001 C 
ATOM     37  C   UNL     1      34.156 -11.479 -26.405  0.00  0.00    +0.011 C 
ATOM     38  C   UNL     1      34.979 -17.781 -22.013  0.00  0.00    -0.000 C 
ENDBRANCH  22  24
ENDBRANCH  21  22
ENDBRANCH  20  21
ENDBRANCH   1  20
TORSDOF 6
ENDMDL
MODEL 2
REMARK VINA RESULT:     -10.8      7.703     12.524
REMARK  Name = 2793
REMARK  6 active torsions:
REMARK  status: ('A' for Active; 'I' for Inactive)
REMARK    1  A    between atoms: N_1  and  C_20
REMARK    2  A    between atoms: C_2  and  N_8
REMARK    3  A    between atoms: C_2  and  C_17
REMARK    4  A    between atoms: C_20  and  C_21
REMARK    5  A    between atoms: C_21  and  C_22
REMARK    6  A    between atoms: C_22  and  N_24
REMARK                            x       y       z     vdW  Elec       q    Type
REMARK                         _______ _______ _______ _____ _____    ______ ____
ROOT
ATOM      1  N   UNL     1      34.691 -20.549 -19.870  0.00  0.00    +0.387 N 
ATOM      2  C   UNL     1      34.990 -18.265 -21.694  0.00  0.00    +0.024 C 
ATOM      3  C   UNL     1      33.630 -18.708 -21.145  0.00  0.00    -0.033 C 
ATOM      4  C   UNL     1      36.122 -18.740 -20.773  0.00  0.00    -0.033 C 
ATOM      5  C   UNL     1      33.609 -20.202 -20.801  0.00  0.00    -0.079 C 
ATOM      6  C   UNL     1      36.005 -20.233 -20.444  0.00  0.00    -0.079 C 
ATOM      7  H   UNL     1      34.572 -19.988 -19.027  0.00  0.00    -0.080 HD
ENDROOT
BRANCH   2   8
ATOM      8  N   UNL     1      35.027 -16.807 -21.813  0.00  0.00    +0.395 N 
ATOM      9  C   UNL     1      34.470 -16.178 -20.607  0.00  0.00    -0.077 C 
ATOM     10  C   UNL     1      34.310 -16.370 -23.019  0.00  0.00    -0.077 C 
ATOM     11  C   UNL     1      34.547 -14.653 -20.693  0.00  0.00    -0.023 C 
ATOM     12  C   UNL     1      34.381 -14.852 -23.185  0.00  0.00    -0.023 C 
ATOM     13  C   UNL     1      33.853 -14.133 -21.948  0.00  0.00    -0.004 C 
ATOM     14  H   UNL     1      36.000 -16.510 -21.901  0.00  0.00    -0.079 HD
ENDBRANCH   2   8
BRANCH   2  17
ATOM     15  O   UNL     1      34.292 -19.334 -23.724  0.00  0.00    -0.277 OA
ATOM     16  N   UNL     1      36.467 -18.599 -23.576  0.00  0.00    -0.330 N 
ATOM     17  C   UNL     1      35.193 -18.784 -23.095  0.00  0.00    +0.201 C 
ATOM     18  H   UNL     1      36.700 -18.904 -24.483  0.00  0.00    +0.145 HD
ATOM     19  H   UNL     1      37.147 -18.162 -23.015  0.00  0.00    +0.145 HD
ENDBRANCH   2  17
BRANCH   1  20
ATOM     20  C   UNL     1      34.619 -21.964 -19.505  0.00  0.00    -0.076 C 
BRANCH  20  21
ATOM     21  C   UNL     1      33.371 -22.279 -18.677  0.00  0.00    -0.001 C 
BRANCH  21  22
ATOM     22  C   UNL     1      33.412 -23.625 -17.953  0.00  0.00    +0.093 C 
BRANCH  22  24
ATOM     23 CL   UNL     1      38.013 -21.430 -16.353  0.00  0.00    -0.082 Cl
ATOM     24  N   UNL     1      33.262 -23.440 -16.501  0.00  0.00    -0.287 N 
ATOM     25  C   UNL     1      34.495 -23.319 -15.809  0.00  0.00    +0.048 C 
ATOM     26  C   UNL     1      31.948 -23.259 -15.991  0.00  0.00    +0.048 C 
ATOM     27  C   UNL     1      34.727 -23.984 -14.593  0.00  0.00    -0.008 C 
ATOM     28  C   UNL     1      31.581 -23.468 -14.639  0.00  0.00    -0.008 C 
ATOM     29  C   UNL     1      33.658 -24.847 -13.986  0.00  0.00    +0.032 C 
ATOM     30  C   UNL     1      32.488 -23.984 -13.542  0.00  0.00    +0.032 C 
ATOM     31  C   UNL     1      35.541 -22.529 -16.333  0.00  0.00    +0.026 C 
ATOM     32  C   UNL     1      30.923 -22.793 -16.858  0.00  0.00    +0.015 C 
ATOM     33  C   UNL     1      35.964 -23.855 -13.937  0.00  0.00    -0.002 C 
ATOM     34  C   UNL     1      30.259 -23.181 -14.217  0.00  0.00    -0.003 C 
ATOM     35  C   UNL     1      36.766 -22.404 -15.676  0.00  0.00    +0.059 C 
ATOM     36  C   UNL     1      29.619 -22.536 -16.427  0.00  0.00    +0.001 C 
ATOM     37  C   UNL     1      36.979 -23.069 -14.476  0.00  0.00    +0.011 C 
ATOM     38  C   UNL     1      29.287 -22.726 -15.099  0.00  0.00    -0.000 C 
ENDBRANCH  22  24
ENDBRANCH  21  22
ENDBRANCH  20  21
ENDBRANCH   1  20
TORSDOF 6
ENDMDL
MODEL 3
REMARK VINA RESULT:     -10.4      1.381      1.812
REMARK  Name = 2793
REMARK  6 active torsions:
REMARK  status: ('A' for Active; 'I' for Inactive)
REMARK    1  A    between atoms: N_1  and  C_20
REMARK    2  A    between atoms: C_2  and  N_8
REMARK    3  A    between atoms: C_2  and  C_17
REMARK    4  A    between atoms: C_20  and  C_21
REMARK    5  A    between atoms: C_21  and  C_22
REMARK    6  A    between atoms: C_22  and  N_24
REMARK                            x       y       z     vdW  Elec       q    Type
REMARK                         _______ _______ _______ _____ _____    ______ ____
ROOT
ATOM      1  N   UNL     1      31.387 -10.309 -22.021  0.00  0.00    +0.387 N 
ATOM      2  C   UNL     1      32.575  -7.689 -22.621  0.00  0.00    +0.024 C 
ATOM      3  C   UNL     1      32.191  -8.690 -23.716  0.00  0.00    -0.033 C 
ATOM      4  C   UNL     1      31.772  -7.958 -21.342  0.00  0.00    -0.033 C 
ATOM      5  C   UNL     1      32.231 -10.137 -23.211  0.00  0.00    -0.079 C 
ATOM      6  C   UNL     1      31.829  -9.433 -20.928  0.00  0.00    -0.079 C 
ATOM      7  H   UNL     1      30.434 -10.045 -22.271  0.00  0.00    -0.080 HD
ENDROOT
BRANCH   2   8
ATOM      8  N   UNL     1      32.325  -6.324 -23.085  0.00  0.00    +0.395 N 
ATOM      9  C   UNL     1      31.068  -5.811 -22.522  0.00  0.00    -0.077 C 
ATOM     10  C   UNL     1      32.308  -6.276 -24.555  0.00  0.00    -0.077 C 
ATOM     11  C   UNL     1      30.817  -4.366 -22.958  0.00  0.00    -0.023 C 
ATOM     12  C   UNL     1      32.097  -4.847 -25.057  0.00  0.00    -0.023 C 
ATOM     13  C   UNL     1      30.826  -4.236 -24.477  0.00  0.00    -0.004 C 
ATOM     14  H   UNL     1      33.084  -5.724 -22.760  0.00  0.00    -0.079 HD
ENDBRANCH   2   8
BRANCH   2  17
ATOM     15  O   UNL     1      34.871  -8.057 -23.207  0.00  0.00    -0.277 OA
ATOM     16  N   UNL     1      34.386  -7.453 -21.041  0.00  0.00    -0.330 N 
ATOM     17  C   UNL     1      34.055  -7.751 -22.341  0.00  0.00    +0.201 C 
ATOM     18  H   UNL     1      35.329  -7.465 -20.757  0.00  0.00    +0.145 HD
ATOM     19  H   UNL     1      33.681  -7.228 -20.392  0.00  0.00    +0.145 HD
ENDBRANCH   2  17
BRANCH   1  20
ATOM     20  C   UNL     1      31.389 -11.707 -21.590  0.00  0.00    -0.076 C 
BRANCH  20  21
ATOM     21  C   UNL     1      31.959 -12.638 -22.663  0.00  0.00    -0.001 C 
BRANCH  21  22
ATOM     22  C   UNL     1      33.133 -13.500 -22.199  0.00  0.00    +0.093 C 
BRANCH  22  24
ATOM     23 CL   UNL     1      34.968  -9.915 -25.709  0.00  0.00    -0.082 Cl
ATOM     24  N   UNL     1      33.667 -14.296 -23.315  0.00  0.00    -0.287 N 
ATOM     25  C   UNL     1      33.769 -13.578 -24.534  0.00  0.00    +0.048 C 
ATOM     26  C   UNL     1      34.143 -15.604 -23.023  0.00  0.00    +0.048 C 
ATOM     27  C   UNL     1      33.377 -14.143 -25.758  0.00  0.00    -0.008 C 
ATOM     28  C   UNL     1      34.305 -16.627 -23.989  0.00  0.00    -0.008 C 
ATOM     29  C   UNL     1      32.836 -15.544 -25.807  0.00  0.00    +0.032 C 
ATOM     30  C   UNL     1      33.933 -16.533 -25.454  0.00  0.00    +0.032 C 
ATOM     31  C   UNL     1      34.262 -12.255 -24.551  0.00  0.00    +0.026 C 
ATOM     32  C   UNL     1      34.536 -15.922 -21.695  0.00  0.00    +0.015 C 
ATOM     33  C   UNL     1      33.478 -13.401 -26.949  0.00  0.00    -0.002 C 
ATOM     34  C   UNL     1      34.864 -17.872 -23.606  0.00  0.00    -0.003 C 
ATOM     35  C   UNL     1      34.362 -11.524 -25.737  0.00  0.00    +0.059 C 
ATOM     36  C   UNL     1      35.066 -17.162 -21.334  0.00  0.00    +0.001 C 
ATOM     37  C   UNL     1      33.967 -12.098 -26.938  0.00  0.00    +0.011 C 
ATOM     38  C   UNL     1      35.236 -18.141 -22.295  0.00  0.00    -0.000 C 
ENDBRANCH  22  24
ENDBRANCH  21  22
ENDBRANCH  20  21
ENDBRANCH   1  20
TORSDOF 6
ENDMDL
MODEL 4
REMARK VINA RESULT:      -9.6      7.479     12.398
REMARK  Name = 2793
REMARK  6 active torsions:
REMARK  status: ('A' for Active; 'I' for Inactive)
REMARK    1  A    between atoms: N_1  and  C_20
REMARK    2  A    between atoms: C_2  and  N_8
REMARK    3  A    between atoms: C_2  and  C_17
REMARK    4  A    between atoms: C_20  and  C_21
REMARK    5  A    between atoms: C_21  and  C_22
REMARK    6  A    between atoms: C_22  and  N_24
REMARK                            x       y       z     vdW  Elec       q    Type
REMARK                         _______ _______ _______ _____ _____    ______ ____
ROOT
ATOM      1  N   UNL     1      35.172 -20.876 -20.412  0.00  0.00    +0.387 N 
ATOM      2  C   UNL     1      34.913 -18.309 -21.818  0.00  0.00    +0.024 C 
ATOM      3  C   UNL     1      36.273 -18.923 -21.465  0.00  0.00    -0.033 C 
ATOM      4  C   UNL     1      33.833 -19.398 -21.880  0.00  0.00    -0.033 C 
ATOM      5  C   UNL     1      36.191 -19.833 -20.234  0.00  0.00    -0.079 C 
ATOM      6  C   UNL     1      33.844 -20.289 -20.632  0.00  0.00    -0.079 C 
ATOM      7  H   UNL     1      35.419 -21.419 -21.239  0.00  0.00    -0.080 HD
ENDROOT
BRANCH   2   8
ATOM      8  N   UNL     1      34.997 -17.621 -23.106  0.00  0.00    +0.395 N 
ATOM      9  C   UNL     1      34.322 -16.317 -23.039  0.00  0.00    -0.077 C 
ATOM     10  C   UNL     1      34.432 -18.458 -24.175  0.00  0.00    -0.077 C 
ATOM     11  C   UNL     1      34.444 -15.563 -24.364  0.00  0.00    -0.023 C 
ATOM     12  C   UNL     1      34.558 -17.774 -25.536  0.00  0.00    -0.023 C 
ATOM     13  C   UNL     1      33.910 -16.393 -25.526  0.00  0.00    -0.004 C 
ATOM     14  H   UNL     1      35.980 -17.454 -23.324  0.00  0.00    -0.079 HD
ENDBRANCH   2   8
BRANCH   2  17
ATOM     15  O   UNL     1      35.381 -16.613 -20.188  0.00  0.00    -0.277 OA
ATOM     16  N   UNL     1      33.180 -17.069 -20.682  0.00  0.00    -0.330 N 
ATOM     17  C   UNL     1      34.536 -17.244 -20.820  0.00  0.00    +0.201 C 
ATOM     18  H   UNL     1      32.832 -16.396 -20.054  0.00  0.00    +0.145 HD
ATOM     19  H   UNL     1      32.556 -17.618 -21.209  0.00  0.00    +0.145 HD
ENDBRANCH   2  17
BRANCH   1  20
ATOM     20  C   UNL     1      35.150 -21.771 -19.254  0.00  0.00    -0.076 C 
BRANCH  20  21
ATOM     21  C   UNL     1      33.724 -22.051 -18.773  0.00  0.00    -0.001 C 
BRANCH  21  22
ATOM     22  C   UNL     1      33.521 -23.438 -18.161  0.00  0.00    +0.093 C 
BRANCH  22  24
ATOM     23 CL   UNL     1      38.105 -21.307 -16.435  0.00  0.00    -0.082 Cl
ATOM     24  N   UNL     1      33.373 -23.345 -16.700  0.00  0.00    -0.287 N 
ATOM     25  C   UNL     1      34.606 -23.257 -16.004  0.00  0.00    +0.048 C 
ATOM     26  C   UNL     1      32.058 -23.208 -16.178  0.00  0.00    +0.048 C 
ATOM     27  C   UNL     1      34.846 -23.994 -14.832  0.00  0.00    -0.008 C 
ATOM     28  C   UNL     1      31.696 -23.505 -14.841  0.00  0.00    -0.008 C 
ATOM     29  C   UNL     1      33.786 -24.903 -14.279  0.00  0.00    +0.032 C 
ATOM     30  C   UNL     1      32.610 -24.081 -13.779  0.00  0.00    +0.032 C 
ATOM     31  C   UNL     1      35.644 -22.427 -16.479  0.00  0.00    +0.026 C 
ATOM     32  C   UNL     1      31.026 -22.698 -17.012  0.00  0.00    +0.015 C 
ATOM     33  C   UNL     1      36.083 -23.896 -14.172  0.00  0.00    -0.002 C 
ATOM     34  C   UNL     1      30.372 -23.257 -14.399  0.00  0.00    -0.003 C 
ATOM     35  C   UNL     1      36.869 -22.332 -15.817  0.00  0.00    +0.059 C 
ATOM     36  C   UNL     1      29.722 -22.480 -16.563  0.00  0.00    +0.001 C 
ATOM     37  C   UNL     1      37.090 -23.069 -14.662  0.00  0.00    +0.011 C 
ATOM     38  C   UNL     1      29.394 -22.756 -15.249  0.00  0.00    -0.000 C 
ENDBRANCH  22  24
ENDBRANCH  21  22
ENDBRANCH  20  21
ENDBRANCH   1  20
TORSDOF 6
ENDMDL
MODEL 5
REMARK VINA RESULT:      -9.3      1.859      3.519
REMARK  Name = 2793
REMARK  6 active torsions:
REMARK  status: ('A' for Active; 'I' for Inactive)
REMARK    1  A    between atoms: N_1  and  C_20
REMARK    2  A    between atoms: C_2  and  N_8
REMARK    3  A    between atoms: C_2  and  C_17
REMARK    4  A    between atoms: C_20  and  C_21
REMARK    5  A    between atoms: C_21  and  C_22
REMARK    6  A    between atoms: C_22  and  N_24
REMARK                            x       y       z     vdW  Elec       q    Type
REMARK                         _______ _______ _______ _____ _____    ______ ____
ROOT
ATOM      1  N   UNL     1      34.046  -9.825 -24.768  0.00  0.00    +0.387 N 
ATOM      2  C   UNL     1      33.093  -7.552 -23.168  0.00  0.00    +0.024 C 
ATOM      3  C   UNL     1      34.475  -7.572 -23.831  0.00  0.00    -0.033 C 
ATOM      4  C   UNL     1      32.138  -8.513 -23.889  0.00  0.00    -0.033 C 
ATOM      5  C   UNL     1      35.002  -8.999 -24.018  0.00  0.00    -0.079 C 
ATOM      6  C   UNL     1      32.755  -9.904 -24.073  0.00  0.00    -0.079 C 
ATOM      7  H   UNL     1      33.891  -9.382 -25.673  0.00  0.00    -0.080 HD
ENDROOT
BRANCH   2   8
ATOM      8  N   UNL     1      32.547  -6.195 -23.198  0.00  0.00    +0.395 N 
ATOM      9  C   UNL     1      31.210  -6.165 -22.587  0.00  0.00    -0.077 C 
ATOM     10  C   UNL     1      32.513  -5.684 -24.576  0.00  0.00    -0.077 C 
ATOM     11  C   UNL     1      30.645  -4.743 -22.565  0.00  0.00    -0.023 C 
ATOM     12  C   UNL     1      31.991  -4.248 -24.619  0.00  0.00    -0.023 C 
ATOM     13  C   UNL     1      30.618  -4.136 -23.964  0.00  0.00    -0.004 C 
ATOM     14  H   UNL     1      33.155  -5.585 -22.651  0.00  0.00    -0.079 HD
ENDBRANCH   2   8
BRANCH   2  17
ATOM     15  O   UNL     1      33.970  -7.324 -20.947  0.00  0.00    -0.277 OA
ATOM     16  N   UNL     1      32.377  -8.940 -21.326  0.00  0.00    -0.330 N 
ATOM     17  C   UNL     1      33.199  -7.907 -21.707  0.00  0.00    +0.201 C 
ATOM     18  H   UNL     1      32.372  -9.247 -20.390  0.00  0.00    +0.145 HD
ATOM     19  H   UNL     1      31.793  -9.374 -21.989  0.00  0.00    +0.145 HD
ENDBRANCH   2  17
BRANCH   1  20
ATOM     20  C   UNL     1      34.592 -11.164 -24.990  0.00  0.00    -0.076 C 
BRANCH  20  21
ATOM     21  C   UNL     1      33.858 -12.226 -24.166  0.00  0.00    -0.001 C 
BRANCH  21  22
ATOM     22  C   UNL     1      34.125 -13.666 -24.604  0.00  0.00    +0.093 C 
BRANCH  22  24
ATOM     23 CL   UNL     1      30.203 -11.420 -21.756  0.00  0.00    -0.082 Cl
ATOM     24  N   UNL     1      33.873 -14.603 -23.497  0.00  0.00    -0.287 N 
ATOM     25  C   UNL     1      33.227 -14.009 -22.382  0.00  0.00    +0.048 C 
ATOM     26  C   UNL     1      34.158 -15.977 -23.718  0.00  0.00    +0.048 C 
ATOM     27  C   UNL     1      33.633 -14.279 -21.065  0.00  0.00    -0.008 C 
ATOM     28  C   UNL     1      34.360 -16.926 -22.686  0.00  0.00    -0.008 C 
ATOM     29  C   UNL     1      34.776 -15.218 -20.802  0.00  0.00    +0.032 C 
ATOM     30  C   UNL     1      34.384 -16.631 -21.201  0.00  0.00    +0.032 C 
ATOM     31  C   UNL     1      32.152 -13.112 -22.566  0.00  0.00    +0.026 C 
ATOM     32  C   UNL     1      34.202 -16.474 -25.049  0.00  0.00    +0.015 C 
ATOM     33  C   UNL     1      32.981 -13.665 -19.980  0.00  0.00    -0.002 C 
ATOM     34  C   UNL     1      34.559 -18.290 -23.014  0.00  0.00    -0.003 C 
ATOM     35  C   UNL     1      31.508 -12.508 -21.484  0.00  0.00    +0.059 C 
ATOM     36  C   UNL     1      34.420 -17.820 -25.353  0.00  0.00    +0.001 C 
ATOM     37  C   UNL     1      31.924 -12.784 -20.189  0.00  0.00    +0.011 C 
ATOM     38  C   UNL     1      34.594 -18.734 -24.330  0.00  0.00    -0.000 C 
ENDBRANCH  22  24
ENDBRANCH  21  22
ENDBRANCH  20  21
ENDBRANCH   1  20
TORSDOF 6
ENDMDL
MODEL 6
REMARK VINA RESULT:      -9.2      8.310     13.148
REMARK  Name = 2793
REMARK  6 active torsions:
REMARK  status: ('A' for Active; 'I' for Inactive)
REMARK    1  A    between atoms: N_1  and  C_20
REMARK    2  A    between atoms: C_2  and  N_8
REMARK    3  A    between atoms: C_2  and  C_17
REMARK    4  A    between atoms: C_20  and  C_21
REMARK    5  A    between atoms: C_21  and  C_22
REMARK    6  A    between atoms: C_22  and  N_24
REMARK                            x       y       z     vdW  Elec       q    Type
REMARK                         _______ _______ _______ _____ _____    ______ ____
ROOT
ATOM      1  N   UNL     1      35.885 -20.408 -19.448  0.00  0.00    +0.387 N 
ATOM      2  C   UNL     1      34.815 -18.538 -21.445  0.00  0.00    +0.024 C 
ATOM      3  C   UNL     1      33.928 -19.536 -20.692  0.00  0.00    -0.033 C 
ATOM      4  C   UNL     1      36.097 -18.254 -20.652  0.00  0.00    -0.033 C 
ATOM      5  C   UNL     1      34.710 -20.778 -20.249  0.00  0.00    -0.079 C 
ATOM      6  C   UNL     1      36.796 -19.545 -20.211  0.00  0.00    -0.079 C 
ATOM      7  H   UNL     1      35.560 -19.884 -18.636  0.00  0.00    -0.080 HD
ENDROOT
BRANCH   2   8
ATOM      8  N   UNL     1      34.082 -17.291 -21.665  0.00  0.00    +0.395 N 
ATOM      9  C   UNL     1      35.009 -16.151 -21.717  0.00  0.00    -0.077 C 
ATOM     10  C   UNL     1      33.064 -17.101 -20.622  0.00  0.00    -0.077 C 
ATOM     11  C   UNL     1      34.264 -14.845 -21.997  0.00  0.00    -0.023 C 
ATOM     12  C   UNL     1      32.256 -15.826 -20.866  0.00  0.00    -0.023 C 
ATOM     13  C   UNL     1      33.162 -14.605 -20.970  0.00  0.00    -0.004 C 
ATOM     14  H   UNL     1      33.604 -17.347 -22.565  0.00  0.00    -0.079 HD
ENDBRANCH   2   8
BRANCH   2  17
ATOM     15  O   UNL     1      34.376 -19.778 -23.451  0.00  0.00    -0.277 OA
ATOM     16  N   UNL     1      36.378 -18.656 -23.282  0.00  0.00    -0.330 N 
ATOM     17  C   UNL     1      35.146 -19.055 -22.822  0.00  0.00    +0.201 C 
ATOM     18  H   UNL     1      36.688 -18.941 -24.172  0.00  0.00    +0.145 HD
ATOM     19  H   UNL     1      36.953 -18.086 -22.721  0.00  0.00    +0.145 HD
ENDBRANCH   2  17
BRANCH   1  20
ATOM     20  C   UNL     1      36.584 -21.606 -18.982  0.00  0.00    -0.076 C 
BRANCH  20  21
ATOM     21  C   UNL     1      36.010 -22.130 -17.663  0.00  0.00    -0.001 C 
BRANCH  21  22
ATOM     22  C   UNL     1      36.963 -22.033 -16.472  0.00  0.00    +0.093 C 
BRANCH  22  24
ATOM     23 CL   UNL     1      31.842 -23.328 -17.274  0.00  0.00    -0.082 Cl
ATOM     24  N   UNL     1      36.679 -23.092 -15.491  0.00  0.00    -0.287 N 
ATOM     25  C   UNL     1      35.298 -23.250 -15.203  0.00  0.00    +0.048 C 
ATOM     26  C   UNL     1      37.763 -23.908 -15.068  0.00  0.00    +0.048 C 
ATOM     27  C   UNL     1      34.834 -23.426 -13.889  0.00  0.00    -0.008 C 
ATOM     28  C   UNL     1      37.767 -24.675 -13.877  0.00  0.00    -0.008 C 
ATOM     29  C   UNL     1      35.802 -23.454 -12.741  0.00  0.00    +0.032 C 
ATOM     30  C   UNL     1      36.672 -24.697 -12.831  0.00  0.00    +0.032 C 
ATOM     31  C   UNL     1      34.339 -23.224 -16.239  0.00  0.00    +0.026 C 
ATOM     32  C   UNL     1      38.913 -24.021 -15.895  0.00  0.00    +0.015 C 
ATOM     33  C   UNL     1      33.458 -23.567 -13.634  0.00  0.00    -0.002 C 
ATOM     34  C   UNL     1      38.868 -25.518 -13.588  0.00  0.00    -0.003 C 
ATOM     35  C   UNL     1      32.975 -23.367 -15.979  0.00  0.00    +0.059 C 
ATOM     36  C   UNL     1      39.998 -24.843 -15.582  0.00  0.00    +0.001 C 
ATOM     37  C   UNL     1      32.533 -23.537 -14.674  0.00  0.00    +0.011 C 
ATOM     38  C   UNL     1      39.974 -25.599 -14.426  0.00  0.00    -0.000 C 
ENDBRANCH  22  24
ENDBRANCH  21  22
ENDBRANCH  20  21
ENDBRANCH   1  20
TORSDOF 6
ENDMDL
MODEL 7
REMARK VINA RESULT:      -9.2      2.498      8.692
REMARK  Name = 2793
REMARK  6 active torsions:
REMARK  status: ('A' for Active; 'I' for Inactive)
REMARK    1  A    between atoms: N_1  and  C_20
REMARK    2  A    between atoms: C_2  and  N_8
REMARK    3  A    between atoms: C_2  and  C_17
REMARK    4  A    between atoms: C_20  and  C_21
REMARK    5  A    between atoms: C_21  and  C_22
REMARK    6  A    between atoms: C_22  and  N_24
REMARK                            x       y       z     vdW  Elec       q    Type
REMARK                         _______ _______ _______ _____ _____    ______ ____
ROOT
ATOM      1  N   UNL     1      32.213 -13.328 -21.975  0.00  0.00    +0.387 N 
ATOM      2  C   UNL     1      34.102 -15.576 -22.074  0.00  0.00    +0.024 C 
ATOM      3  C   UNL     1      32.601 -15.771 -21.837  0.00  0.00    -0.033 C 
ATOM      4  C   UNL     1      34.364 -14.245 -22.791  0.00  0.00    -0.033 C 
ATOM      5  C   UNL     1      31.957 -14.541 -21.187  0.00  0.00    -0.079 C 
ATOM      6  C   UNL     1      33.653 -13.073 -22.103  0.00  0.00    -0.079 C 
ATOM      7  H   UNL     1      31.834 -13.475 -22.910  0.00  0.00    -0.080 HD
ENDROOT
BRANCH   2   8
ATOM      8  N   UNL     1      34.627 -16.682 -22.876  0.00  0.00    +0.395 N 
ATOM      9  C   UNL     1      34.342 -16.465 -24.301  0.00  0.00    -0.077 C 
ATOM     10  C   UNL     1      34.072 -17.962 -22.412  0.00  0.00    -0.077 C 
ATOM     11  C   UNL     1      34.927 -17.588 -25.159  0.00  0.00    -0.023 C 
ATOM     12  C   UNL     1      34.649 -19.133 -23.207  0.00  0.00    -0.023 C 
ATOM     13  C   UNL     1      34.422 -18.953 -24.704  0.00  0.00    -0.004 C 
ATOM     14  H   UNL     1      35.640 -16.718 -22.760  0.00  0.00    -0.079 HD
ENDBRANCH   2   8
BRANCH   2  17
ATOM     15  O   UNL     1      35.169 -14.619 -20.151  0.00  0.00    -0.277 OA
ATOM     16  N   UNL     1      35.171 -16.910 -20.368  0.00  0.00    -0.330 N 
ATOM     17  C   UNL     1      34.858 -15.634 -20.771  0.00  0.00    +0.201 C 
ATOM     18  H   UNL     1      35.663 -17.054 -19.527  0.00  0.00    +0.145 HD
ATOM     19  H   UNL     1      34.903 -17.680 -20.919  0.00  0.00    +0.145 HD
ENDBRANCH   2  17
BRANCH   1  20
ATOM     20  C   UNL     1      31.541 -12.176 -21.373  0.00  0.00    -0.076 C 
BRANCH  20  21
ATOM     21  C   UNL     1      31.538 -10.961 -22.306  0.00  0.00    -0.001 C 
BRANCH  21  22
ATOM     22  C   UNL     1      32.317  -9.755 -21.780  0.00  0.00    +0.093 C 
BRANCH  22  24
ATOM     23 CL   UNL     1      33.371 -13.114 -25.799  0.00  0.00    -0.082 Cl
ATOM     24  N   UNL     1      32.757  -8.896 -22.891  0.00  0.00    -0.287 N 
ATOM     25  C   UNL     1      33.521  -9.578 -23.874  0.00  0.00    +0.048 C 
ATOM     26  C   UNL     1      32.262  -7.564 -22.931  0.00  0.00    +0.048 C 
ATOM     27  C   UNL     1      34.683  -9.015 -24.426  0.00  0.00    -0.008 C 
ATOM     28  C   UNL     1      32.867  -6.510 -23.657  0.00  0.00    -0.008 C 
ATOM     29  C   UNL     1      35.151  -7.658 -23.984  0.00  0.00    +0.032 C 
ATOM     30  C   UNL     1      34.162  -6.598 -24.439  0.00  0.00    +0.032 C 
ATOM     31  C   UNL     1      33.136 -10.859 -24.323  0.00  0.00    +0.026 C 
ATOM     32  C   UNL     1      31.057  -7.248 -22.246  0.00  0.00    +0.015 C 
ATOM     33  C   UNL     1      35.426  -9.720 -25.389  0.00  0.00    -0.002 C 
ATOM     34  C   UNL     1      32.247  -5.236 -23.696  0.00  0.00    -0.003 C 
ATOM     35  C   UNL     1      33.877 -11.553 -25.282  0.00  0.00    +0.059 C 
ATOM     36  C   UNL     1      30.473  -5.980 -22.279  0.00  0.00    +0.001 C 
ATOM     37  C   UNL     1      35.025 -10.983 -25.815  0.00  0.00    +0.011 C 
ATOM     38  C   UNL     1      31.067  -4.971 -23.011  0.00  0.00    -0.000 C 
ENDBRANCH  22  24
ENDBRANCH  21  22
ENDBRANCH  20  21
ENDBRANCH   1  20
TORSDOF 6
ENDMDL
MODEL 8
REMARK VINA RESULT:      -8.9      2.765      9.100
REMARK  Name = 2793
REMARK  6 active torsions:
REMARK  status: ('A' for Active; 'I' for Inactive)
REMARK    1  A    between atoms: N_1  and  C_20
REMARK    2  A    between atoms: C_2  and  N_8
REMARK    3  A    between atoms: C_2  and  C_17
REMARK    4  A    between atoms: C_20  and  C_21
REMARK    5  A    between atoms: C_21  and  C_22
REMARK    6  A    between atoms: C_22  and  N_24
REMARK                            x       y       z     vdW  Elec       q    Type
REMARK                         _______ _______ _______ _____ _____    ______ ____
ROOT
ATOM      1  N   UNL     1      32.970 -14.000 -20.867  0.00  0.00    +0.387 N 
ATOM      2  C   UNL     1      34.115 -16.456 -22.005  0.00  0.00    +0.024 C 
ATOM      3  C   UNL     1      34.857 -15.603 -20.969  0.00  0.00    -0.033 C 
ATOM      4  C   UNL     1      32.602 -16.214 -21.914  0.00  0.00    -0.033 C 
ATOM      5  C   UNL     1      34.425 -14.133 -21.020  0.00  0.00    -0.079 C 
ATOM      6  C   UNL     1      32.258 -14.720 -21.930  0.00  0.00    -0.079 C 
ATOM      7  H   UNL     1      32.709 -14.417 -19.974  0.00  0.00    -0.080 HD
ENDROOT
BRANCH   2   8
ATOM      8  N   UNL     1      34.405 -17.872 -21.782  0.00  0.00    +0.395 N 
ATOM      9  C   UNL     1      33.327 -18.503 -21.007  0.00  0.00    -0.077 C 
ATOM     10  C   UNL     1      35.704 -18.032 -21.113  0.00  0.00    -0.077 C 
ATOM     11  C   UNL     1      33.590 -19.996 -20.808  0.00  0.00    -0.023 C 
ATOM     12  C   UNL     1      36.045 -19.510 -20.917  0.00  0.00    -0.023 C 
ATOM     13  C   UNL     1      34.945 -20.237 -20.151  0.00  0.00    -0.004 C 
ATOM     14  H   UNL     1      34.457 -18.341 -22.687  0.00  0.00    -0.079 HD
ENDBRANCH   2   8
BRANCH   2  17
ATOM     15  O   UNL     1      35.220 -15.123 -23.664  0.00  0.00    -0.277 OA
ATOM     16  N   UNL     1      34.321 -17.139 -24.312  0.00  0.00    -0.330 N 
ATOM     17  C   UNL     1      34.617 -16.159 -23.395  0.00  0.00    +0.201 C 
ATOM     18  H   UNL     1      34.607 -17.039 -25.249  0.00  0.00    +0.145 HD
ATOM     19  H   UNL     1      33.822 -17.940 -24.033  0.00  0.00    +0.145 HD
ENDBRANCH   2  17
BRANCH   1  20
ATOM     20  C   UNL     1      32.583 -12.589 -20.856  0.00  0.00    -0.076 C 
BRANCH  20  21
ATOM     21  C   UNL     1      32.878 -11.904 -22.193  0.00  0.00    -0.001 C 
BRANCH  21  22
ATOM     22  C   UNL     1      31.936 -10.749 -22.536  0.00  0.00    +0.093 C 
BRANCH  22  24
ATOM     23 CL   UNL     1      33.198 -13.343 -27.032  0.00  0.00    -0.082 Cl
ATOM     24  N   UNL     1      32.619  -9.751 -23.374  0.00  0.00    -0.287 N 
ATOM     25  C   UNL     1      33.440 -10.317 -24.383  0.00  0.00    +0.048 C 
ATOM     26  C   UNL     1      32.278  -8.384 -23.183  0.00  0.00    +0.048 C 
ATOM     27  C   UNL     1      34.723  -9.815 -24.657  0.00  0.00    -0.008 C 
ATOM     28  C   UNL     1      33.089  -7.296 -23.586  0.00  0.00    -0.008 C 
ATOM     29  C   UNL     1      35.263  -8.648 -23.880  0.00  0.00    +0.032 C 
ATOM     30  C   UNL     1      34.466  -7.397 -24.208  0.00  0.00    +0.032 C 
ATOM     31  C   UNL     1      32.992 -11.419 -25.142  0.00  0.00    +0.026 C 
ATOM     32  C   UNL     1      31.027  -8.054 -22.594  0.00  0.00    +0.015 C 
ATOM     33  C   UNL     1      35.519 -10.405 -25.655  0.00  0.00    -0.002 C 
ATOM     34  C   UNL     1      32.619  -5.969 -23.421  0.00  0.00    -0.003 C 
ATOM     35  C   UNL     1      33.786 -11.999 -26.133  0.00  0.00    +0.059 C 
ATOM     36  C   UNL     1      30.590  -6.739 -22.421  0.00  0.00    +0.001 C 
ATOM     37  C   UNL     1      35.053 -11.492 -26.389  0.00  0.00    +0.011 C 
ATOM     38  C   UNL     1      31.387  -5.691 -22.841  0.00  0.00    -0.000 C 
ENDBRANCH  22  24
ENDBRANCH  21  22
ENDBRANCH  20  21
ENDBRANCH   1  20
TORSDOF 6
ENDMDL
MODEL 9
REMARK VINA RESULT:      -8.7      8.272     12.883
REMARK  Name = 2793
REMARK  6 active torsions:
REMARK  status: ('A' for Active; 'I' for Inactive)
REMARK    1  A    between atoms: N_1  and  C_20
REMARK    2  A    between atoms: C_2  and  N_8
REMARK    3  A    between atoms: C_2  and  C_17
REMARK    4  A    between atoms: C_20  and  C_21
REMARK    5  A    between atoms: C_21  and  C_22
REMARK    6  A    between atoms: C_22  and  N_24
REMARK                            x       y       z     vdW  Elec       q    Type
REMARK                         _______ _______ _______ _____ _____    ______ ____
ROOT
ATOM      1  N   UNL     1      34.462 -20.682 -19.749  0.00  0.00    +0.387 N 
ATOM      2  C   UNL     1      34.893 -18.412 -21.564  0.00  0.00    +0.024 C 
ATOM      3  C   UNL     1      33.506 -18.790 -21.031  0.00  0.00    -0.033 C 
ATOM      4  C   UNL     1      35.989 -18.944 -20.631  0.00  0.00    -0.033 C 
ATOM      5  C   UNL     1      33.408 -20.281 -20.691  0.00  0.00    -0.079 C 
ATOM      6  C   UNL     1      35.796 -20.430 -20.307  0.00  0.00    -0.079 C 
ATOM      7  H   UNL     1      34.361 -20.118 -18.905  0.00  0.00    -0.080 HD
ENDROOT
BRANCH   2   8
ATOM      8  N   UNL     1      35.002 -16.958 -21.678  0.00  0.00    +0.395 N 
ATOM      9  C   UNL     1      34.408 -16.303 -20.504  0.00  0.00    -0.077 C 
ATOM     10  C   UNL     1      34.373 -16.490 -22.922  0.00  0.00    -0.077 C 
ATOM     11  C   UNL     1      34.559 -14.783 -20.584  0.00  0.00    -0.023 C 
ATOM     12  C   UNL     1      34.523 -14.977 -23.081  0.00  0.00    -0.023 C 
ATOM     13  C   UNL     1      33.960 -14.233 -21.875  0.00  0.00    -0.004 C 
ATOM     14  H   UNL     1      35.991 -16.706 -21.712  0.00  0.00    -0.079 HD
ENDBRANCH   2   8
BRANCH   2  17
ATOM     15  O   UNL     1      34.183 -19.502 -23.578  0.00  0.00    -0.277 OA
ATOM     16  N   UNL     1      36.352 -18.741 -23.460  0.00  0.00    -0.330 N 
ATOM     17  C   UNL     1      35.086 -18.938 -22.963  0.00  0.00    +0.201 C 
ATOM     18  H   UNL     1      36.578 -19.049 -24.368  0.00  0.00    +0.145 HD
ATOM     19  H   UNL     1      37.033 -18.293 -22.909  0.00  0.00    +0.145 HD
ENDBRANCH   2  17
BRANCH   1  20
ATOM     20  C   UNL     1      34.316 -22.093 -19.388  0.00  0.00    -0.076 C 
BRANCH  20  21
ATOM     21  C   UNL     1      33.935 -22.272 -17.916  0.00  0.00    -0.001 C 
BRANCH  21  22
ATOM     22  C   UNL     1      33.292 -23.620 -17.586  0.00  0.00    +0.093 C 
BRANCH  22  24
ATOM     23 CL   UNL     1      28.058 -24.664 -17.356  0.00  0.00    -0.082 Cl
ATOM     24  N   UNL     1      32.984 -23.711 -16.150  0.00  0.00    -0.287 N 
ATOM     25  C   UNL     1      31.612 -23.514 -15.846  0.00  0.00    +0.048 C 
ATOM     26  C   UNL     1      34.028 -24.120 -15.276  0.00  0.00    +0.048 C 
ATOM     27  C   UNL     1      31.205 -22.717 -14.762  0.00  0.00    -0.008 C 
ATOM     28  C   UNL     1      34.039 -23.881 -13.880  0.00  0.00    -0.008 C 
ATOM     29  C   UNL     1      32.226 -22.049 -13.887  0.00  0.00    +0.032 C 
ATOM     30  C   UNL     1      33.000 -23.098 -13.105  0.00  0.00    +0.032 C 
ATOM     31  C   UNL     1      30.606 -24.108 -16.637  0.00  0.00    +0.026 C 
ATOM     32  C   UNL     1      35.123 -24.860 -15.798  0.00  0.00    +0.015 C 
ATOM     33  C   UNL     1      29.837 -22.530 -14.493  0.00  0.00    -0.002 C 
ATOM     34  C   UNL     1      35.090 -24.402 -13.086  0.00  0.00    -0.003 C 
ATOM     35  C   UNL     1      29.250 -23.920 -16.363  0.00  0.00    +0.059 C 
ATOM     36  C   UNL     1      36.162 -25.348 -15.001  0.00  0.00    +0.001 C 
ATOM     37  C   UNL     1      28.865 -23.127 -15.290  0.00  0.00    +0.011 C 
ATOM     38  C   UNL     1      36.143 -25.122 -13.638  0.00  0.00    -0.000 C 
ENDBRANCH  22  24
ENDBRANCH  21  22
ENDBRANCH  20  21
ENDBRANCH   1  20
TORSDOF 6
ENDMDL
