MODEL 1
REMARK VINA RESULT:     -10.4      0.000      0.000
REMARK  Name = 56959
REMARK  10 active torsions:
REMARK  status: ('A' for Active; 'I' for Inactive)
REMARK    1  A    between atoms: N_1  and  C_9
REMARK    2  A    between atoms: N_2  and  C_23
REMARK    3  A    between atoms: C_9  and  C_10
REMARK    4  A    between atoms: C_10  and  O_11
REMARK    5  A    between atoms: C_10  and  C_13
REMARK    6  A    between atoms: C_13  and  O_14
REMARK    7  A    between atoms: O_14  and  C_15
REMARK    8  A    between atoms: C_16  and  O_21
REMARK    9  A    between atoms: C_23  and  C_26
REMARK   10  A    between atoms: N_25  and  C_28
REMARK                            x       y       z     vdW  Elec       q    Type
REMARK                         _______ _______ _______ _____ _____    ______ ____
ROOT
ATOM      1  N   UNL     1      33.875 -14.946 -25.057  0.00  0.00    +0.386 N 
ATOM      2  N   UNL     1      34.862 -17.090 -23.389  0.00  0.00    +0.390 N 
ATOM      3  C   UNL     1      33.820 -14.858 -23.593  0.00  0.00    -0.101 C 
ATOM      4  C   UNL     1      33.797 -16.346 -25.491  0.00  0.00    -0.101 C 
ATOM      5  C   UNL     1      34.938 -15.690 -22.955  0.00  0.00    -0.100 C 
ATOM      6  C   UNL     1      34.916 -17.177 -24.854  0.00  0.00    -0.100 C 
ATOM      7  H   UNL     1      34.767 -14.562 -25.369  0.00  0.00    -0.080 HD
ATOM      8  H   UNL     1      33.971 -17.475 -23.077  0.00  0.00    -0.079 HD
ENDROOT
BRANCH   1   9
ATOM      9  C   UNL     1      32.808 -14.154 -25.665  0.00  0.00    -0.044 C 
BRANCH   9  10
ATOM     10  C   UNL     1      33.327 -13.252 -26.787  0.00  0.00    +0.133 C 
BRANCH  10  11
ATOM     11  O   UNL     1      32.256 -13.021 -27.707  0.00  0.00    -0.383 OA
ATOM     12  H   UNL     1      31.923 -12.116 -27.594  0.00  0.00    +0.210 HD
ENDBRANCH  10  11
BRANCH  10  13
ATOM     13  C   UNL     1      33.840 -11.903 -26.289  0.00  0.00    +0.232 C 
BRANCH  13  14
ATOM     14  O   UNL     1      33.832 -11.905 -24.864  0.00  0.00    -0.470 OA
BRANCH  14  15
ATOM     15  C   UNL     1      33.828 -10.682 -24.247  0.00  0.00    +0.172 C 
ATOM     16  C   UNL     1      32.852 -10.368 -23.303  0.00  0.00    +0.172 C 
ATOM     17  C   UNL     1      34.811  -9.747 -24.572  0.00  0.00    +0.040 C 
ATOM     18  C   UNL     1      32.859  -9.119 -22.682  0.00  0.00    +0.040 C 
ATOM     19  C   UNL     1      34.818  -8.498 -23.952  0.00  0.00    +0.003 C 
ATOM     20  C   UNL     1      33.842  -8.183 -23.007  0.00  0.00    +0.003 C 
BRANCH  16  21
ATOM     21  O   UNL     1      31.888 -11.273 -22.976  0.00  0.00    -0.468 OA
ATOM     22  C   UNL     1      31.620 -11.463 -21.588  0.00  0.00    +0.253 C 
ENDBRANCH  16  21
ENDBRANCH  14  15
ENDBRANCH  13  14
ENDBRANCH  10  13
ENDBRANCH   9  10
ENDBRANCH   1   9
BRANCH   2  23
ATOM     23  C   UNL     1      35.932 -17.880 -22.782  0.00  0.00    +0.010 C 
BRANCH  23  26
ATOM     24  O   UNL     1      35.387 -17.668 -20.441  0.00  0.00    -0.277 OA
ATOM     25  N   UNL     1      35.182 -19.753 -21.501  0.00  0.00    -0.286 N 
ATOM     26  C   UNL     1      35.475 -18.393 -21.427  0.00  0.00    +0.205 C 
ATOM     27  H   UNL     1      35.306 -20.178 -22.381  0.00  0.00    +0.155 HD
BRANCH  25  28
ATOM     28  C   UNL     1      34.728 -20.596 -20.458  0.00  0.00    +0.042 C 
ATOM     29  C   UNL     1      35.643 -21.351 -19.724  0.00  0.00    -0.009 C 
ATOM     30  C   UNL     1      33.367 -20.670 -20.164  0.00  0.00    -0.009 C 
ATOM     31  C   UNL     1      35.196 -22.181 -18.695  0.00  0.00    -0.003 C 
ATOM     32  C   UNL     1      32.920 -21.499 -19.135  0.00  0.00    -0.003 C 
ATOM     33  C   UNL     1      37.108 -21.294 -20.015  0.00  0.00    +0.032 C 
ATOM     34  C   UNL     1      32.364 -19.873 -20.932  0.00  0.00    +0.032 C 
ATOM     35  C   UNL     1      33.834 -22.255 -18.401  0.00  0.00    -0.001 C 
ENDBRANCH  25  28
ENDBRANCH  23  26
ENDBRANCH   2  23
TORSDOF 10
ENDMDL
MODEL 2
REMARK VINA RESULT:     -10.2      1.937      3.076
REMARK  Name = 56959
REMARK  10 active torsions:
REMARK  status: ('A' for Active; 'I' for Inactive)
REMARK    1  A    between atoms: N_1  and  C_9
REMARK    2  A    between atoms: N_2  and  C_23
REMARK    3  A    between atoms: C_9  and  C_10
REMARK    4  A    between atoms: C_10  and  O_11
REMARK    5  A    between atoms: C_10  and  C_13
REMARK    6  A    between atoms: C_13  and  O_14
REMARK    7  A    between atoms: O_14  and  C_15
REMARK    8  A    between atoms: C_16  and  O_21
REMARK    9  A    between atoms: C_23  and  C_26
REMARK   10  A    between atoms: N_25  and  C_28
REMARK                            x       y       z     vdW  Elec       q    Type
REMARK                         _______ _______ _______ _____ _____    ______ ____
ROOT
ATOM      1  N   UNL     1      33.100 -13.751 -21.462  0.00  0.00    +0.386 N 
ATOM      2  N   UNL     1      34.167 -16.237 -22.479  0.00  0.00    +0.390 N 
ATOM      3  C   UNL     1      33.514 -14.830 -20.556  0.00  0.00    -0.101 C 
ATOM      4  C   UNL     1      32.653 -14.303 -22.746  0.00  0.00    -0.101 C 
ATOM      5  C   UNL     1      34.613 -15.686 -21.195  0.00  0.00    -0.100 C 
ATOM      6  C   UNL     1      33.753 -15.158 -23.385  0.00  0.00    -0.100 C 
ATOM      7  H   UNL     1      33.906 -13.149 -21.634  0.00  0.00    -0.080 HD
ATOM      8  H   UNL     1      33.362 -16.840 -22.308  0.00  0.00    -0.079 HD
ENDROOT
BRANCH   1   9
ATOM      9  C   UNL     1      32.051 -12.936 -20.853  0.00  0.00    -0.044 C 
BRANCH   9  10
ATOM     10  C   UNL     1      31.492 -11.896 -21.827  0.00  0.00    +0.133 C 
BRANCH  10  11
ATOM     11  O   UNL     1      30.179 -11.533 -21.388  0.00  0.00    -0.383 OA
ATOM     12  H   UNL     1      30.243 -10.819 -20.734  0.00  0.00    +0.210 HD
ENDBRANCH  10  11
BRANCH  10  13
ATOM     13  C   UNL     1      32.342 -10.630 -21.914  0.00  0.00    +0.232 C 
BRANCH  13  14
ATOM     14  O   UNL     1      32.632 -10.363 -23.283  0.00  0.00    -0.470 OA
BRANCH  14  15
ATOM     15  C   UNL     1      32.896  -9.061 -23.613  0.00  0.00    +0.172 C 
ATOM     16  C   UNL     1      34.178  -8.674 -24.003  0.00  0.00    +0.172 C 
ATOM     17  C   UNL     1      31.869  -8.118 -23.557  0.00  0.00    +0.040 C 
ATOM     18  C   UNL     1      34.433  -7.344 -24.336  0.00  0.00    +0.040 C 
ATOM     19  C   UNL     1      32.125  -6.788 -23.890  0.00  0.00    +0.003 C 
ATOM     20  C   UNL     1      33.407  -6.401 -24.279  0.00  0.00    +0.003 C 
BRANCH  16  21
ATOM     21  O   UNL     1      35.188  -9.586 -24.063  0.00  0.00    -0.468 OA
ATOM     22  C   UNL     1      35.383 -10.256 -25.307  0.00  0.00    +0.253 C 
ENDBRANCH  16  21
ENDBRANCH  14  15
ENDBRANCH  13  14
ENDBRANCH  10  13
ENDBRANCH   9  10
ENDBRANCH   1   9
BRANCH   2  23
ATOM     23  C   UNL     1      35.218 -17.051 -23.088  0.00  0.00    +0.010 C 
BRANCH  23  26
ATOM     24  O   UNL     1      34.894 -19.399 -23.543  0.00  0.00    -0.277 OA
ATOM     25  N   UNL     1      34.994 -18.644 -21.321  0.00  0.00    -0.286 N 
ATOM     26  C   UNL     1      35.014 -18.507 -22.708  0.00  0.00    +0.205 C 
ATOM     27  H   UNL     1      35.110 -17.817 -20.801  0.00  0.00    +0.155 HD
BRANCH  25  28
ATOM     28  C   UNL     1      34.827 -19.835 -20.574  0.00  0.00    +0.042 C 
ATOM     29  C   UNL     1      35.944 -20.530 -20.111  0.00  0.00    -0.009 C 
ATOM     30  C   UNL     1      33.545 -20.311 -20.300  0.00  0.00    -0.009 C 
ATOM     31  C   UNL     1      35.779 -21.703 -19.373  0.00  0.00    -0.003 C 
ATOM     32  C   UNL     1      33.380 -21.484 -19.562  0.00  0.00    -0.003 C 
ATOM     33  C   UNL     1      37.330 -20.045 -20.389  0.00  0.00    +0.032 C 
ATOM     34  C   UNL     1      32.330 -19.588 -20.782  0.00  0.00    +0.032 C 
ATOM     35  C   UNL     1      34.497 -22.180 -19.099  0.00  0.00    -0.001 C 
ENDBRANCH  25  28
ENDBRANCH  23  26
ENDBRANCH   2  23
TORSDOF 10
ENDMDL
MODEL 3
REMARK VINA RESULT:     -10.1      3.485     10.885
REMARK  Name = 56959
REMARK  10 active torsions:
REMARK  status: ('A' for Active; 'I' for Inactive)
REMARK    1  A    between atoms: N_1  and  C_9
REMARK    2  A    between atoms: N_2  and  C_23
REMARK    3  A    between atoms: C_9  and  C_10
REMARK    4  A    between atoms: C_10  and  O_11
REMARK    5  A    between atoms: C_10  and  C_13
REMARK    6  A    between atoms: C_13  and  O_14
REMARK    7  A    between atoms: O_14  and  C_15
REMARK    8  A    between atoms: C_16  and  O_21
REMARK    9  A    between atoms: C_23  and  C_26
REMARK   10  A    between atoms: N_25  and  C_28
REMARK                            x       y       z     vdW  Elec       q    Type
REMARK                         _______ _______ _______ _____ _____    ______ ____
ROOT
ATOM      1  N   UNL     1      35.182 -20.948 -20.374  0.00  0.00    +0.386 N 
ATOM      2  N   UNL     1      34.899 -18.238 -21.339  0.00  0.00    +0.390 N 
ATOM      3  C   UNL     1      33.879 -20.271 -20.372  0.00  0.00    -0.101 C 
ATOM      4  C   UNL     1      36.268 -19.971 -20.231  0.00  0.00    -0.101 C 
ATOM      5  C   UNL     1      33.813 -19.214 -21.481  0.00  0.00    -0.100 C 
ATOM      6  C   UNL     1      36.201 -18.915 -21.340  0.00  0.00    -0.100 C 
ATOM      7  H   UNL     1      35.295 -21.425 -21.269  0.00  0.00    -0.080 HD
ATOM      8  H   UNL     1      34.786 -17.759 -20.446  0.00  0.00    -0.079 HD
ENDROOT
BRANCH   1   9
ATOM      9  C   UNL     1      35.246 -21.954 -19.317  0.00  0.00    -0.044 C 
BRANCH   9  10
ATOM     10  C   UNL     1      33.949 -22.758 -19.208  0.00  0.00    +0.133 C 
BRANCH  10  11
ATOM     11  O   UNL     1      34.126 -23.990 -19.914  0.00  0.00    -0.383 OA
ATOM     12  H   UNL     1      33.842 -24.728 -19.352  0.00  0.00    +0.210 HD
ENDBRANCH  10  11
BRANCH  10  13
ATOM     13  C   UNL     1      33.555 -23.077 -17.767  0.00  0.00    +0.232 C 
BRANCH  13  14
ATOM     14  O   UNL     1      32.190 -22.716 -17.573  0.00  0.00    -0.470 OA
BRANCH  14  15
ATOM     15  C   UNL     1      31.650 -22.988 -16.344  0.00  0.00    +0.172 C 
ATOM     16  C   UNL     1      30.277 -22.875 -16.131  0.00  0.00    +0.172 C 
ATOM     17  C   UNL     1      32.488 -23.380 -15.299  0.00  0.00    +0.040 C 
ATOM     18  C   UNL     1      29.741 -23.155 -14.875  0.00  0.00    +0.040 C 
ATOM     19  C   UNL     1      31.951 -23.659 -14.042  0.00  0.00    +0.003 C 
ATOM     20  C   UNL     1      30.578 -23.546 -13.830  0.00  0.00    +0.003 C 
BRANCH  16  21
ATOM     21  O   UNL     1      29.449 -22.495 -17.144  0.00  0.00    -0.468 OA
ATOM     22  C   UNL     1      28.136 -23.053 -17.152  0.00  0.00    +0.253 C 
ENDBRANCH  16  21
ENDBRANCH  14  15
ENDBRANCH  13  14
ENDBRANCH  10  13
ENDBRANCH   9  10
ENDBRANCH   1   9
BRANCH   2  23
ATOM     23  C   UNL     1      34.835 -17.233 -22.399  0.00  0.00    +0.010 C 
BRANCH  23  26
ATOM     24  O   UNL     1      35.177 -15.420 -20.844  0.00  0.00    -0.277 OA
ATOM     25  N   UNL     1      33.481 -15.265 -22.461  0.00  0.00    -0.286 N 
ATOM     26  C   UNL     1      34.540 -15.873 -21.790  0.00  0.00    +0.205 C 
ATOM     27  H   UNL     1      33.086 -15.776 -23.205  0.00  0.00    +0.155 HD
BRANCH  25  28
ATOM     28  C   UNL     1      32.906 -13.998 -22.198  0.00  0.00    +0.042 C 
ATOM     29  C   UNL     1      32.286 -13.755 -20.972  0.00  0.00    -0.009 C 
ATOM     30  C   UNL     1      32.961 -12.994 -23.164  0.00  0.00    -0.009 C 
ATOM     31  C   UNL     1      31.721 -12.506 -20.712  0.00  0.00    -0.003 C 
ATOM     32  C   UNL     1      32.397 -11.744 -22.903  0.00  0.00    -0.003 C 
ATOM     33  C   UNL     1      32.211 -14.811 -19.918  0.00  0.00    +0.032 C 
ATOM     34  C   UNL     1      33.620 -13.224 -24.485  0.00  0.00    +0.032 C 
ATOM     35  C   UNL     1      31.777 -11.501 -21.678  0.00  0.00    -0.001 C 
ENDBRANCH  25  28
ENDBRANCH  23  26
ENDBRANCH   2  23
TORSDOF 10
ENDMDL
MODEL 4
REMARK VINA RESULT:     -10.1      2.238      3.122
REMARK  Name = 56959
REMARK  10 active torsions:
REMARK  status: ('A' for Active; 'I' for Inactive)
REMARK    1  A    between atoms: N_1  and  C_9
REMARK    2  A    between atoms: N_2  and  C_23
REMARK    3  A    between atoms: C_9  and  C_10
REMARK    4  A    between atoms: C_10  and  O_11
REMARK    5  A    between atoms: C_10  and  C_13
REMARK    6  A    between atoms: C_13  and  O_14
REMARK    7  A    between atoms: O_14  and  C_15
REMARK    8  A    between atoms: C_16  and  O_21
REMARK    9  A    between atoms: C_23  and  C_26
REMARK   10  A    between atoms: N_25  and  C_28
REMARK                            x       y       z     vdW  Elec       q    Type
REMARK                         _______ _______ _______ _____ _____    ______ ____
ROOT
ATOM      1  N   UNL     1      33.063 -13.619 -21.548  0.00  0.00    +0.386 N 
ATOM      2  N   UNL     1      34.149 -16.149 -22.429  0.00  0.00    +0.390 N 
ATOM      3  C   UNL     1      33.540 -14.619 -20.586  0.00  0.00    -0.101 C 
ATOM      4  C   UNL     1      32.578 -14.272 -22.770  0.00  0.00    -0.101 C 
ATOM      5  C   UNL     1      34.633 -15.496 -21.208  0.00  0.00    -0.100 C 
ATOM      6  C   UNL     1      33.671 -15.147 -23.391  0.00  0.00    -0.100 C 
ATOM      7  H   UNL     1      33.846 -13.013 -21.797  0.00  0.00    -0.080 HD
ATOM      8  H   UNL     1      33.367 -16.755 -22.181  0.00  0.00    -0.079 HD
ENDROOT
BRANCH   1   9
ATOM      9  C   UNL     1      32.020 -12.784 -20.956  0.00  0.00    -0.044 C 
BRANCH   9  10
ATOM     10  C   UNL     1      31.548 -11.687 -21.912  0.00  0.00    +0.133 C 
BRANCH  10  11
ATOM     11  O   UNL     1      30.129 -11.558 -21.779  0.00  0.00    -0.383 OA
ATOM     12  H   UNL     1      29.920 -11.165 -20.917  0.00  0.00    +0.210 HD
ENDBRANCH  10  11
BRANCH  10  13
ATOM     13  C   UNL     1      32.187 -10.327 -21.635  0.00  0.00    +0.232 C 
BRANCH  13  14
ATOM     14  O   UNL     1      31.632  -9.367 -22.530  0.00  0.00    -0.470 OA
BRANCH  14  15
ATOM     15  C   UNL     1      32.516  -8.538 -23.167  0.00  0.00    +0.172 C 
ATOM     16  C   UNL     1      32.127  -7.261 -23.570  0.00  0.00    +0.172 C 
ATOM     17  C   UNL     1      33.816  -8.981 -23.413  0.00  0.00    +0.040 C 
ATOM     18  C   UNL     1      33.036  -6.426 -24.218  0.00  0.00    +0.040 C 
ATOM     19  C   UNL     1      34.726  -8.145 -24.062  0.00  0.00    +0.003 C 
ATOM     20  C   UNL     1      34.336  -6.869 -24.465  0.00  0.00    +0.003 C 
BRANCH  16  21
ATOM     21  O   UNL     1      30.860  -6.817 -23.334  0.00  0.00    -0.468 OA
ATOM     22  C   UNL     1      30.704  -5.798 -22.348  0.00  0.00    +0.253 C 
ENDBRANCH  16  21
ENDBRANCH  14  15
ENDBRANCH  13  14
ENDBRANCH  10  13
ENDBRANCH   9  10
ENDBRANCH   1   9
BRANCH   2  23
ATOM     23  C   UNL     1      35.194 -16.981 -23.022  0.00  0.00    +0.010 C 
BRANCH  23  26
ATOM     24  O   UNL     1      34.724 -19.294 -23.527  0.00  0.00    -0.277 OA
ATOM     25  N   UNL     1      34.993 -18.619 -21.293  0.00  0.00    -0.286 N 
ATOM     26  C   UNL     1      34.938 -18.437 -22.674  0.00  0.00    +0.205 C 
ATOM     27  H   UNL     1      35.181 -17.816 -20.756  0.00  0.00    +0.155 HD
BRANCH  25  28
ATOM     28  C   UNL     1      34.809 -19.824 -20.573  0.00  0.00    +0.042 C 
ATOM     29  C   UNL     1      35.916 -20.540 -20.119  0.00  0.00    -0.009 C 
ATOM     30  C   UNL     1      33.521 -20.292 -20.317  0.00  0.00    -0.009 C 
ATOM     31  C   UNL     1      35.735 -21.727 -19.409  0.00  0.00    -0.003 C 
ATOM     32  C   UNL     1      33.339 -21.479 -19.605  0.00  0.00    -0.003 C 
ATOM     33  C   UNL     1      37.308 -20.064 -20.379  0.00  0.00    +0.032 C 
ATOM     34  C   UNL     1      32.316 -19.546 -20.789  0.00  0.00    +0.032 C 
ATOM     35  C   UNL     1      34.446 -22.196 -19.152  0.00  0.00    -0.001 C 
ENDBRANCH  25  28
ENDBRANCH  23  26
ENDBRANCH   2  23
TORSDOF 10
ENDMDL
MODEL 5
REMARK VINA RESULT:     -10.1      2.243      3.518
REMARK  Name = 56959
REMARK  10 active torsions:
REMARK  status: ('A' for Active; 'I' for Inactive)
REMARK    1  A    between atoms: N_1  and  C_9
REMARK    2  A    between atoms: N_2  and  C_23
REMARK    3  A    between atoms: C_9  and  C_10
REMARK    4  A    between atoms: C_10  and  O_11
REMARK    5  A    between atoms: C_10  and  C_13
REMARK    6  A    between atoms: C_13  and  O_14
REMARK    7  A    between atoms: O_14  and  C_15
REMARK    8  A    between atoms: C_16  and  O_21
REMARK    9  A    between atoms: C_23  and  C_26
REMARK   10  A    between atoms: N_25  and  C_28
REMARK                            x       y       z     vdW  Elec       q    Type
REMARK                         _______ _______ _______ _____ _____    ______ ____
ROOT
ATOM      1  N   UNL     1      33.048 -13.533 -21.396  0.00  0.00    +0.386 N 
ATOM      2  N   UNL     1      34.082 -16.030 -22.420  0.00  0.00    +0.390 N 
ATOM      3  C   UNL     1      33.362 -14.652 -20.499  0.00  0.00    -0.101 C 
ATOM      4  C   UNL     1      32.662 -14.030 -22.722  0.00  0.00    -0.101 C 
ATOM      5  C   UNL     1      34.466 -15.533 -21.094  0.00  0.00    -0.100 C 
ATOM      6  C   UNL     1      33.767 -14.910 -23.316  0.00  0.00    -0.100 C 
ATOM      7  H   UNL     1      33.885 -12.959 -21.499  0.00  0.00    -0.080 HD
ATOM      8  H   UNL     1      33.246 -16.605 -22.318  0.00  0.00    -0.079 HD
ENDROOT
BRANCH   1   9
ATOM      9  C   UNL     1      31.994 -12.694 -20.830  0.00  0.00    -0.044 C 
BRANCH   9  10
ATOM     10  C   UNL     1      31.505 -11.636 -21.821  0.00  0.00    +0.133 C 
BRANCH  10  11
ATOM     11  O   UNL     1      30.082 -11.539 -21.705  0.00  0.00    -0.383 OA
ATOM     12  H   UNL     1      29.689 -12.421 -21.806  0.00  0.00    +0.210 HD
ENDBRANCH  10  11
BRANCH  10  13
ATOM     13  C   UNL     1      32.107 -10.254 -21.576  0.00  0.00    +0.232 C 
BRANCH  13  14
ATOM     14  O   UNL     1      31.607  -9.353 -22.560  0.00  0.00    -0.470 OA
BRANCH  14  15
ATOM     15  C   UNL     1      32.525  -8.552 -23.184  0.00  0.00    +0.172 C 
ATOM     16  C   UNL     1      32.173  -7.276 -23.621  0.00  0.00    +0.172 C 
ATOM     17  C   UNL     1      33.823  -9.023 -23.382  0.00  0.00    +0.040 C 
ATOM     18  C   UNL     1      33.118  -6.470 -24.256  0.00  0.00    +0.040 C 
ATOM     19  C   UNL     1      34.769  -8.217 -24.017  0.00  0.00    +0.003 C 
ATOM     20  C   UNL     1      34.416  -6.941 -24.454  0.00  0.00    +0.003 C 
BRANCH  16  21
ATOM     21  O   UNL     1      30.908  -6.804 -23.432  0.00  0.00    -0.468 OA
ATOM     22  C   UNL     1      30.704  -5.921 -22.331  0.00  0.00    +0.253 C 
ENDBRANCH  16  21
ENDBRANCH  14  15
ENDBRANCH  13  14
ENDBRANCH  10  13
ENDBRANCH   9  10
ENDBRANCH   1   9
BRANCH   2  23
ATOM     23  C   UNL     1      35.138 -16.867 -22.987  0.00  0.00    +0.010 C 
BRANCH  23  26
ATOM     24  O   UNL     1      34.568 -19.149 -23.526  0.00  0.00    -0.277 OA
ATOM     25  N   UNL     1      34.981 -18.546 -21.294  0.00  0.00    -0.286 N 
ATOM     26  C   UNL     1      34.856 -18.325 -22.664  0.00  0.00    +0.205 C 
ATOM     27  H   UNL     1      35.225 -17.765 -20.747  0.00  0.00    +0.155 HD
BRANCH  25  28
ATOM     28  C   UNL     1      34.799 -19.765 -20.597  0.00  0.00    +0.042 C 
ATOM     29  C   UNL     1      33.511 -20.233 -20.336  0.00  0.00    -0.009 C 
ATOM     30  C   UNL     1      35.907 -20.499 -20.174  0.00  0.00    -0.009 C 
ATOM     31  C   UNL     1      33.331 -21.435 -19.651  0.00  0.00    -0.003 C 
ATOM     32  C   UNL     1      35.728 -21.701 -19.490  0.00  0.00    -0.003 C 
ATOM     33  C   UNL     1      32.304 -19.470 -20.776  0.00  0.00    +0.032 C 
ATOM     34  C   UNL     1      37.299 -20.024 -20.441  0.00  0.00    +0.032 C 
ATOM     35  C   UNL     1      34.440 -22.169 -19.228  0.00  0.00    -0.001 C 
ENDBRANCH  25  28
ENDBRANCH  23  26
ENDBRANCH   2  23
TORSDOF 10
ENDMDL
MODEL 6
REMARK VINA RESULT:     -10.0      1.724      2.357
REMARK  Name = 56959
REMARK  10 active torsions:
REMARK  status: ('A' for Active; 'I' for Inactive)
REMARK    1  A    between atoms: N_1  and  C_9
REMARK    2  A    between atoms: N_2  and  C_23
REMARK    3  A    between atoms: C_9  and  C_10
REMARK    4  A    between atoms: C_10  and  O_11
REMARK    5  A    between atoms: C_10  and  C_13
REMARK    6  A    between atoms: C_13  and  O_14
REMARK    7  A    between atoms: O_14  and  C_15
REMARK    8  A    between atoms: C_16  and  O_21
REMARK    9  A    between atoms: C_23  and  C_26
REMARK   10  A    between atoms: N_25  and  C_28
REMARK                            x       y       z     vdW  Elec       q    Type
REMARK                         _______ _______ _______ _____ _____    ______ ____
ROOT
ATOM      1  N   UNL     1      34.023 -13.848 -23.248  0.00  0.00    +0.386 N 
ATOM      2  N   UNL     1      34.822 -16.585 -22.773  0.00  0.00    +0.390 N 
ATOM      3  C   UNL     1      33.904 -14.456 -21.917  0.00  0.00    -0.101 C 
ATOM      4  C   UNL     1      33.896 -14.871 -24.293  0.00  0.00    -0.101 C 
ATOM      5  C   UNL     1      34.948 -15.562 -21.728  0.00  0.00    -0.100 C 
ATOM      6  C   UNL     1      34.940 -15.976 -24.104  0.00  0.00    -0.100 C 
ATOM      7  H   UNL     1      34.947 -13.423 -23.326  0.00  0.00    -0.080 HD
ATOM      8  H   UNL     1      33.899 -17.011 -22.695  0.00  0.00    -0.079 HD
ENDROOT
BRANCH   1   9
ATOM      9  C   UNL     1      33.027 -12.795 -23.429  0.00  0.00    -0.044 C 
BRANCH   9  10
ATOM     10  C   UNL     1      33.642 -11.509 -23.987  0.00  0.00    +0.133 C 
BRANCH  10  11
ATOM     11  O   UNL     1      33.855 -11.688 -25.390  0.00  0.00    -0.383 OA
ATOM     12  H   UNL     1      33.559 -10.896 -25.866  0.00  0.00    +0.210 HD
ENDBRANCH  10  11
BRANCH  10  13
ATOM     13  C   UNL     1      32.761 -10.279 -23.782  0.00  0.00    +0.232 C 
BRANCH  13  14
ATOM     14  O   UNL     1      32.390 -10.201 -22.408  0.00  0.00    -0.470 OA
BRANCH  14  15
ATOM     15  C   UNL     1      32.263  -8.946 -21.875  0.00  0.00    +0.172 C 
ATOM     16  C   UNL     1      32.271  -8.759 -20.493  0.00  0.00    +0.172 C 
ATOM     17  C   UNL     1      32.124  -7.851 -22.727  0.00  0.00    +0.040 C 
ATOM     18  C   UNL     1      32.140  -7.476 -19.963  0.00  0.00    +0.040 C 
ATOM     19  C   UNL     1      31.993  -6.567 -22.197  0.00  0.00    +0.003 C 
ATOM     20  C   UNL     1      32.000  -6.379 -20.815  0.00  0.00    +0.003 C 
BRANCH  16  21
ATOM     21  O   UNL     1      32.408  -9.821 -19.651  0.00  0.00    -0.468 OA
ATOM     22  C   UNL     1      31.208 -10.429 -19.175  0.00  0.00    +0.253 C 
ENDBRANCH  16  21
ENDBRANCH  14  15
ENDBRANCH  13  14
ENDBRANCH  10  13
ENDBRANCH   9  10
ENDBRANCH   1   9
BRANCH   2  23
ATOM     23  C   UNL     1      35.821 -17.637 -22.593  0.00  0.00    +0.010 C 
BRANCH  23  26
ATOM     24  O   UNL     1      34.614 -19.661 -23.113  0.00  0.00    -0.277 OA
ATOM     25  N   UNL     1      35.167 -19.174 -20.883  0.00  0.00    -0.286 N 
ATOM     26  C   UNL     1      35.123 -18.944 -22.257  0.00  0.00    +0.205 C 
ATOM     27  H   UNL     1      35.623 -18.490 -20.342  0.00  0.00    +0.155 HD
BRANCH  25  28
ATOM     28  C   UNL     1      34.632 -20.277 -20.175  0.00  0.00    +0.042 C 
ATOM     29  C   UNL     1      35.486 -21.226 -19.615  0.00  0.00    -0.009 C 
ATOM     30  C   UNL     1      33.251 -20.412 -20.037  0.00  0.00    -0.009 C 
ATOM     31  C   UNL     1      34.959 -22.313 -18.916  0.00  0.00    -0.003 C 
ATOM     32  C   UNL     1      32.723 -21.498 -19.336  0.00  0.00    -0.003 C 
ATOM     33  C   UNL     1      36.970 -21.110 -19.747  0.00  0.00    +0.032 C 
ATOM     34  C   UNL     1      32.311 -19.410 -20.624  0.00  0.00    +0.032 C 
ATOM     35  C   UNL     1      33.577 -22.448 -18.777  0.00  0.00    -0.001 C 
ENDBRANCH  25  28
ENDBRANCH  23  26
ENDBRANCH   2  23
TORSDOF 10
ENDMDL
MODEL 7
REMARK VINA RESULT:      -9.9      2.412     10.817
REMARK  Name = 56959
REMARK  10 active torsions:
REMARK  status: ('A' for Active; 'I' for Inactive)
REMARK    1  A    between atoms: N_1  and  C_9
REMARK    2  A    between atoms: N_2  and  C_23
REMARK    3  A    between atoms: C_9  and  C_10
REMARK    4  A    between atoms: C_10  and  O_11
REMARK    5  A    between atoms: C_10  and  C_13
REMARK    6  A    between atoms: C_13  and  O_14
REMARK    7  A    between atoms: O_14  and  C_15
REMARK    8  A    between atoms: C_16  and  O_21
REMARK    9  A    between atoms: C_23  and  C_26
REMARK   10  A    between atoms: N_25  and  C_28
REMARK                            x       y       z     vdW  Elec       q    Type
REMARK                         _______ _______ _______ _____ _____    ______ ____
ROOT
ATOM      1  N   UNL     1      34.892 -18.792 -21.524  0.00  0.00    +0.386 N 
ATOM      2  N   UNL     1      34.427 -16.618 -23.372  0.00  0.00    +0.390 N 
ATOM      3  C   UNL     1      34.605 -19.045 -22.941  0.00  0.00    -0.101 C 
ATOM      4  C   UNL     1      34.256 -17.543 -21.087  0.00  0.00    -0.101 C 
ATOM      5  C   UNL     1      35.062 -17.867 -23.809  0.00  0.00    -0.100 C 
ATOM      6  C   UNL     1      34.714 -16.366 -21.954  0.00  0.00    -0.100 C 
ATOM      7  H   UNL     1      35.902 -18.694 -21.413  0.00  0.00    -0.080 HD
ATOM      8  H   UNL     1      33.418 -16.715 -23.483  0.00  0.00    -0.079 HD
ENDROOT
BRANCH   1   9
ATOM      9  C   UNL     1      34.455 -19.914 -20.697  0.00  0.00    -0.044 C 
BRANCH   9  10
ATOM     10  C   UNL     1      35.602 -20.878 -20.382  0.00  0.00    +0.133 C 
BRANCH  10  11
ATOM     11  O   UNL     1      36.497 -20.228 -19.475  0.00  0.00    -0.383 OA
ATOM     12  H   UNL     1      36.212 -20.398 -18.563  0.00  0.00    +0.210 HD
ENDBRANCH  10  11
BRANCH  10  13
ATOM     13  C   UNL     1      35.134 -22.187 -19.748  0.00  0.00    +0.232 C 
BRANCH  13  14
ATOM     14  O   UNL     1      35.606 -22.241 -18.405  0.00  0.00    -0.470 OA
BRANCH  14  15
ATOM     15  C   UNL     1      34.711 -22.657 -17.455  0.00  0.00    +0.172 C 
ATOM     16  C   UNL     1      35.127 -22.903 -16.147  0.00  0.00    +0.172 C 
ATOM     17  C   UNL     1      33.372 -22.833 -17.806  0.00  0.00    +0.040 C 
ATOM     18  C   UNL     1      34.206 -23.325 -15.190  0.00  0.00    +0.040 C 
ATOM     19  C   UNL     1      32.450 -23.256 -16.847  0.00  0.00    +0.003 C 
ATOM     20  C   UNL     1      32.867 -23.503 -15.540  0.00  0.00    +0.003 C 
BRANCH  16  21
ATOM     21  O   UNL     1      36.432 -22.732 -15.793  0.00  0.00    -0.468 OA
ATOM     22  C   UNL     1      36.991 -23.692 -14.898  0.00  0.00    +0.253 C 
ENDBRANCH  16  21
ENDBRANCH  14  15
ENDBRANCH  13  14
ENDBRANCH  10  13
ENDBRANCH   9  10
ENDBRANCH   1   9
BRANCH   2  23
ATOM     23  C   UNL     1      34.867 -15.496 -24.199  0.00  0.00    +0.010 C 
BRANCH  23  26
ATOM     24  O   UNL     1      32.751 -14.599 -24.935  0.00  0.00    -0.277 OA
ATOM     25  N   UNL     1      34.090 -13.362 -23.455  0.00  0.00    -0.286 N 
ATOM     26  C   UNL     1      33.765 -14.452 -24.260  0.00  0.00    +0.205 C 
ATOM     27  H   UNL     1      34.950 -13.414 -22.978  0.00  0.00    +0.155 HD
BRANCH  25  28
ATOM     28  C   UNL     1      33.328 -12.188 -23.244  0.00  0.00    +0.042 C 
ATOM     29  C   UNL     1      33.532 -11.069 -24.052  0.00  0.00    -0.009 C 
ATOM     30  C   UNL     1      32.373 -12.150 -22.229  0.00  0.00    -0.009 C 
ATOM     31  C   UNL     1      32.780  -9.913 -23.845  0.00  0.00    -0.003 C 
ATOM     32  C   UNL     1      31.619 -10.994 -22.022  0.00  0.00    -0.003 C 
ATOM     33  C   UNL     1      34.548 -11.078 -25.148  0.00  0.00    +0.032 C 
ATOM     34  C   UNL     1      32.131 -13.333 -21.348  0.00  0.00    +0.032 C 
ATOM     35  C   UNL     1      31.823  -9.875 -22.830  0.00  0.00    -0.001 C 
ENDBRANCH  25  28
ENDBRANCH  23  26
ENDBRANCH   2  23
TORSDOF 10
ENDMDL
MODEL 8
REMARK VINA RESULT:      -9.8      1.918      2.921
REMARK  Name = 56959
REMARK  10 active torsions:
REMARK  status: ('A' for Active; 'I' for Inactive)
REMARK    1  A    between atoms: N_1  and  C_9
REMARK    2  A    between atoms: N_2  and  C_23
REMARK    3  A    between atoms: C_9  and  C_10
REMARK    4  A    between atoms: C_10  and  O_11
REMARK    5  A    between atoms: C_10  and  C_13
REMARK    6  A    between atoms: C_13  and  O_14
REMARK    7  A    between atoms: O_14  and  C_15
REMARK    8  A    between atoms: C_16  and  O_21
REMARK    9  A    between atoms: C_23  and  C_26
REMARK   10  A    between atoms: N_25  and  C_28
REMARK                            x       y       z     vdW  Elec       q    Type
REMARK                         _______ _______ _______ _____ _____    ______ ____
ROOT
ATOM      1  N   UNL     1      33.507 -13.988 -23.108  0.00  0.00    +0.386 N 
ATOM      2  N   UNL     1      34.642 -16.630 -22.813  0.00  0.00    +0.390 N 
ATOM      3  C   UNL     1      33.357 -14.746 -21.860  0.00  0.00    -0.101 C 
ATOM      4  C   UNL     1      33.621 -14.901 -24.252  0.00  0.00    -0.101 C 
ATOM      5  C   UNL     1      34.527 -15.718 -21.669  0.00  0.00    -0.100 C 
ATOM      6  C   UNL     1      34.791 -15.871 -24.061  0.00  0.00    -0.100 C 
ATOM      7  H   UNL     1      34.365 -13.438 -23.050  0.00  0.00    -0.080 HD
ATOM      8  H   UNL     1      33.786 -17.181 -22.871  0.00  0.00    -0.079 HD
ENDROOT
BRANCH   1   9
ATOM      9  C   UNL     1      32.391 -13.063 -23.291  0.00  0.00    -0.044 C 
BRANCH   9  10
ATOM     10  C   UNL     1      32.750 -11.637 -22.866  0.00  0.00    +0.133 C 
BRANCH  10  11
ATOM     11  O   UNL     1      33.205 -10.927 -24.023  0.00  0.00    -0.383 OA
ATOM     12  H   UNL     1      32.985  -9.987 -23.932  0.00  0.00    +0.210 HD
ENDBRANCH  10  11
BRANCH  10  13
ATOM     13  C   UNL     1      31.575 -10.873 -22.260  0.00  0.00    +0.232 C 
BRANCH  13  14
ATOM     14  O   UNL     1      31.460  -9.611 -22.911  0.00  0.00    -0.470 OA
BRANCH  14  15
ATOM     15  C   UNL     1      31.717  -8.501 -22.151  0.00  0.00    +0.172 C 
ATOM     16  C   UNL     1      31.592  -7.224 -22.697  0.00  0.00    +0.172 C 
ATOM     17  C   UNL     1      32.107  -8.657 -20.821  0.00  0.00    +0.040 C 
ATOM     18  C   UNL     1      31.856  -6.102 -21.913  0.00  0.00    +0.040 C 
ATOM     19  C   UNL     1      32.372  -7.534 -20.037  0.00  0.00    +0.003 C 
ATOM     20  C   UNL     1      32.247  -6.257 -20.582  0.00  0.00    +0.003 C 
BRANCH  16  21
ATOM     21  O   UNL     1      31.210  -7.060 -23.994  0.00  0.00    -0.468 OA
ATOM     22  C   UNL     1      31.882  -6.050 -24.745  0.00  0.00    +0.253 C 
ENDBRANCH  16  21
ENDBRANCH  14  15
ENDBRANCH  13  14
ENDBRANCH  10  13
ENDBRANCH   9  10
ENDBRANCH   1   9
BRANCH   2  23
ATOM     23  C   UNL     1      35.761 -17.554 -22.630  0.00  0.00    +0.010 C 
BRANCH  23  26
ATOM     24  O   UNL     1      34.914 -19.751 -23.159  0.00  0.00    -0.277 OA
ATOM     25  N   UNL     1      35.160 -19.106 -20.915  0.00  0.00    -0.286 N 
ATOM     26  C   UNL     1      35.225 -18.936 -22.296  0.00  0.00    +0.205 C 
ATOM     27  H   UNL     1      35.456 -18.343 -20.368  0.00  0.00    +0.155 HD
BRANCH  25  28
ATOM     28  C   UNL     1      34.717 -20.248 -20.206  0.00  0.00    +0.042 C 
ATOM     29  C   UNL     1      35.646 -21.124 -19.645  0.00  0.00    -0.009 C 
ATOM     30  C   UNL     1      33.352 -20.497 -20.068  0.00  0.00    -0.009 C 
ATOM     31  C   UNL     1      35.210 -22.250 -18.945  0.00  0.00    -0.003 C 
ATOM     32  C   UNL     1      32.915 -21.622 -19.367  0.00  0.00    -0.003 C 
ATOM     33  C   UNL     1      37.115 -20.885 -19.776  0.00  0.00    +0.032 C 
ATOM     34  C   UNL     1      32.333 -19.577 -20.657  0.00  0.00    +0.032 C 
ATOM     35  C   UNL     1      33.844 -22.498 -18.806  0.00  0.00    -0.001 C 
ENDBRANCH  25  28
ENDBRANCH  23  26
ENDBRANCH   2  23
TORSDOF 10
ENDMDL
MODEL 9
REMARK VINA RESULT:      -9.7      2.038      3.807
REMARK  Name = 56959
REMARK  10 active torsions:
REMARK  status: ('A' for Active; 'I' for Inactive)
REMARK    1  A    between atoms: N_1  and  C_9
REMARK    2  A    between atoms: N_2  and  C_23
REMARK    3  A    between atoms: C_9  and  C_10
REMARK    4  A    between atoms: C_10  and  O_11
REMARK    5  A    between atoms: C_10  and  C_13
REMARK    6  A    between atoms: C_13  and  O_14
REMARK    7  A    between atoms: O_14  and  C_15
REMARK    8  A    between atoms: C_16  and  O_21
REMARK    9  A    between atoms: C_23  and  C_26
REMARK   10  A    between atoms: N_25  and  C_28
REMARK                            x       y       z     vdW  Elec       q    Type
REMARK                         _______ _______ _______ _____ _____    ______ ____
ROOT
ATOM      1  N   UNL     1      32.331 -12.724 -21.862  0.00  0.00    +0.386 N 
ATOM      2  N   UNL     1      33.723 -15.190 -22.439  0.00  0.00    +0.390 N 
ATOM      3  C   UNL     1      32.251 -13.874 -20.953  0.00  0.00    -0.101 C 
ATOM      4  C   UNL     1      32.541 -13.174 -23.243  0.00  0.00    -0.101 C 
ATOM      5  C   UNL     1      33.512 -14.740 -21.059  0.00  0.00    -0.100 C 
ATOM      6  C   UNL     1      33.801 -14.039 -23.348  0.00  0.00    -0.100 C 
ATOM      7  H   UNL     1      33.128 -12.150 -21.586  0.00  0.00    -0.080 HD
ATOM      8  H   UNL     1      32.927 -15.764 -22.715  0.00  0.00    -0.079 HD
ENDROOT
BRANCH   1   9
ATOM      9  C   UNL     1      31.129 -11.899 -21.762  0.00  0.00    -0.044 C 
BRANCH   9  10
ATOM     10  C   UNL     1      31.242 -10.847 -20.656  0.00  0.00    +0.133 C 
BRANCH  10  11
ATOM     11  O   UNL     1      31.809 -11.472 -19.501  0.00  0.00    -0.383 OA
ATOM     12  H   UNL     1      31.354 -11.155 -18.705  0.00  0.00    +0.210 HD
ENDBRANCH  10  11
BRANCH  10  13
ATOM     13  C   UNL     1      32.116  -9.656 -21.042  0.00  0.00    +0.232 C 
BRANCH  13  14
ATOM     14  O   UNL     1      32.476  -9.776 -22.416  0.00  0.00    -0.470 OA
BRANCH  14  15
ATOM     15  C   UNL     1      32.732  -8.610 -23.088  0.00  0.00    +0.172 C 
ATOM     16  C   UNL     1      33.955  -8.416 -23.730  0.00  0.00    +0.172 C 
ATOM     17  C   UNL     1      31.758  -7.613 -23.127  0.00  0.00    +0.040 C 
ATOM     18  C   UNL     1      34.203  -7.225 -24.412  0.00  0.00    +0.040 C 
ATOM     19  C   UNL     1      32.007  -6.421 -23.808  0.00  0.00    +0.003 C 
ATOM     20  C   UNL     1      33.229  -6.227 -24.450  0.00  0.00    +0.003 C 
BRANCH  16  21
ATOM     21  O   UNL     1      34.913  -9.384 -23.701  0.00  0.00    -0.468 OA
ATOM     22  C   UNL     1      35.223 -10.027 -24.936  0.00  0.00    +0.253 C 
ENDBRANCH  16  21
ENDBRANCH  14  15
ENDBRANCH  13  14
ENDBRANCH  10  13
ENDBRANCH   9  10
ENDBRANCH   1   9
BRANCH   2  23
ATOM     23  C   UNL     1      34.927 -16.013 -22.538  0.00  0.00    +0.010 C 
BRANCH  23  26
ATOM     24  O   UNL     1      35.209 -16.542 -20.200  0.00  0.00    -0.277 OA
ATOM     25  N   UNL     1      34.799 -18.263 -21.745  0.00  0.00    -0.286 N 
ATOM     26  C   UNL     1      35.002 -16.945 -21.341  0.00  0.00    +0.205 C 
ATOM     27  H   UNL     1      34.642 -18.405 -22.706  0.00  0.00    +0.155 HD
BRANCH  25  28
ATOM     28  C   UNL     1      34.792 -19.423 -20.933  0.00  0.00    +0.042 C 
ATOM     29  C   UNL     1      33.581 -19.988 -20.535  0.00  0.00    -0.009 C 
ATOM     30  C   UNL     1      35.997 -20.001 -20.533  0.00  0.00    -0.009 C 
ATOM     31  C   UNL     1      33.574 -21.132 -19.736  0.00  0.00    -0.003 C 
ATOM     32  C   UNL     1      35.990 -21.145 -19.735  0.00  0.00    -0.003 C 
ATOM     33  C   UNL     1      32.274 -19.393 -20.947  0.00  0.00    +0.032 C 
ATOM     34  C   UNL     1      37.310 -19.419 -20.944  0.00  0.00    +0.032 C 
ATOM     35  C   UNL     1      34.779 -21.710 -19.336  0.00  0.00    -0.001 C 
ENDBRANCH  25  28
ENDBRANCH  23  26
ENDBRANCH   2  23
TORSDOF 10
ENDMDL
