MODEL 1
REMARK VINA RESULT:      -8.4      0.000      0.000
REMARK  Name = 447715
REMARK  8 active torsions:
REMARK  status: ('A' for Active; 'I' for Inactive)
REMARK    1  A    between atoms: C_7  and  C_24
REMARK    2  A    between atoms: C_8  and  O_20
REMARK    3  A    between atoms: C_11  and  C_32
REMARK    4  A    between atoms: C_19  and  O_22
REMARK    5  A    between atoms: C_24  and  C_26
REMARK    6  A    between atoms: C_26  and  C_27
REMARK    7  A    between atoms: C_27  and  C_29
REMARK    8  A    between atoms: C_29  and  O_30
REMARK                            x       y       z     vdW  Elec       q    Type
REMARK                         _______ _______ _______ _____ _____    ______ ____
ROOT
ATOM      1  C   UNL     1      33.724 -15.824 -23.845  0.00  0.00    +0.027 C 
ATOM      2  C   UNL     1      34.177 -14.520 -23.120  0.00  0.00    +0.002 C 
ATOM      3  C   UNL     1      34.676 -16.960 -23.437  0.00  0.00    +0.002 C 
ATOM      4  C   UNL     1      34.684 -17.230 -21.918  0.00  0.00    +0.000 C 
ATOM      5  C   UNL     1      33.290 -13.267 -23.487  0.00  0.00    +0.000 C 
ATOM      6  C   UNL     1      33.115 -13.126 -25.048  0.00  0.00    +0.005 C 
ATOM      7  C   UNL     1      35.664 -18.428 -21.883  0.00  0.00    +0.000 C 
ATOM      8  C   UNL     1      33.684 -15.627 -25.372  0.00  0.00    +0.110 C 
ATOM      9  C   UNL     1      34.340 -14.736 -21.587  0.00  0.00    +0.000 C 
ATOM     10  C   UNL     1      35.197 -15.960 -21.224  0.00  0.00    +0.000 C 
ATOM     11  C   UNL     1      32.747 -14.467 -25.740  0.00  0.00    +0.027 C 
ATOM     12  C   UNL     1      34.473 -18.346 -24.045  0.00  0.00    +0.000 C 
ATOM     13  C   UNL     1      35.232 -19.289 -23.092  0.00  0.00    +0.000 C 
ATOM     14  C   UNL     1      33.980 -11.989 -22.901  0.00  0.00    +0.002 C 
ATOM     15  C   UNL     1      34.321 -12.382 -25.648  0.00  0.00    +0.029 C 
ATOM     16  C   UNL     1      33.303 -17.624 -21.336  0.00  0.00    +0.000 C 
ATOM     17  C   UNL     1      31.877 -13.375 -22.859  0.00  0.00    +0.000 C 
ATOM     18  C   UNL     1      33.768 -10.744 -23.758  0.00  0.00    +0.029 C 
ATOM     19  C   UNL     1      34.378 -10.930 -25.150  0.00  0.00    +0.111 C 
ENDROOT
BRANCH   8  20
ATOM     20  O   UNL     1      34.999 -15.409 -25.869  0.00  0.00    -0.384 OA
ATOM     21  H   UNL     1      35.276 -14.502 -25.665  0.00  0.00    +0.210 HD
ENDBRANCH   8  20
BRANCH  19  22
ATOM     22  O   UNL     1      35.745 -10.524 -25.144  0.00  0.00    -0.384 OA
ATOM     23  H   UNL     1      36.089 -10.559 -24.238  0.00  0.00    +0.210 HD
ENDBRANCH  19  22
BRANCH   7  24
ATOM     24  C   UNL     1      35.728 -19.220 -20.585  0.00  0.00    +0.001 C 
ATOM     25  C   UNL     1      37.164 -19.686 -20.324  0.00  0.00    +0.000 C 
BRANCH  24  26
ATOM     26  C   UNL     1      34.737 -20.401 -20.633  0.00  0.00    +0.012 C 
BRANCH  26  27
ATOM     27  C   UNL     1      35.053 -21.513 -19.630  0.00  0.00    +0.109 C 
BRANCH  27  29
ATOM     28  O   UNL     1      33.892 -23.603 -19.166  0.00  0.00    -0.250 OA
ATOM     29  C   UNL     1      33.855 -22.399 -19.376  0.00  0.00    +0.314 C 
BRANCH  29  30
ATOM     30  O   UNL     1      32.696 -21.689 -19.417  0.00  0.00    -0.480 OA
ATOM     31  H   UNL     1      32.262 -21.453 -18.620  0.00  0.00    +0.295 HD
ENDBRANCH  29  30
ENDBRANCH  27  29
ENDBRANCH  26  27
ENDBRANCH  24  26
ENDBRANCH   7  24
BRANCH  11  32
ATOM     32  C   UNL     1      32.585 -14.328 -27.258  0.00  0.00    +0.002 C 
ATOM     33  C   UNL     1      31.949 -13.003 -27.621  0.00  0.00    +0.000 C 
ENDBRANCH  11  32
TORSDOF 8
ENDMDL
MODEL 2
REMARK VINA RESULT:      -7.6      4.584     11.807
REMARK  Name = 447715
REMARK  8 active torsions:
REMARK  status: ('A' for Active; 'I' for Inactive)
REMARK    1  A    between atoms: C_7  and  C_24
REMARK    2  A    between atoms: C_8  and  O_20
REMARK    3  A    between atoms: C_11  and  C_32
REMARK    4  A    between atoms: C_19  and  O_22
REMARK    5  A    between atoms: C_24  and  C_26
REMARK    6  A    between atoms: C_26  and  C_27
REMARK    7  A    between atoms: C_27  and  C_29
REMARK    8  A    between atoms: C_29  and  O_30
REMARK                            x       y       z     vdW  Elec       q    Type
REMARK                         _______ _______ _______ _____ _____    ______ ____
ROOT
ATOM      1  C   UNL     1      34.296 -23.377 -16.477  0.00  0.00    +0.027 C 
ATOM      2  C   UNL     1      35.696 -23.138 -15.835  0.00  0.00    +0.002 C 
ATOM      3  C   UNL     1      33.987 -22.202 -17.417  0.00  0.00    +0.002 C 
ATOM      4  C   UNL     1      35.019 -22.045 -18.554  0.00  0.00    +0.000 C 
ATOM      5  C   UNL     1      36.114 -24.270 -14.818  0.00  0.00    +0.000 C 
ATOM      6  C   UNL     1      34.958 -24.568 -13.786  0.00  0.00    +0.005 C 
ATOM      7  C   UNL     1      34.380 -20.854 -19.308  0.00  0.00    +0.000 C 
ATOM      8  C   UNL     1      33.211 -23.552 -15.398  0.00  0.00    +0.110 C 
ATOM      9  C   UNL     1      36.783 -22.839 -16.908  0.00  0.00    +0.000 C 
ATOM     10  C   UNL     1      36.378 -21.741 -17.907  0.00  0.00    +0.000 C 
ATOM     11  C   UNL     1      33.567 -24.715 -14.460  0.00  0.00    +0.027 C 
ATOM     12  C   UNL     1      32.646 -22.173 -18.146  0.00  0.00    +0.000 C 
ATOM     13  C   UNL     1      32.871 -21.189 -19.310  0.00  0.00    +0.000 C 
ATOM     14  C   UNL     1      37.405 -23.801 -14.065  0.00  0.00    +0.002 C 
ATOM     15  C   UNL     1      35.024 -23.567 -12.619  0.00  0.00    +0.029 C 
ATOM     16  C   UNL     1      35.142 -23.285 -19.475  0.00  0.00    +0.000 C 
ATOM     17  C   UNL     1      36.446 -25.592 -15.554  0.00  0.00    +0.000 C 
ATOM     18  C   UNL     1      37.478 -24.302 -12.625  0.00  0.00    +0.029 C 
ATOM     19  C   UNL     1      36.309 -23.758 -11.799  0.00  0.00    +0.111 C 
ENDROOT
BRANCH   8  20
ATOM     20  O   UNL     1      33.043 -22.337 -14.676  0.00  0.00    -0.384 OA
ATOM     21  H   UNL     1      33.910 -22.003 -14.399  0.00  0.00    +0.210 HD
ENDBRANCH   8  20
BRANCH  19  22
ATOM     22  O   UNL     1      36.656 -22.497 -11.231  0.00  0.00    -0.384 OA
ATOM     23  H   UNL     1      36.661 -21.820 -11.925  0.00  0.00    +0.210 HD
ENDBRANCH  19  22
BRANCH   7  24
ATOM     24  C   UNL     1      34.922 -20.556 -20.699  0.00  0.00    +0.001 C 
ATOM     25  C   UNL     1      36.316 -19.929 -20.596  0.00  0.00    +0.000 C 
BRANCH  24  26
ATOM     26  C   UNL     1      33.938 -19.654 -21.471  0.00  0.00    +0.012 C 
BRANCH  26  27
ATOM     27  C   UNL     1      34.531 -18.304 -21.882  0.00  0.00    +0.109 C 
BRANCH  27  29
ATOM     28  O   UNL     1      34.465 -19.053 -24.199  0.00  0.00    -0.250 OA
ATOM     29  C   UNL     1      34.861 -18.260 -23.357  0.00  0.00    +0.314 C 
BRANCH  29  30
ATOM     30  O   UNL     1      35.678 -17.214 -23.650  0.00  0.00    -0.480 OA
ATOM     31  H   UNL     1      35.670 -16.447 -23.112  0.00  0.00    +0.295 HD
ENDBRANCH  29  30
ENDBRANCH  27  29
ENDBRANCH  26  27
ENDBRANCH  24  26
ENDBRANCH   7  24
BRANCH  11  32
ATOM     32  C   UNL     1      32.445 -24.998 -13.454  0.00  0.00    +0.002 C 
ATOM     33  C   UNL     1      31.109 -25.139 -14.151  0.00  0.00    +0.000 C 
ENDBRANCH  11  32
TORSDOF 8
ENDMDL
MODEL 3
REMARK VINA RESULT:      -7.6      9.400     12.939
REMARK  Name = 447715
REMARK  8 active torsions:
REMARK  status: ('A' for Active; 'I' for Inactive)
REMARK    1  A    between atoms: C_7  and  C_24
REMARK    2  A    between atoms: C_8  and  O_20
REMARK    3  A    between atoms: C_11  and  C_32
REMARK    4  A    between atoms: C_19  and  O_22
REMARK    5  A    between atoms: C_24  and  C_26
REMARK    6  A    between atoms: C_26  and  C_27
REMARK    7  A    between atoms: C_27  and  C_29
REMARK    8  A    between atoms: C_29  and  O_30
REMARK                            x       y       z     vdW  Elec       q    Type
REMARK                         _______ _______ _______ _____ _____    ______ ____
ROOT
ATOM      1  C   UNL     1      34.268 -23.201 -15.005  0.00  0.00    +0.027 C 
ATOM      2  C   UNL     1      34.688 -24.413 -14.118  0.00  0.00    +0.002 C 
ATOM      3  C   UNL     1      32.942 -23.547 -15.700  0.00  0.00    +0.002 C 
ATOM      4  C   UNL     1      31.795 -23.841 -14.710  0.00  0.00    +0.000 C 
ATOM      5  C   UNL     1      36.061 -24.189 -13.373  0.00  0.00    +0.000 C 
ATOM      6  C   UNL     1      37.176 -23.682 -14.367  0.00  0.00    +0.005 C 
ATOM      7  C   UNL     1      30.647 -24.077 -15.721  0.00  0.00    +0.000 C 
ATOM      8  C   UNL     1      35.371 -22.842 -16.017  0.00  0.00    +0.110 C 
ATOM      9  C   UNL     1      33.537 -24.866 -13.173  0.00  0.00    +0.000 C 
ATOM     10  C   UNL     1      32.195 -25.077 -13.892  0.00  0.00    +0.000 C 
ATOM     11  C   UNL     1      36.688 -22.532 -15.290  0.00  0.00    +0.027 C 
ATOM     12  C   UNL     1      32.329 -22.535 -16.665  0.00  0.00    +0.000 C 
ATOM     13  C   UNL     1      30.854 -22.965 -16.776  0.00  0.00    +0.000 C 
ATOM     14  C   UNL     1      36.493 -25.547 -12.721  0.00  0.00    +0.002 C 
ATOM     15  C   UNL     1      37.822 -24.878 -15.088  0.00  0.00    +0.029 C 
ATOM     16  C   UNL     1      31.463 -22.666 -13.756  0.00  0.00    +0.000 C 
ATOM     17  C   UNL     1      35.922 -23.140 -12.241  0.00  0.00    +0.000 C 
ATOM     18  C   UNL     1      38.005 -25.742 -12.684  0.00  0.00    +0.029 C 
ATOM     19  C   UNL     1      38.587 -25.772 -14.100  0.00  0.00    +0.111 C 
ENDROOT
BRANCH   8  20
ATOM     20  O   UNL     1      35.535 -23.900 -16.955  0.00  0.00    -0.384 OA
ATOM     21  H   UNL     1      36.287 -24.453 -16.691  0.00  0.00    +0.210 HD
ENDBRANCH   8  20
BRANCH  19  22
ATOM     22  O   UNL     1      38.566 -27.104 -14.610  0.00  0.00    -0.384 OA
ATOM     23  H   UNL     1      38.981 -27.121 -15.486  0.00  0.00    +0.210 HD
ENDBRANCH  19  22
BRANCH   7  24
ATOM     24  C   UNL     1      29.234 -24.101 -15.156  0.00  0.00    +0.001 C 
ATOM     25  C   UNL     1      28.908 -25.498 -14.616  0.00  0.00    +0.000 C 
BRANCH  24  26
ATOM     26  C   UNL     1      28.224 -23.647 -16.230  0.00  0.00    +0.012 C 
BRANCH  26  27
ATOM     27  C   UNL     1      27.819 -22.176 -16.113  0.00  0.00    +0.109 C 
BRANCH  27  29
ATOM     28  O   UNL     1      25.927 -21.691 -17.568  0.00  0.00    -0.250 OA
ATOM     29  C   UNL     1      26.363 -21.963 -16.458  0.00  0.00    +0.314 C 
BRANCH  29  30
ATOM     30  O   UNL     1      25.569 -22.103 -15.364  0.00  0.00    -0.480 OA
ATOM     31  H   UNL     1      25.258 -21.344 -14.910  0.00  0.00    +0.295 HD
ENDBRANCH  29  30
ENDBRANCH  27  29
ENDBRANCH  26  27
ENDBRANCH  24  26
ENDBRANCH   7  24
BRANCH  11  32
ATOM     32  C   UNL     1      37.772 -22.047 -16.259  0.00  0.00    +0.002 C 
ATOM     33  C   UNL     1      37.178 -21.201 -17.365  0.00  0.00    +0.000 C 
ENDBRANCH  11  32
TORSDOF 8
ENDMDL
MODEL 4
REMARK VINA RESULT:      -7.2      3.041      5.031
REMARK  Name = 447715
REMARK  8 active torsions:
REMARK  status: ('A' for Active; 'I' for Inactive)
REMARK    1  A    between atoms: C_7  and  C_24
REMARK    2  A    between atoms: C_8  and  O_20
REMARK    3  A    between atoms: C_11  and  C_32
REMARK    4  A    between atoms: C_19  and  O_22
REMARK    5  A    between atoms: C_24  and  C_26
REMARK    6  A    between atoms: C_26  and  C_27
REMARK    7  A    between atoms: C_27  and  C_29
REMARK    8  A    between atoms: C_29  and  O_30
REMARK                            x       y       z     vdW  Elec       q    Type
REMARK                         _______ _______ _______ _____ _____    ______ ____
ROOT
ATOM      1  C   UNL     1      32.561 -11.989 -22.684  0.00  0.00    +0.027 C 
ATOM      2  C   UNL     1      32.578 -11.549 -21.189  0.00  0.00    +0.002 C 
ATOM      3  C   UNL     1      33.641 -13.064 -22.885  0.00  0.00    +0.002 C 
ATOM      4  C   UNL     1      33.423 -14.317 -22.009  0.00  0.00    +0.000 C 
ATOM      5  C   UNL     1      31.527 -10.417 -20.865  0.00  0.00    +0.000 C 
ATOM      6  C   UNL     1      31.622  -9.232 -21.902  0.00  0.00    +0.005 C 
ATOM      7  C   UNL     1      34.613 -15.175 -22.501  0.00  0.00    +0.000 C 
ATOM      8  C   UNL     1      32.767 -10.786 -23.622  0.00  0.00    +0.110 C 
ATOM      9  C   UNL     1      32.494 -12.767 -20.224  0.00  0.00    +0.000 C 
ATOM     10  C   UNL     1      33.511 -13.877 -20.541  0.00  0.00    +0.000 C 
ATOM     11  C   UNL     1      31.688  -9.720 -23.374  0.00  0.00    +0.027 C 
ATOM     12  C   UNL     1      33.860 -13.639 -24.282  0.00  0.00    +0.000 C 
ATOM     13  C   UNL     1      34.612 -14.960 -24.032  0.00  0.00    +0.000 C 
ATOM     14  C   UNL     1      31.803  -9.892 -19.414  0.00  0.00    +0.002 C 
ATOM     15  C   UNL     1      32.730  -8.252 -21.480  0.00  0.00    +0.029 C 
ATOM     16  C   UNL     1      32.075 -15.038 -22.261  0.00  0.00    +0.000 C 
ATOM     17  C   UNL     1      30.079 -10.967 -20.903  0.00  0.00    +0.000 C 
ATOM     18  C   UNL     1      31.493  -8.408 -19.243  0.00  0.00    +0.029 C 
ATOM     19  C   UNL     1      32.379  -7.556 -20.156  0.00  0.00    +0.111 C 
ENDROOT
BRANCH   8  20
ATOM     20  O   UNL     1      34.074 -10.250 -23.448  0.00  0.00    -0.384 OA
ATOM     21  H   UNL     1      34.665 -10.943 -23.115  0.00  0.00    +0.210 HD
ENDBRANCH   8  20
BRANCH  19  22
ATOM     22  O   UNL     1      33.600  -7.235 -19.494  0.00  0.00    -0.384 OA
ATOM     23  H   UNL     1      33.903  -8.002 -18.984  0.00  0.00    +0.210 HD
ENDBRANCH  19  22
BRANCH   7  24
ATOM     24  C   UNL     1      34.602 -16.646 -22.109  0.00  0.00    +0.001 C 
ATOM     25  C   UNL     1      35.049 -16.805 -20.652  0.00  0.00    +0.000 C 
BRANCH  24  26
ATOM     26  C   UNL     1      35.484 -17.461 -23.076  0.00  0.00    +0.012 C 
BRANCH  26  27
ATOM     27  C   UNL     1      34.976 -18.882 -23.327  0.00  0.00    +0.109 C 
BRANCH  27  29
ATOM     28  O   UNL     1      34.022 -18.245 -25.476  0.00  0.00    -0.250 OA
ATOM     29  C   UNL     1      34.556 -19.085 -24.765  0.00  0.00    +0.314 C 
BRANCH  29  30
ATOM     30  O   UNL     1      34.839 -20.344 -25.191  0.00  0.00    -0.480 OA
ATOM     31  H   UNL     1      34.788 -20.553 -26.103  0.00  0.00    +0.295 HD
ENDBRANCH  29  30
ENDBRANCH  27  29
ENDBRANCH  26  27
ENDBRANCH  24  26
ENDBRANCH   7  24
BRANCH  11  32
ATOM     32  C   UNL     1      31.788  -8.567 -24.379  0.00  0.00    +0.002 C 
ATOM     33  C   UNL     1      30.796  -7.471 -24.053  0.00  0.00    +0.000 C 
ENDBRANCH  11  32
TORSDOF 8
ENDMDL
MODEL 5
REMARK VINA RESULT:      -7.0      3.488      6.737
REMARK  Name = 447715
REMARK  8 active torsions:
REMARK  status: ('A' for Active; 'I' for Inactive)
REMARK    1  A    between atoms: C_7  and  C_24
REMARK    2  A    between atoms: C_8  and  O_20
REMARK    3  A    between atoms: C_11  and  C_32
REMARK    4  A    between atoms: C_19  and  O_22
REMARK    5  A    between atoms: C_24  and  C_26
REMARK    6  A    between atoms: C_26  and  C_27
REMARK    7  A    between atoms: C_27  and  C_29
REMARK    8  A    between atoms: C_29  and  O_30
REMARK                            x       y       z     vdW  Elec       q    Type
REMARK                         _______ _______ _______ _____ _____    ______ ____
ROOT
ATOM      1  C   UNL     1      32.997 -10.266 -22.708  0.00  0.00    +0.027 C 
ATOM      2  C   UNL     1      33.039  -9.341 -23.962  0.00  0.00    +0.002 C 
ATOM      3  C   UNL     1      32.543 -11.666 -23.153  0.00  0.00    +0.002 C 
ATOM      4  C   UNL     1      33.483 -12.307 -24.196  0.00  0.00    +0.000 C 
ATOM      5  C   UNL     1      33.462  -7.859 -23.625  0.00  0.00    +0.000 C 
ATOM      6  C   UNL     1      32.632  -7.287 -22.412  0.00  0.00    +0.005 C 
ATOM      7  C   UNL     1      32.780 -13.676 -24.357  0.00  0.00    +0.000 C 
ATOM      8  C   UNL     1      32.080  -9.684 -21.616  0.00  0.00    +0.110 C 
ATOM      9  C   UNL     1      33.863  -9.973 -25.121  0.00  0.00    +0.000 C 
ATOM     10  C   UNL     1      33.459 -11.420 -25.448  0.00  0.00    +0.000 C 
ATOM     11  C   UNL     1      32.546  -8.276 -21.217  0.00  0.00    +0.027 C 
ATOM     12  C   UNL     1      32.380 -12.758 -22.099  0.00  0.00    +0.000 C 
ATOM     13  C   UNL     1      32.406 -14.068 -22.908  0.00  0.00    +0.000 C 
ATOM     14  C   UNL     1      33.232  -6.980 -24.902  0.00  0.00    +0.002 C 
ATOM     15  C   UNL     1      31.286  -6.734 -22.910  0.00  0.00    +0.029 C 
ATOM     16  C   UNL     1      34.943 -12.485 -23.708  0.00  0.00    +0.000 C 
ATOM     17  C   UNL     1      34.965  -7.774 -23.254  0.00  0.00    +0.000 C 
ATOM     18  C   UNL     1      32.823  -5.546 -24.579  0.00  0.00    +0.029 C 
ATOM     19  C   UNL     1      31.492  -5.515 -23.822  0.00  0.00    +0.111 C 
ENDROOT
BRANCH   8  20
ATOM     20  O   UNL     1      30.731  -9.675 -22.067  0.00  0.00    -0.384 OA
ATOM     21  H   UNL     1      30.703  -9.402 -22.998  0.00  0.00    +0.210 HD
ENDBRANCH   8  20
BRANCH  19  22
ATOM     22  O   UNL     1      30.406  -5.471 -24.744  0.00  0.00    -0.384 OA
ATOM     23  H   UNL     1      30.189  -4.547 -24.944  0.00  0.00    +0.210 HD
ENDBRANCH  19  22
BRANCH   7  24
ATOM     24  C   UNL     1      33.559 -14.763 -25.082  0.00  0.00    +0.001 C 
ATOM     25  C   UNL     1      32.783 -15.231 -26.318  0.00  0.00    +0.000 C 
BRANCH  24  26
ATOM     26  C   UNL     1      33.870 -15.927 -24.120  0.00  0.00    +0.012 C 
BRANCH  26  27
ATOM     27  C   UNL     1      34.610 -17.093 -24.780  0.00  0.00    +0.109 C 
BRANCH  27  29
ATOM     28  O   UNL     1      34.676 -19.228 -23.610  0.00  0.00    -0.250 OA
ATOM     29  C   UNL     1      35.107 -18.093 -23.762  0.00  0.00    +0.314 C 
BRANCH  29  30
ATOM     30  O   UNL     1      36.109 -17.574 -23.005  0.00  0.00    -0.480 OA
ATOM     31  H   UNL     1      36.788 -18.133 -22.678  0.00  0.00    +0.295 HD
ENDBRANCH  29  30
ENDBRANCH  27  29
ENDBRANCH  26  27
ENDBRANCH  24  26
ENDBRANCH   7  24
BRANCH  11  32
ATOM     32  C   UNL     1      31.733  -7.720 -20.042  0.00  0.00    +0.002 C 
ATOM     33  C   UNL     1      32.339  -6.437 -19.517  0.00  0.00    +0.000 C 
ENDBRANCH  11  32
TORSDOF 8
ENDMDL
MODEL 6
REMARK VINA RESULT:      -6.9      2.947      4.587
REMARK  Name = 447715
REMARK  8 active torsions:
REMARK  status: ('A' for Active; 'I' for Inactive)
REMARK    1  A    between atoms: C_7  and  C_24
REMARK    2  A    between atoms: C_8  and  O_20
REMARK    3  A    between atoms: C_11  and  C_32
REMARK    4  A    between atoms: C_19  and  O_22
REMARK    5  A    between atoms: C_24  and  C_26
REMARK    6  A    between atoms: C_26  and  C_27
REMARK    7  A    between atoms: C_27  and  C_29
REMARK    8  A    between atoms: C_29  and  O_30
REMARK                            x       y       z     vdW  Elec       q    Type
REMARK                         _______ _______ _______ _____ _____    ______ ____
ROOT
ATOM      1  C   UNL     1      32.597 -12.069 -22.654  0.00  0.00    +0.027 C 
ATOM      2  C   UNL     1      32.599 -11.608 -21.165  0.00  0.00    +0.002 C 
ATOM      3  C   UNL     1      33.672 -13.155 -22.826  0.00  0.00    +0.002 C 
ATOM      4  C   UNL     1      33.434 -14.393 -21.935  0.00  0.00    +0.000 C 
ATOM      5  C   UNL     1      31.552 -10.465 -20.870  0.00  0.00    +0.000 C 
ATOM      6  C   UNL     1      31.668  -9.295 -21.922  0.00  0.00    +0.005 C 
ATOM      7  C   UNL     1      34.625 -15.266 -22.400  0.00  0.00    +0.000 C 
ATOM      8  C   UNL     1      32.823 -10.881 -23.606  0.00  0.00    +0.110 C 
ATOM      9  C   UNL     1      32.494 -12.812 -20.184  0.00  0.00    +0.000 C 
ATOM     10  C   UNL     1      33.508 -13.933 -20.473  0.00  0.00    +0.000 C 
ATOM     11  C   UNL     1      31.749  -9.805 -23.387  0.00  0.00    +0.027 C 
ATOM     12  C   UNL     1      33.904 -13.751 -24.212  0.00  0.00    +0.000 C 
ATOM     13  C   UNL     1      34.643 -15.073 -23.934  0.00  0.00    +0.000 C 
ATOM     14  C   UNL     1      31.815  -9.921 -19.424  0.00  0.00    +0.002 C 
ATOM     15  C   UNL     1      32.778  -8.316 -21.501  0.00  0.00    +0.029 C 
ATOM     16  C   UNL     1      32.085 -15.109 -22.193  0.00  0.00    +0.000 C 
ATOM     17  C   UNL     1      30.101 -11.005 -20.918  0.00  0.00    +0.000 C 
ATOM     18  C   UNL     1      31.512  -8.432 -19.277  0.00  0.00    +0.029 C 
ATOM     19  C   UNL     1      32.415  -7.600 -20.192  0.00  0.00    +0.111 C 
ENDROOT
BRANCH   8  20
ATOM     20  O   UNL     1      34.131 -10.351 -23.423  0.00  0.00    -0.384 OA
ATOM     21  H   UNL     1      34.725 -10.718 -24.097  0.00  0.00    +0.210 HD
ENDBRANCH   8  20
BRANCH  19  22
ATOM     22  O   UNL     1      33.630  -7.277 -19.518  0.00  0.00    -0.384 OA
ATOM     23  H   UNL     1      34.307  -7.037 -20.170  0.00  0.00    +0.210 HD
ENDBRANCH  19  22
BRANCH   7  24
ATOM     24  C   UNL     1      34.598 -16.731 -21.988  0.00  0.00    +0.001 C 
ATOM     25  C   UNL     1      35.215 -16.896 -20.595  0.00  0.00    +0.000 C 
BRANCH  24  26
ATOM     26  C   UNL     1      35.318 -17.594 -23.045  0.00  0.00    +0.012 C 
BRANCH  26  27
ATOM     27  C   UNL     1      34.720 -18.993 -23.211  0.00  0.00    +0.109 C 
BRANCH  27  29
ATOM     28  O   UNL     1      35.509 -20.175 -21.233  0.00  0.00    -0.250 OA
ATOM     29  C   UNL     1      34.587 -19.709 -21.886  0.00  0.00    +0.314 C 
BRANCH  29  30
ATOM     30  O   UNL     1      33.288 -19.786 -21.494  0.00  0.00    -0.480 OA
ATOM     31  H   UNL     1      33.067 -20.201 -20.682  0.00  0.00    +0.295 HD
ENDBRANCH  29  30
ENDBRANCH  27  29
ENDBRANCH  26  27
ENDBRANCH  24  26
ENDBRANCH   7  24
BRANCH  11  32
ATOM     32  C   UNL     1      31.868  -8.666 -24.406  0.00  0.00    +0.002 C 
ATOM     33  C   UNL     1      30.931  -7.527 -24.066  0.00  0.00    +0.000 C 
ENDBRANCH  11  32
TORSDOF 8
ENDMDL
