MODEL 1
REMARK VINA RESULT:      -8.0      0.000      0.000
REMARK  Name = 4636
REMARK  4 active torsions:
REMARK  status: ('A' for Active; 'I' for Inactive)
REMARK    1  A    between atoms: C_1  and  C_9
REMARK    2  A    between atoms: C_2  and  C_15
REMARK    3  A    between atoms: C_3  and  O_13
REMARK    4  A    between atoms: C_15  and  C_18
REMARK                            x       y       z     vdW  Elec       q    Type
REMARK                         _______ _______ _______ _____ _____    ______ ____
ROOT
ATOM      1  C   UNL     1      31.535 -23.623 -15.381  0.00  0.00    +0.010 C 
ATOM      2  C   UNL     1      34.274 -23.426 -15.369  0.00  0.00    -0.020 C 
ATOM      3  C   UNL     1      32.200 -23.841 -14.200  0.00  0.00    +0.125 C 
ATOM      4  C   UNL     1      33.591 -23.740 -14.194  0.00  0.00    +0.008 C 
ATOM      5  C   UNL     1      33.564 -23.213 -16.552  0.00  0.00    -0.026 C 
ATOM      6  C   UNL     1      32.173 -23.313 -16.558  0.00  0.00    -0.006 C 
ATOM      7  C   UNL     1      34.346 -23.969 -12.922  0.00  0.00    +0.034 C 
ATOM      8  C   UNL     1      34.271 -22.873 -17.823  0.00  0.00    +0.031 C 
ENDROOT
BRANCH   1   9
ATOM      9  C   UNL     1      30.002 -23.731 -15.410  0.00  0.00    +0.022 C 
ATOM     10  C   UNL     1      29.506 -23.701 -16.872  0.00  0.00    +0.004 C 
ATOM     11  C   UNL     1      29.383 -22.544 -14.640  0.00  0.00    +0.004 C 
ATOM     12  C   UNL     1      29.454 -25.026 -14.769  0.00  0.00    +0.004 C 
ENDBRANCH   1   9
BRANCH   3  13
ATOM     13  O   UNL     1      31.531 -24.146 -13.051  0.00  0.00    -0.506 OA
ATOM     14  H   UNL     1      31.868 -24.802 -12.474  0.00  0.00    +0.292 HD
ENDBRANCH   3  13
BRANCH   2  15
ATOM     15  C   UNL     1      35.765 -23.317 -15.364  0.00  0.00    +0.087 C 
BRANCH  15  18
ATOM     16  N   UNL     1      37.570 -24.765 -14.492  0.00  0.00    -0.299 N 
ATOM     17  N   UNL     1      35.878 -25.731 -15.689  0.00  0.00    -0.232 NA
ATOM     18  C   UNL     1      36.410 -24.652 -15.186  0.00  0.00    +0.113 C 
ATOM     19  C   UNL     1      37.974 -26.140 -14.466  0.00  0.00    +0.084 C 
ATOM     20  C   UNL     1      36.840 -26.803 -15.273  0.00  0.00    +0.116 C 
ATOM     21  H   UNL     1      38.058 -24.020 -14.072  0.00  0.00    +0.153 HD
ENDBRANCH  15  18
ENDBRANCH   2  15
TORSDOF 4
ENDMDL
MODEL 2
REMARK VINA RESULT:      -7.9      1.203      2.547
REMARK  Name = 4636
REMARK  4 active torsions:
REMARK  status: ('A' for Active; 'I' for Inactive)
REMARK    1  A    between atoms: C_1  and  C_9
REMARK    2  A    between atoms: C_2  and  C_15
REMARK    3  A    between atoms: C_3  and  O_13
REMARK    4  A    between atoms: C_15  and  C_18
REMARK                            x       y       z     vdW  Elec       q    Type
REMARK                         _______ _______ _______ _____ _____    ______ ____
ROOT
ATOM      1  C   UNL     1      31.967 -23.709 -14.890  0.00  0.00    +0.010 C 
ATOM      2  C   UNL     1      34.693 -23.451 -15.094  0.00  0.00    -0.020 C 
ATOM      3  C   UNL     1      32.499 -23.341 -16.100  0.00  0.00    +0.125 C 
ATOM      4  C   UNL     1      33.884 -23.211 -16.204  0.00  0.00    +0.008 C 
ATOM      5  C   UNL     1      34.116 -23.822 -13.878  0.00  0.00    -0.026 C 
ATOM      6  C   UNL     1      32.731 -23.953 -13.775  0.00  0.00    -0.006 C 
ATOM      7  C   UNL     1      34.496 -22.813 -17.510  0.00  0.00    +0.034 C 
ATOM      8  C   UNL     1      34.960 -24.088 -12.675  0.00  0.00    +0.031 C 
ENDROOT
BRANCH   1   9
ATOM      9  C   UNL     1      30.443 -23.857 -14.754  0.00  0.00    +0.022 C 
ATOM     10  C   UNL     1      30.086 -24.258 -13.306  0.00  0.00    +0.004 C 
ATOM     11  C   UNL     1      29.938 -24.949 -15.722  0.00  0.00    +0.004 C 
ATOM     12  C   UNL     1      29.658 -22.565 -15.075  0.00  0.00    +0.004 C 
ENDBRANCH   1   9
BRANCH   3  13
ATOM     13  O   UNL     1      31.707 -23.108 -17.186  0.00  0.00    -0.506 OA
ATOM     14  H   UNL     1      30.778 -23.211 -17.119  0.00  0.00    +0.292 HD
ENDBRANCH   3  13
BRANCH   2  15
ATOM     15  C   UNL     1      36.178 -23.312 -15.204  0.00  0.00    +0.087 C 
BRANCH  15  18
ATOM     16  N   UNL     1      38.083 -24.720 -14.497  0.00  0.00    -0.299 N 
ATOM     17  N   UNL     1      36.302 -25.727 -15.519  0.00  0.00    -0.232 NA
ATOM     18  C   UNL     1      36.861 -24.634 -15.078  0.00  0.00    +0.113 C 
ATOM     19  C   UNL     1      38.513 -26.088 -14.499  0.00  0.00    +0.084 C 
ATOM     20  C   UNL     1      37.319 -26.778 -15.189  0.00  0.00    +0.116 C 
ATOM     21  H   UNL     1      38.595 -23.963 -14.131  0.00  0.00    +0.153 HD
ENDBRANCH  15  18
ENDBRANCH   2  15
TORSDOF 4
ENDMDL
MODEL 3
REMARK VINA RESULT:      -7.9      2.445      4.813
REMARK  Name = 4636
REMARK  4 active torsions:
REMARK  status: ('A' for Active; 'I' for Inactive)
REMARK    1  A    between atoms: C_1  and  C_9
REMARK    2  A    between atoms: C_2  and  C_15
REMARK    3  A    between atoms: C_3  and  O_13
REMARK    4  A    between atoms: C_15  and  C_18
REMARK                            x       y       z     vdW  Elec       q    Type
REMARK                         _______ _______ _______ _____ _____    ______ ____
ROOT
ATOM      1  C   UNL     1      35.300 -21.877 -18.536  0.00  0.00    +0.010 C 
ATOM      2  C   UNL     1      35.083 -23.071 -16.073  0.00  0.00    -0.020 C 
ATOM      3  C   UNL     1      34.101 -22.450 -18.191  0.00  0.00    +0.125 C 
ATOM      4  C   UNL     1      33.991 -23.056 -16.940  0.00  0.00    +0.008 C 
ATOM      5  C   UNL     1      36.287 -22.479 -16.458  0.00  0.00    -0.026 C 
ATOM      6  C   UNL     1      36.397 -21.873 -17.709  0.00  0.00    -0.006 C 
ATOM      7  C   UNL     1      32.697 -23.687 -16.533  0.00  0.00    +0.034 C 
ATOM      8  C   UNL     1      37.471 -22.479 -15.547  0.00  0.00    +0.031 C 
ENDROOT
BRANCH   1   9
ATOM      9  C   UNL     1      35.443 -21.206 -19.911  0.00  0.00    +0.022 C 
ATOM     10  C   UNL     1      35.628 -22.285 -21.000  0.00  0.00    +0.004 C 
ATOM     11  C   UNL     1      36.671 -20.271 -19.909  0.00  0.00    +0.004 C 
ATOM     12  C   UNL     1      34.221 -20.352 -20.320  0.00  0.00    +0.004 C 
ENDBRANCH   1   9
BRANCH   3  13
ATOM     13  O   UNL     1      33.033 -22.433 -19.040  0.00  0.00    -0.506 OA
ATOM     14  H   UNL     1      32.165 -22.531 -18.702  0.00  0.00    +0.292 HD
ENDBRANCH   3  13
BRANCH   2  15
ATOM     15  C   UNL     1      34.966 -23.719 -14.730  0.00  0.00    +0.087 C 
BRANCH  15  18
ATOM     16  N   UNL     1      36.386 -25.323 -13.494  0.00  0.00    -0.299 N 
ATOM     17  N   UNL     1      35.924 -25.744 -15.694  0.00  0.00    -0.232 NA
ATOM     18  C   UNL     1      35.779 -24.969 -14.655  0.00  0.00    +0.113 C 
ATOM     19  C   UNL     1      37.095 -26.553 -13.686  0.00  0.00    +0.084 C 
ATOM     20  C   UNL     1      36.793 -26.847 -15.169  0.00  0.00    +0.116 C 
ATOM     21  H   UNL     1      36.345 -24.814 -12.652  0.00  0.00    +0.153 HD
ENDBRANCH  15  18
ENDBRANCH   2  15
TORSDOF 4
ENDMDL
MODEL 4
REMARK VINA RESULT:      -7.8     13.590     15.494
REMARK  Name = 4636
REMARK  4 active torsions:
REMARK  status: ('A' for Active; 'I' for Inactive)
REMARK    1  A    between atoms: C_1  and  C_9
REMARK    2  A    between atoms: C_2  and  C_15
REMARK    3  A    between atoms: C_3  and  O_13
REMARK    4  A    between atoms: C_15  and  C_18
REMARK                            x       y       z     vdW  Elec       q    Type
REMARK                         _______ _______ _______ _____ _____    ______ ____
ROOT
ATOM      1  C   UNL     1      33.031  -9.291 -22.933  0.00  0.00    +0.010 C 
ATOM      2  C   UNL     1      32.381 -11.958 -22.878  0.00  0.00    -0.020 C 
ATOM      3  C   UNL     1      33.642 -10.131 -23.831  0.00  0.00    +0.125 C 
ATOM      4  C   UNL     1      33.311 -11.486 -23.803  0.00  0.00    +0.008 C 
ATOM      5  C   UNL     1      31.781 -11.075 -21.980  0.00  0.00    -0.026 C 
ATOM      6  C   UNL     1      32.111  -9.720 -22.008  0.00  0.00    -0.006 C 
ATOM      7  C   UNL     1      33.958 -12.427 -24.770  0.00  0.00    +0.034 C 
ATOM      8  C   UNL     1      30.779 -11.555 -20.980  0.00  0.00    +0.031 C 
ENDROOT
BRANCH   1   9
ATOM      9  C   UNL     1      33.383  -7.795 -22.947  0.00  0.00    +0.022 C 
ATOM     10  C   UNL     1      33.085  -7.178 -21.563  0.00  0.00    +0.004 C 
ATOM     11  C   UNL     1      32.538  -7.071 -24.017  0.00  0.00    +0.004 C 
ATOM     12  C   UNL     1      34.867  -7.504 -23.265  0.00  0.00    +0.004 C 
ENDBRANCH   1   9
BRANCH   3  13
ATOM     13  O   UNL     1      34.551  -9.667 -24.737  0.00  0.00    -0.506 OA
ATOM     14  H   UNL     1      34.954  -8.831 -24.610  0.00  0.00    +0.292 HD
ENDBRANCH   3  13
BRANCH   2  15
ATOM     15  C   UNL     1      32.025 -13.410 -22.848  0.00  0.00    +0.087 C 
BRANCH  15  18
ATOM     16  N   UNL     1      33.747 -15.184 -22.814  0.00  0.00    -0.299 N 
ATOM     17  N   UNL     1      33.356 -14.006 -20.893  0.00  0.00    -0.232 NA
ATOM     18  C   UNL     1      33.070 -14.215 -22.149  0.00  0.00    +0.113 C 
ATOM     19  C   UNL     1      34.687 -15.800 -21.925  0.00  0.00    +0.084 C 
ATOM     20  C   UNL     1      34.432 -15.014 -20.623  0.00  0.00    +0.116 C 
ATOM     21  H   UNL     1      33.613 -15.427 -23.758  0.00  0.00    +0.153 HD
ENDBRANCH  15  18
ENDBRANCH   2  15
TORSDOF 4
ENDMDL
MODEL 5
REMARK VINA RESULT:      -7.7      9.118     11.323
REMARK  Name = 4636
REMARK  4 active torsions:
REMARK  status: ('A' for Active; 'I' for Inactive)
REMARK    1  A    between atoms: C_1  and  C_9
REMARK    2  A    between atoms: C_2  and  C_15
REMARK    3  A    between atoms: C_3  and  O_13
REMARK    4  A    between atoms: C_15  and  C_18
REMARK                            x       y       z     vdW  Elec       q    Type
REMARK                         _______ _______ _______ _____ _____    ______ ____
ROOT
ATOM      1  C   UNL     1      33.855 -15.070 -23.804  0.00  0.00    +0.010 C 
ATOM      2  C   UNL     1      35.052 -17.047 -22.320  0.00  0.00    -0.020 C 
ATOM      3  C   UNL     1      34.260 -16.215 -24.445  0.00  0.00    +0.125 C 
ATOM      4  C   UNL     1      34.867 -17.219 -23.691  0.00  0.00    +0.008 C 
ATOM      5  C   UNL     1      34.630 -15.868 -21.702  0.00  0.00    -0.026 C 
ATOM      6  C   UNL     1      34.022 -14.865 -22.456  0.00  0.00    -0.006 C 
ATOM      7  C   UNL     1      35.317 -18.479 -24.360  0.00  0.00    +0.034 C 
ATOM      8  C   UNL     1      34.814 -15.660 -20.234  0.00  0.00    +0.031 C 
ENDROOT
BRANCH   1   9
ATOM      9  C   UNL     1      33.185 -13.952 -24.617  0.00  0.00    +0.022 C 
ATOM     10  C   UNL     1      34.212 -12.836 -24.911  0.00  0.00    +0.004 C 
ATOM     11  C   UNL     1      32.007 -13.358 -23.814  0.00  0.00    +0.004 C 
ATOM     12  C   UNL     1      32.619 -14.420 -25.977  0.00  0.00    +0.004 C 
ENDBRANCH   1   9
BRANCH   3  13
ATOM     13  O   UNL     1      34.076 -16.383 -25.787  0.00  0.00    -0.506 OA
ATOM     14  H   UNL     1      34.519 -15.823 -26.393  0.00  0.00    +0.292 HD
ENDBRANCH   3  13
BRANCH   2  15
ATOM     15  C   UNL     1      35.703 -18.122 -21.510  0.00  0.00    +0.087 C 
BRANCH  15  18
ATOM     16  N   UNL     1      35.099 -20.169 -20.261  0.00  0.00    -0.299 N 
ATOM     17  N   UNL     1      33.423 -18.931 -21.203  0.00  0.00    -0.232 NA
ATOM     18  C   UNL     1      34.698 -19.093 -20.983  0.00  0.00    +0.113 C 
ATOM     19  C   UNL     1      33.950 -20.935 -19.876  0.00  0.00    +0.084 C 
ATOM     20  C   UNL     1      32.812 -20.110 -20.509  0.00  0.00    +0.116 C 
ATOM     21  H   UNL     1      36.032 -20.389 -20.036  0.00  0.00    +0.153 HD
ENDBRANCH  15  18
ENDBRANCH   2  15
TORSDOF 4
ENDMDL
MODEL 6
REMARK VINA RESULT:      -7.7     13.540     15.378
REMARK  Name = 4636
REMARK  4 active torsions:
REMARK  status: ('A' for Active; 'I' for Inactive)
REMARK    1  A    between atoms: C_1  and  C_9
REMARK    2  A    between atoms: C_2  and  C_15
REMARK    3  A    between atoms: C_3  and  O_13
REMARK    4  A    between atoms: C_15  and  C_18
REMARK                            x       y       z     vdW  Elec       q    Type
REMARK                         _______ _______ _______ _____ _____    ______ ____
ROOT
ATOM      1  C   UNL     1      33.114  -9.229 -22.992  0.00  0.00    +0.010 C 
ATOM      2  C   UNL     1      32.566 -11.913 -23.177  0.00  0.00    -0.020 C 
ATOM      3  C   UNL     1      32.231  -9.779 -22.095  0.00  0.00    +0.125 C 
ATOM      4  C   UNL     1      31.954 -11.143 -22.190  0.00  0.00    +0.008 C 
ATOM      5  C   UNL     1      33.456 -11.319 -24.073  0.00  0.00    -0.026 C 
ATOM      6  C   UNL     1      33.735  -9.956 -23.978  0.00  0.00    -0.006 C 
ATOM      7  C   UNL     1      30.998 -11.774 -21.226  0.00  0.00    +0.034 C 
ATOM      8  C   UNL     1      34.128 -12.122 -25.139  0.00  0.00    +0.031 C 
ENDROOT
BRANCH   1   9
ATOM      9  C   UNL     1      33.433  -7.728 -22.905  0.00  0.00    +0.022 C 
ATOM     10  C   UNL     1      32.376  -6.926 -23.696  0.00  0.00    +0.004 C 
ATOM     11  C   UNL     1      34.829  -7.457 -23.505  0.00  0.00    +0.004 C 
ATOM     12  C   UNL     1      33.440  -7.172 -21.463  0.00  0.00    +0.004 C 
ENDBRANCH   1   9
BRANCH   3  13
ATOM     13  O   UNL     1      31.635  -9.025 -21.128  0.00  0.00    -0.506 OA
ATOM     14  H   UNL     1      31.825  -9.186 -20.225  0.00  0.00    +0.292 HD
ENDBRANCH   3  13
BRANCH   2  15
ATOM     15  C   UNL     1      32.269 -13.376 -23.280  0.00  0.00    +0.087 C 
BRANCH  15  18
ATOM     16  N   UNL     1      32.381 -14.923 -21.355  0.00  0.00    -0.299 N 
ATOM     17  N   UNL     1      34.338 -14.132 -22.233  0.00  0.00    -0.232 NA
ATOM     18  C   UNL     1      33.035 -14.161 -22.266  0.00  0.00    +0.113 C 
ATOM     19  C   UNL     1      33.337 -15.570 -20.506  0.00  0.00    +0.084 C 
ATOM     20  C   UNL     1      34.663 -15.041 -21.087  0.00  0.00    +0.116 C 
ATOM     21  H   UNL     1      31.403 -15.018 -21.287  0.00  0.00    +0.153 HD
ENDBRANCH  15  18
ENDBRANCH   2  15
TORSDOF 4
ENDMDL
MODEL 7
REMARK VINA RESULT:      -7.6     11.074     13.429
REMARK  Name = 4636
REMARK  4 active torsions:
REMARK  status: ('A' for Active; 'I' for Inactive)
REMARK    1  A    between atoms: C_1  and  C_9
REMARK    2  A    between atoms: C_2  and  C_15
REMARK    3  A    between atoms: C_3  and  O_13
REMARK    4  A    between atoms: C_15  and  C_18
REMARK                            x       y       z     vdW  Elec       q    Type
REMARK                         _______ _______ _______ _____ _____    ______ ____
ROOT
ATOM      1  C   UNL     1      34.454 -16.897 -23.239  0.00  0.00    +0.010 C 
ATOM      2  C   UNL     1      33.239 -14.506 -23.829  0.00  0.00    -0.020 C 
ATOM      3  C   UNL     1      34.180 -16.032 -22.209  0.00  0.00    +0.125 C 
ATOM      4  C   UNL     1      33.562 -14.818 -22.509  0.00  0.00    +0.008 C 
ATOM      5  C   UNL     1      33.535 -15.409 -24.851  0.00  0.00    -0.026 C 
ATOM      6  C   UNL     1      34.151 -16.623 -24.551  0.00  0.00    -0.006 C 
ATOM      7  C   UNL     1      33.248 -13.854 -21.408  0.00  0.00    +0.034 C 
ATOM      8  C   UNL     1      33.197 -15.101 -26.273  0.00  0.00    +0.031 C 
ENDROOT
BRANCH   1   9
ATOM      9  C   UNL     1      35.135 -18.239 -22.930  0.00  0.00    +0.022 C 
ATOM     10  C   UNL     1      35.168 -19.111 -24.205  0.00  0.00    +0.004 C 
ATOM     11  C   UNL     1      34.348 -18.981 -21.829  0.00  0.00    +0.004 C 
ATOM     12  C   UNL     1      36.593 -18.102 -22.435  0.00  0.00    +0.004 C 
ENDBRANCH   1   9
BRANCH   3  13
ATOM     13  O   UNL     1      34.495 -16.339 -20.918  0.00  0.00    -0.506 OA
ATOM     14  H   UNL     1      35.075 -17.051 -20.734  0.00  0.00    +0.292 HD
ENDBRANCH   3  13
BRANCH   2  15
ATOM     15  C   UNL     1      32.577 -13.205 -24.152  0.00  0.00    +0.087 C 
BRANCH  15  18
ATOM     16  N   UNL     1      34.158 -11.355 -23.711  0.00  0.00    -0.299 N 
ATOM     17  N   UNL     1      33.887 -12.069 -25.866  0.00  0.00    -0.232 NA
ATOM     18  C   UNL     1      33.568 -12.185 -24.607  0.00  0.00    +0.113 C 
ATOM     19  C   UNL     1      35.061 -10.481 -24.398  0.00  0.00    +0.084 C 
ATOM     20  C   UNL     1      34.886 -10.951 -25.856  0.00  0.00    +0.116 C 
ATOM     21  H   UNL     1      33.991 -11.354 -22.740  0.00  0.00    +0.153 HD
ENDBRANCH  15  18
ENDBRANCH   2  15
TORSDOF 4
ENDMDL
MODEL 8
REMARK VINA RESULT:      -7.6      8.956     11.085
REMARK  Name = 4636
REMARK  4 active torsions:
REMARK  status: ('A' for Active; 'I' for Inactive)
REMARK    1  A    between atoms: C_1  and  C_9
REMARK    2  A    between atoms: C_2  and  C_15
REMARK    3  A    between atoms: C_3  and  O_13
REMARK    4  A    between atoms: C_15  and  C_18
REMARK                            x       y       z     vdW  Elec       q    Type
REMARK                         _______ _______ _______ _____ _____    ______ ____
ROOT
ATOM      1  C   UNL     1      33.835 -15.019 -23.660  0.00  0.00    +0.010 C 
ATOM      2  C   UNL     1      35.033 -17.123 -22.365  0.00  0.00    -0.020 C 
ATOM      3  C   UNL     1      34.037 -14.923 -22.305  0.00  0.00    +0.125 C 
ATOM      4  C   UNL     1      34.646 -15.992 -21.648  0.00  0.00    +0.008 C 
ATOM      5  C   UNL     1      34.810 -17.186 -23.741  0.00  0.00    -0.026 C 
ATOM      6  C   UNL     1      34.202 -16.117 -24.398  0.00  0.00    -0.006 C 
ATOM      7  C   UNL     1      34.882 -15.917 -20.172  0.00  0.00    +0.034 C 
ATOM      8  C   UNL     1      35.217 -18.386 -24.533  0.00  0.00    +0.031 C 
ENDROOT
BRANCH   1   9
ATOM      9  C   UNL     1      33.164 -13.853 -24.403  0.00  0.00    +0.022 C 
ATOM     10  C   UNL     1      31.901 -13.405 -23.634  0.00  0.00    +0.004 C 
ATOM     11  C   UNL     1      32.761 -14.304 -25.823  0.00  0.00    +0.004 C 
ATOM     12  C   UNL     1      34.067 -12.608 -24.558  0.00  0.00    +0.004 C 
ENDBRANCH   1   9
BRANCH   3  13
ATOM     13  O   UNL     1      33.659 -13.814 -21.605  0.00  0.00    -0.506 OA
ATOM     14  H   UNL     1      34.309 -13.266 -21.211  0.00  0.00    +0.292 HD
ENDBRANCH   3  13
BRANCH   2  15
ATOM     15  C   UNL     1      35.687 -18.270 -21.661  0.00  0.00    +0.087 C 
BRANCH  15  18
ATOM     16  N   UNL     1      35.052 -20.161 -20.200  0.00  0.00    -0.299 N 
ATOM     17  N   UNL     1      33.417 -19.131 -21.423  0.00  0.00    -0.232 NA
ATOM     18  C   UNL     1      34.676 -19.207 -21.088  0.00  0.00    +0.113 C 
ATOM     19  C   UNL     1      33.903 -20.920 -19.804  0.00  0.00    +0.084 C 
ATOM     20  C   UNL     1      32.792 -20.235 -20.626  0.00  0.00    +0.116 C 
ATOM     21  H   UNL     1      35.971 -20.309 -19.878  0.00  0.00    +0.153 HD
ENDBRANCH  15  18
ENDBRANCH   2  15
TORSDOF 4
ENDMDL
MODEL 9
REMARK VINA RESULT:      -7.4     11.278     13.729
REMARK  Name = 4636
REMARK  4 active torsions:
REMARK  status: ('A' for Active; 'I' for Inactive)
REMARK    1  A    between atoms: C_1  and  C_9
REMARK    2  A    between atoms: C_2  and  C_15
REMARK    3  A    between atoms: C_3  and  O_13
REMARK    4  A    between atoms: C_15  and  C_18
REMARK                            x       y       z     vdW  Elec       q    Type
REMARK                         _______ _______ _______ _____ _____    ______ ____
ROOT
ATOM      1  C   UNL     1      34.367 -16.857 -23.222  0.00  0.00    +0.010 C 
ATOM      2  C   UNL     1      33.167 -14.480 -23.893  0.00  0.00    -0.020 C 
ATOM      3  C   UNL     1      34.165 -16.579 -24.551  0.00  0.00    +0.125 C 
ATOM      4  C   UNL     1      33.556 -15.372 -24.892  0.00  0.00    +0.008 C 
ATOM      5  C   UNL     1      33.387 -14.797 -22.552  0.00  0.00    -0.026 C 
ATOM      6  C   UNL     1      33.997 -16.004 -22.211  0.00  0.00    -0.006 C 
ATOM      7  C   UNL     1      33.324 -15.039 -26.332  0.00  0.00    +0.034 C 
ATOM      8  C   UNL     1      32.981 -13.858 -21.462  0.00  0.00    +0.031 C 
ENDROOT
BRANCH   1   9
ATOM      9  C   UNL     1      35.036 -18.183 -22.826  0.00  0.00    +0.022 C 
ATOM     10  C   UNL     1      34.410 -18.709 -21.516  0.00  0.00    +0.004 C 
ATOM     11  C   UNL     1      36.548 -17.959 -22.611  0.00  0.00    +0.004 C 
ATOM     12  C   UNL     1      34.885 -19.300 -23.883  0.00  0.00    +0.004 C 
ENDBRANCH   1   9
BRANCH   3  13
ATOM     13  O   UNL     1      34.549 -17.452 -25.528  0.00  0.00    -0.506 OA
ATOM     14  H   UNL     1      34.066 -18.244 -25.664  0.00  0.00    +0.292 HD
ENDBRANCH   3  13
BRANCH   2  15
ATOM     15  C   UNL     1      32.514 -13.185 -24.257  0.00  0.00    +0.087 C 
BRANCH  15  18
ATOM     16  N   UNL     1      34.074 -11.351 -23.695  0.00  0.00    -0.299 N 
ATOM     17  N   UNL     1      33.895 -12.000 -25.880  0.00  0.00    -0.232 NA
ATOM     18  C   UNL     1      33.523 -12.153 -24.639  0.00  0.00    +0.113 C 
ATOM     19  C   UNL     1      35.006 -10.457 -24.318  0.00  0.00    +0.084 C 
ATOM     20  C   UNL     1      34.892 -10.884 -25.795  0.00  0.00    +0.116 C 
ATOM     21  H   UNL     1      33.867 -11.378 -22.733  0.00  0.00    +0.153 HD
ENDBRANCH  15  18
ENDBRANCH   2  15
TORSDOF 4
ENDMDL
