MODEL 1
REMARK VINA RESULT:      -9.0      0.000      0.000
REMARK  Name = 54684141
REMARK  5 active torsions:
REMARK  status: ('A' for Active; 'I' for Inactive)
REMARK    1  A    between atoms: N_2  and  C_5
REMARK    2  A    between atoms: C_3  and  C_15
REMARK    3  A    between atoms: C_6  and  C_14
REMARK    4  A    between atoms: C_15  and  C_21
REMARK    5  A    between atoms: C_16  and  O_18
REMARK                            x       y       z     vdW  Elec       q    Type
REMARK                         _______ _______ _______ _____ _____    ______ ____
ROOT
ATOM      1  O   UNL     1      34.958 -16.312 -20.916  0.00  0.00    -0.269 OA
ATOM      2  N   UNL     1      34.157 -18.058 -22.261  0.00  0.00    -0.280 N 
ATOM      3  C   UNL     1      34.556 -16.756 -21.987  0.00  0.00    +0.262 C 
ATOM      4  H   UNL     1      33.860 -18.239 -23.181  0.00  0.00    +0.155 HD
ENDROOT
BRANCH   2   5
ATOM      5  C   UNL     1      34.130 -19.156 -21.365  0.00  0.00    +0.051 C 
ATOM      6  C   UNL     1      34.074 -21.316 -19.602  0.00  0.00    +0.072 C 
ATOM      7  C   UNL     1      35.316 -19.800 -21.014  0.00  0.00    +0.015 C 
ATOM      8  C   UNL     1      32.916 -19.591 -20.835  0.00  0.00    +0.015 C 
ATOM      9  C   UNL     1      35.289 -20.880 -20.133  0.00  0.00    +0.005 C 
ATOM     10  C   UNL     1      32.888 -20.672 -19.953  0.00  0.00    +0.005 C 
BRANCH   6  14
ATOM     11  F   UNL     1      34.036 -23.674 -19.301  0.00  0.00    -0.166 F 
ATOM     12  F   UNL     1      35.118 -22.515 -17.814  0.00  0.00    -0.166 F 
ATOM     13  F   UNL     1      32.950 -22.483 -17.842  0.00  0.00    -0.166 F 
ATOM     14  C   UNL     1      34.045 -22.471 -18.658  0.00  0.00    +0.419 C 
ENDBRANCH   6  14
ENDBRANCH   2   5
BRANCH   3  15
ATOM     15  C   UNL     1      34.448 -15.858 -23.192  0.00  0.00    +0.151 C 
ATOM     16  C   UNL     1      34.104 -14.567 -23.010  0.00  0.00    +0.126 C 
ATOM     17  C   UNL     1      33.936 -13.548 -24.104  0.00  0.00    +0.072 C 
BRANCH  16  18
ATOM     18  O   UNL     1      33.891 -14.058 -21.737  0.00  0.00    -0.509 OA
ATOM     19  H   UNL     1      34.394 -14.378 -21.015  0.00  0.00    +0.292 HD
ENDBRANCH  16  18
BRANCH  15  21
ATOM     20  N   UNL     1      34.893 -16.851 -25.541  0.00  0.00    -0.191 NA
ATOM     21  C   UNL     1      34.695 -16.400 -24.489  0.00  0.00    +0.108 C 
ENDBRANCH  15  21
ENDBRANCH   3  15
TORSDOF 5
ENDMDL
MODEL 2
REMARK VINA RESULT:      -8.7      1.179      1.813
REMARK  Name = 54684141
REMARK  5 active torsions:
REMARK  status: ('A' for Active; 'I' for Inactive)
REMARK    1  A    between atoms: N_2  and  C_5
REMARK    2  A    between atoms: C_3  and  C_15
REMARK    3  A    between atoms: C_6  and  C_14
REMARK    4  A    between atoms: C_15  and  C_21
REMARK    5  A    between atoms: C_16  and  O_18
REMARK                            x       y       z     vdW  Elec       q    Type
REMARK                         _______ _______ _______ _____ _____    ______ ____
ROOT
ATOM      1  O   UNL     1      35.359 -18.079 -24.009  0.00  0.00    -0.269 OA
ATOM      2  N   UNL     1      34.007 -17.587 -22.157  0.00  0.00    -0.280 N 
ATOM      3  C   UNL     1      34.611 -17.335 -23.383  0.00  0.00    +0.262 C 
ATOM      4  H   UNL     1      33.435 -16.871 -21.798  0.00  0.00    +0.155 HD
ENDROOT
BRANCH   2   5
ATOM      5  C   UNL     1      34.119 -18.757 -21.368  0.00  0.00    +0.051 C 
ATOM      6  C   UNL     1      34.344 -21.062 -19.812  0.00  0.00    +0.072 C 
ATOM      7  C   UNL     1      32.972 -19.393 -20.893  0.00  0.00    +0.015 C 
ATOM      8  C   UNL     1      35.379 -19.274 -21.065  0.00  0.00    +0.015 C 
ATOM      9  C   UNL     1      33.084 -20.545 -20.116  0.00  0.00    +0.005 C 
ATOM     10  C   UNL     1      35.491 -20.426 -20.287  0.00  0.00    +0.005 C 
BRANCH   6  14
ATOM     11  F   UNL     1      35.676 -22.399 -18.367  0.00  0.00    -0.166 F 
ATOM     12  F   UNL     1      33.537 -22.372 -17.980  0.00  0.00    -0.166 F 
ATOM     13  F   UNL     1      34.313 -23.451 -19.694  0.00  0.00    -0.166 F 
ATOM     14  C   UNL     1      34.463 -22.295 -18.981  0.00  0.00    +0.419 C 
ENDBRANCH   6  14
ENDBRANCH   2   5
BRANCH   3  15
ATOM     15  C   UNL     1      34.258 -15.975 -23.927  0.00  0.00    +0.151 C 
ATOM     16  C   UNL     1      34.349 -14.905 -23.110  0.00  0.00    +0.126 C 
ATOM     17  C   UNL     1      34.018 -13.488 -23.491  0.00  0.00    +0.072 C 
BRANCH  16  18
ATOM     18  O   UNL     1      34.797 -15.042 -21.805  0.00  0.00    -0.509 OA
ATOM     19  H   UNL     1      35.648 -15.393 -21.636  0.00  0.00    +0.292 HD
ENDBRANCH  16  18
BRANCH  15  21
ATOM     20  N   UNL     1      33.459 -15.757 -26.380  0.00  0.00    -0.191 NA
ATOM     21  C   UNL     1      33.823 -15.858 -25.282  0.00  0.00    +0.108 C 
ENDBRANCH  15  21
ENDBRANCH   3  15
TORSDOF 5
ENDMDL
MODEL 3
REMARK VINA RESULT:      -8.6      1.571      2.511
REMARK  Name = 54684141
REMARK  5 active torsions:
REMARK  status: ('A' for Active; 'I' for Inactive)
REMARK    1  A    between atoms: N_2  and  C_5
REMARK    2  A    between atoms: C_3  and  C_15
REMARK    3  A    between atoms: C_6  and  C_14
REMARK    4  A    between atoms: C_15  and  C_21
REMARK    5  A    between atoms: C_16  and  O_18
REMARK                            x       y       z     vdW  Elec       q    Type
REMARK                         _______ _______ _______ _____ _____    ______ ____
ROOT
ATOM      1  O   UNL     1      35.424 -17.164 -20.595  0.00  0.00    -0.269 OA
ATOM      2  N   UNL     1      34.200 -18.791 -21.758  0.00  0.00    -0.280 N 
ATOM      3  C   UNL     1      34.843 -17.570 -21.596  0.00  0.00    +0.262 C 
ATOM      4  H   UNL     1      33.781 -18.950 -22.635  0.00  0.00    +0.155 HD
ENDROOT
BRANCH   2   5
ATOM      5  C   UNL     1      34.079 -19.833 -20.807  0.00  0.00    +0.051 C 
ATOM      6  C   UNL     1      33.845 -21.885 -18.932  0.00  0.00    +0.072 C 
ATOM      7  C   UNL     1      32.825 -20.179 -20.305  0.00  0.00    +0.015 C 
ATOM      8  C   UNL     1      35.217 -20.513 -20.371  0.00  0.00    +0.015 C 
ATOM      9  C   UNL     1      32.707 -21.205 -19.368  0.00  0.00    +0.005 C 
ATOM     10  C   UNL     1      35.099 -21.539 -19.434  0.00  0.00    +0.005 C 
BRANCH   6  14
ATOM     11  F   UNL     1      34.759 -23.013 -17.049  0.00  0.00    -0.166 F 
ATOM     12  F   UNL     1      32.591 -22.898 -17.164  0.00  0.00    -0.166 F 
ATOM     13  F   UNL     1      33.675 -24.230 -18.488  0.00  0.00    -0.166 F 
ATOM     14  C   UNL     1      33.718 -22.984 -17.931  0.00  0.00    +0.419 C 
ENDBRANCH   6  14
ENDBRANCH   2   5
BRANCH   3  15
ATOM     15  C   UNL     1      34.764 -16.712 -22.832  0.00  0.00    +0.151 C 
ATOM     16  C   UNL     1      34.922 -17.295 -24.038  0.00  0.00    +0.126 C 
ATOM     17  C   UNL     1      34.889 -16.580 -25.361  0.00  0.00    +0.072 C 
BRANCH  16  18
ATOM     18  O   UNL     1      35.113 -18.664 -24.148  0.00  0.00    -0.509 OA
ATOM     19  H   UNL     1      34.457 -19.197 -24.550  0.00  0.00    +0.292 HD
ENDBRANCH  16  18
BRANCH  15  21
ATOM     20  N   UNL     1      34.371 -14.166 -22.572  0.00  0.00    -0.191 NA
ATOM     21  C   UNL     1      34.542 -15.308 -22.693  0.00  0.00    +0.108 C 
ENDBRANCH  15  21
ENDBRANCH   3  15
TORSDOF 5
ENDMDL
MODEL 4
REMARK VINA RESULT:      -8.6      1.904      2.469
REMARK  Name = 54684141
REMARK  5 active torsions:
REMARK  status: ('A' for Active; 'I' for Inactive)
REMARK    1  A    between atoms: N_2  and  C_5
REMARK    2  A    between atoms: C_3  and  C_15
REMARK    3  A    between atoms: C_6  and  C_14
REMARK    4  A    between atoms: C_15  and  C_21
REMARK    5  A    between atoms: C_16  and  O_18
REMARK                            x       y       z     vdW  Elec       q    Type
REMARK                         _______ _______ _______ _____ _____    ______ ____
ROOT
ATOM      1  O   UNL     1      35.402 -18.277 -23.948  0.00  0.00    -0.269 OA
ATOM      2  N   UNL     1      34.022 -17.747 -22.128  0.00  0.00    -0.280 N 
ATOM      3  C   UNL     1      34.645 -17.521 -23.349  0.00  0.00    +0.262 C 
ATOM      4  H   UNL     1      33.444 -17.024 -21.793  0.00  0.00    +0.155 HD
ENDROOT
BRANCH   2   5
ATOM      5  C   UNL     1      34.122 -18.900 -21.312  0.00  0.00    +0.051 C 
ATOM      6  C   UNL     1      34.324 -21.172 -19.706  0.00  0.00    +0.072 C 
ATOM      7  C   UNL     1      32.970 -19.499 -20.804  0.00  0.00    +0.015 C 
ATOM      8  C   UNL     1      35.376 -19.437 -21.017  0.00  0.00    +0.015 C 
ATOM      9  C   UNL     1      33.070 -20.635 -20.001  0.00  0.00    +0.005 C 
ATOM     10  C   UNL     1      35.476 -20.573 -20.214  0.00  0.00    +0.005 C 
BRANCH   6  14
ATOM     11  F   UNL     1      35.618 -22.457 -18.181  0.00  0.00    -0.166 F 
ATOM     12  F   UNL     1      33.465 -22.464 -17.884  0.00  0.00    -0.166 F 
ATOM     13  F   UNL     1      34.332 -23.558 -19.543  0.00  0.00    -0.166 F 
ATOM     14  C   UNL     1      34.430 -22.387 -18.847  0.00  0.00    +0.419 C 
ENDBRANCH   6  14
ENDBRANCH   2   5
BRANCH   3  15
ATOM     15  C   UNL     1      34.300 -16.173 -23.928  0.00  0.00    +0.151 C 
ATOM     16  C   UNL     1      33.840 -16.108 -25.194  0.00  0.00    +0.126 C 
ATOM     17  C   UNL     1      33.469 -14.845 -25.922  0.00  0.00    +0.072 C 
BRANCH  16  18
ATOM     18  O   UNL     1      33.647 -17.260 -25.942  0.00  0.00    -0.509 OA
ATOM     19  H   UNL     1      34.384 -17.759 -26.232  0.00  0.00    +0.292 HD
ENDBRANCH  16  18
BRANCH  15  21
ATOM     20  N   UNL     1      34.641 -14.060 -22.471  0.00  0.00    -0.191 NA
ATOM     21  C   UNL     1      34.485 -15.004 -23.129  0.00  0.00    +0.108 C 
ENDBRANCH  15  21
ENDBRANCH   3  15
TORSDOF 5
ENDMDL
MODEL 5
REMARK VINA RESULT:      -8.5      8.963     10.737
REMARK  Name = 54684141
REMARK  5 active torsions:
REMARK  status: ('A' for Active; 'I' for Inactive)
REMARK    1  A    between atoms: N_2  and  C_5
REMARK    2  A    between atoms: C_3  and  C_15
REMARK    3  A    between atoms: C_6  and  C_14
REMARK    4  A    between atoms: C_15  and  C_21
REMARK    5  A    between atoms: C_16  and  O_18
REMARK                            x       y       z     vdW  Elec       q    Type
REMARK                         _______ _______ _______ _____ _____    ______ ____
ROOT
ATOM      1  O   UNL     1      35.220 -24.668 -15.616  0.00  0.00    -0.269 OA
ATOM      2  N   UNL     1      33.756 -24.517 -13.790  0.00  0.00    -0.280 N 
ATOM      3  C   UNL     1      34.988 -24.685 -14.412  0.00  0.00    +0.262 C 
ATOM      4  H   UNL     1      33.754 -24.563 -12.807  0.00  0.00    +0.155 HD
ENDROOT
BRANCH   2   5
ATOM      5  C   UNL     1      32.504 -24.286 -14.410  0.00  0.00    +0.051 C 
ATOM      6  C   UNL     1      30.039 -23.830 -15.634  0.00  0.00    +0.072 C 
ATOM      7  C   UNL     1      31.403 -25.073 -14.075  0.00  0.00    +0.015 C 
ATOM      8  C   UNL     1      32.374 -23.271 -15.358  0.00  0.00    +0.015 C 
ATOM      9  C   UNL     1      30.171 -24.845 -14.685  0.00  0.00    +0.005 C 
ATOM     10  C   UNL     1      31.141 -23.043 -15.970  0.00  0.00    +0.005 C 
BRANCH   6  14
ATOM     11  F   UNL     1      28.737 -22.503 -17.115  0.00  0.00    -0.166 F 
ATOM     12  F   UNL     1      28.288 -24.629 -17.055  0.00  0.00    -0.166 F 
ATOM     13  F   UNL     1      27.707 -23.354 -15.401  0.00  0.00    -0.166 F 
ATOM     14  C   UNL     1      28.720 -23.586 -16.286  0.00  0.00    +0.419 C 
ENDBRANCH   6  14
ENDBRANCH   2   5
BRANCH   3  15
ATOM     15  C   UNL     1      36.102 -24.912 -13.424  0.00  0.00    +0.151 C 
ATOM     16  C   UNL     1      37.349 -25.131 -13.890  0.00  0.00    +0.126 C 
ATOM     17  C   UNL     1      38.564 -25.391 -13.041  0.00  0.00    +0.072 C 
BRANCH  16  18
ATOM     18  O   UNL     1      37.614 -25.108 -15.252  0.00  0.00    -0.509 OA
ATOM     19  H   UNL     1      37.505 -24.315 -15.737  0.00  0.00    +0.292 HD
ENDBRANCH  16  18
BRANCH  15  21
ATOM     20  N   UNL     1      35.558 -24.896 -10.893  0.00  0.00    -0.191 NA
ATOM     21  C   UNL     1      35.807 -24.906 -12.027  0.00  0.00    +0.108 C 
ENDBRANCH  15  21
ENDBRANCH   3  15
TORSDOF 5
ENDMDL
MODEL 6
REMARK VINA RESULT:      -8.4      3.227      4.745
REMARK  Name = 54684141
REMARK  5 active torsions:
REMARK  status: ('A' for Active; 'I' for Inactive)
REMARK    1  A    between atoms: N_2  and  C_5
REMARK    2  A    between atoms: C_3  and  C_15
REMARK    3  A    between atoms: C_6  and  C_14
REMARK    4  A    between atoms: C_15  and  C_21
REMARK    5  A    between atoms: C_16  and  O_18
REMARK                            x       y       z     vdW  Elec       q    Type
REMARK                         _______ _______ _______ _____ _____    ______ ____
ROOT
ATOM      1  O   UNL     1      32.045 -13.196 -22.939  0.00  0.00    -0.269 OA
ATOM      2  N   UNL     1      34.361 -13.490 -23.165  0.00  0.00    -0.280 N 
ATOM      3  C   UNL     1      33.163 -12.789 -23.238  0.00  0.00    +0.262 C 
ATOM      4  H   UNL     1      35.168 -13.005 -23.449  0.00  0.00    +0.155 HD
ENDROOT
BRANCH   2   5
ATOM      5  C   UNL     1      34.551 -14.823 -22.727  0.00  0.00    +0.051 C 
ATOM      6  C   UNL     1      34.927 -17.449 -21.862  0.00  0.00    +0.072 C 
ATOM      7  C   UNL     1      34.795 -15.836 -23.655  0.00  0.00    +0.015 C 
ATOM      8  C   UNL     1      34.495 -15.124 -21.366  0.00  0.00    +0.015 C 
ATOM      9  C   UNL     1      34.983 -17.148 -23.223  0.00  0.00    +0.005 C 
ATOM     10  C   UNL     1      34.683 -16.437 -20.933  0.00  0.00    +0.005 C 
BRANCH   6  14
ATOM     11  F   UNL     1      35.097 -19.752 -22.426  0.00  0.00    -0.166 F 
ATOM     12  F   UNL     1      36.324 -19.056 -20.772  0.00  0.00    -0.166 F 
ATOM     13  F   UNL     1      34.182 -19.278 -20.512  0.00  0.00    -0.166 F 
ATOM     14  C   UNL     1      35.129 -18.853 -21.400  0.00  0.00    +0.419 C 
ENDBRANCH   6  14
ENDBRANCH   2   5
BRANCH   3  15
ATOM     15  C   UNL     1      33.351 -11.387 -23.755  0.00  0.00    +0.151 C 
ATOM     16  C   UNL     1      32.696 -10.377 -23.145  0.00  0.00    +0.126 C 
ATOM     17  C   UNL     1      32.761  -8.929 -23.547  0.00  0.00    +0.072 C 
BRANCH  16  18
ATOM     18  O   UNL     1      31.896 -10.613 -22.037  0.00  0.00    -0.509 OA
ATOM     19  H   UNL     1      31.090 -10.148 -21.933  0.00  0.00    +0.292 HD
ENDBRANCH  16  18
BRANCH  15  21
ATOM     20  N   UNL     1      34.888 -10.976 -25.796  0.00  0.00    -0.191 NA
ATOM     21  C   UNL     1      34.199 -11.167 -24.882  0.00  0.00    +0.108 C 
ENDBRANCH  15  21
ENDBRANCH   3  15
TORSDOF 5
ENDMDL
MODEL 7
REMARK VINA RESULT:      -8.4      5.109      7.456
REMARK  Name = 54684141
REMARK  5 active torsions:
REMARK  status: ('A' for Active; 'I' for Inactive)
REMARK    1  A    between atoms: N_2  and  C_5
REMARK    2  A    between atoms: C_3  and  C_15
REMARK    3  A    between atoms: C_6  and  C_14
REMARK    4  A    between atoms: C_15  and  C_21
REMARK    5  A    between atoms: C_16  and  O_18
REMARK                            x       y       z     vdW  Elec       q    Type
REMARK                         _______ _______ _______ _____ _____    ______ ____
ROOT
ATOM      1  O   UNL     1      34.181 -19.490 -22.603  0.00  0.00    -0.269 OA
ATOM      2  N   UNL     1      34.381 -17.907 -20.884  0.00  0.00    -0.280 N 
ATOM      3  C   UNL     1      34.403 -19.182 -21.436  0.00  0.00    +0.262 C 
ATOM      4  H   UNL     1      34.584 -17.845 -19.923  0.00  0.00    +0.155 HD
ENDROOT
BRANCH   2   5
ATOM      5  C   UNL     1      34.101 -16.687 -21.547  0.00  0.00    +0.051 C 
ATOM      6  C   UNL     1      33.547 -14.284 -22.852  0.00  0.00    +0.072 C 
ATOM      7  C   UNL     1      34.885 -16.283 -22.627  0.00  0.00    +0.015 C 
ATOM      8  C   UNL     1      33.039 -15.890 -21.119  0.00  0.00    +0.015 C 
ATOM      9  C   UNL     1      34.609 -15.083 -23.280  0.00  0.00    +0.005 C 
ATOM     10  C   UNL     1      32.762 -14.689 -21.771  0.00  0.00    +0.005 C 
BRANCH   6  14
ATOM     11  F   UNL     1      32.204 -12.327 -22.991  0.00  0.00    -0.166 F 
ATOM     12  F   UNL     1      34.296 -12.121 -23.548  0.00  0.00    -0.166 F 
ATOM     13  F   UNL     1      32.922 -13.158 -24.867  0.00  0.00    -0.166 F 
ATOM     14  C   UNL     1      33.251 -13.001 -23.551  0.00  0.00    +0.419 C 
ENDBRANCH   6  14
ENDBRANCH   2   5
BRANCH   3  15
ATOM     15  C   UNL     1      34.742 -20.241 -20.420  0.00  0.00    +0.151 C 
ATOM     16  C   UNL     1      36.031 -20.404 -20.057  0.00  0.00    +0.126 C 
ATOM     17  C   UNL     1      36.536 -21.423 -19.072  0.00  0.00    +0.072 C 
BRANCH  16  18
ATOM     18  O   UNL     1      37.025 -19.588 -20.575  0.00  0.00    -0.509 OA
ATOM     19  H   UNL     1      37.401 -18.914 -20.045  0.00  0.00    +0.292 HD
ENDBRANCH  16  18
BRANCH  15  21
ATOM     20  N   UNL     1      32.850 -21.710 -19.437  0.00  0.00    -0.191 NA
ATOM     21  C   UNL     1      33.696 -21.052 -19.883  0.00  0.00    +0.108 C 
ENDBRANCH  15  21
ENDBRANCH   3  15
TORSDOF 5
ENDMDL
MODEL 8
REMARK VINA RESULT:      -8.3      5.120      8.291
REMARK  Name = 54684141
REMARK  5 active torsions:
REMARK  status: ('A' for Active; 'I' for Inactive)
REMARK    1  A    between atoms: N_2  and  C_5
REMARK    2  A    between atoms: C_3  and  C_15
REMARK    3  A    between atoms: C_6  and  C_14
REMARK    4  A    between atoms: C_15  and  C_21
REMARK    5  A    between atoms: C_16  and  O_18
REMARK                            x       y       z     vdW  Elec       q    Type
REMARK                         _______ _______ _______ _____ _____    ______ ____
ROOT
ATOM      1  O   UNL     1      37.197 -21.310 -16.531  0.00  0.00    -0.269 OA
ATOM      2  N   UNL     1      35.567 -22.387 -17.827  0.00  0.00    -0.280 N 
ATOM      3  C   UNL     1      36.408 -22.226 -16.733  0.00  0.00    +0.262 C 
ATOM      4  H   UNL     1      34.997 -23.190 -17.825  0.00  0.00    +0.155 HD
ENDROOT
BRANCH   2   5
ATOM      5  C   UNL     1      35.437 -21.527 -18.945  0.00  0.00    +0.051 C 
ATOM      6  C   UNL     1      35.178 -19.833 -21.146  0.00  0.00    +0.072 C 
ATOM      7  C   UNL     1      36.571 -20.960 -19.526  0.00  0.00    +0.015 C 
ATOM      8  C   UNL     1      34.173 -21.247 -19.464  0.00  0.00    +0.015 C 
ATOM      9  C   UNL     1      36.442 -20.113 -20.626  0.00  0.00    +0.005 C 
ATOM     10  C   UNL     1      34.043 -20.401 -20.566  0.00  0.00    +0.005 C 
BRANCH   6  14
ATOM     11  F   UNL     1      36.234 -18.400 -22.722  0.00  0.00    -0.166 F 
ATOM     12  F   UNL     1      34.526 -19.543 -23.430  0.00  0.00    -0.166 F 
ATOM     13  F   UNL     1      34.223 -17.858 -22.099  0.00  0.00    -0.166 F 
ATOM     14  C   UNL     1      35.041 -18.928 -22.324  0.00  0.00    +0.419 C 
ENDBRANCH   6  14
ENDBRANCH   2   5
BRANCH   3  15
ATOM     15  C   UNL     1      36.272 -23.349 -15.736  0.00  0.00    +0.151 C 
ATOM     16  C   UNL     1      37.388 -23.973 -15.307  0.00  0.00    +0.126 C 
ATOM     17  C   UNL     1      37.424 -25.118 -14.331  0.00  0.00    +0.072 C 
BRANCH  16  18
ATOM     18  O   UNL     1      38.642 -23.569 -15.738  0.00  0.00    -0.509 OA
ATOM     19  H   UNL     1      38.720 -22.937 -16.424  0.00  0.00    +0.292 HD
ENDBRANCH  16  18
BRANCH  15  21
ATOM     20  N   UNL     1      33.913 -24.032 -14.919  0.00  0.00    -0.191 NA
ATOM     21  C   UNL     1      34.971 -23.730 -15.289  0.00  0.00    +0.108 C 
ENDBRANCH  15  21
ENDBRANCH   3  15
TORSDOF 5
ENDMDL
MODEL 9
REMARK VINA RESULT:      -8.3      8.819     10.428
REMARK  Name = 54684141
REMARK  5 active torsions:
REMARK  status: ('A' for Active; 'I' for Inactive)
REMARK    1  A    between atoms: N_2  and  C_5
REMARK    2  A    between atoms: C_3  and  C_15
REMARK    3  A    between atoms: C_6  and  C_14
REMARK    4  A    between atoms: C_15  and  C_21
REMARK    5  A    between atoms: C_16  and  O_18
REMARK                            x       y       z     vdW  Elec       q    Type
REMARK                         _______ _______ _______ _____ _____    ______ ____
ROOT
ATOM      1  O   UNL     1      35.450 -24.442 -15.977  0.00  0.00    -0.269 OA
ATOM      2  N   UNL     1      34.092 -24.634 -14.075  0.00  0.00    -0.280 N 
ATOM      3  C   UNL     1      35.289 -24.654 -14.780  0.00  0.00    +0.262 C 
ATOM      4  H   UNL     1      34.149 -24.831 -13.112  0.00  0.00    +0.155 HD
ENDROOT
BRANCH   2   5
ATOM      5  C   UNL     1      32.799 -24.361 -14.584  0.00  0.00    +0.051 C 
ATOM      6  C   UNL     1      30.251 -23.825 -15.586  0.00  0.00    +0.072 C 
ATOM      7  C   UNL     1      32.629 -23.399 -15.580  0.00  0.00    +0.015 C 
ATOM      8  C   UNL     1      31.695 -25.054 -14.088  0.00  0.00    +0.015 C 
ATOM      9  C   UNL     1      31.356 -23.131 -16.081  0.00  0.00    +0.005 C 
ATOM     10  C   UNL     1      30.421 -24.786 -14.590  0.00  0.00    +0.005 C 
BRANCH   6  14
ATOM     11  F   UNL     1      28.858 -22.418 -16.901  0.00  0.00    -0.166 F 
ATOM     12  F   UNL     1      28.386 -24.540 -16.903  0.00  0.00    -0.166 F 
ATOM     13  F   UNL     1      27.950 -23.337 -15.153  0.00  0.00    -0.166 F 
ATOM     14  C   UNL     1      28.890 -23.538 -16.123  0.00  0.00    +0.419 C 
ENDBRANCH   6  14
ENDBRANCH   2   5
BRANCH   3  15
ATOM     15  C   UNL     1      36.467 -24.986 -13.900  0.00  0.00    +0.151 C 
ATOM     16  C   UNL     1      36.722 -24.200 -12.833  0.00  0.00    +0.126 C 
ATOM     17  C   UNL     1      37.863 -24.383 -11.870  0.00  0.00    +0.072 C 
BRANCH  16  18
ATOM     18  O   UNL     1      35.896 -23.129 -12.523  0.00  0.00    -0.509 OA
ATOM     19  H   UNL     1      34.969 -23.210 -12.621  0.00  0.00    +0.292 HD
ENDBRANCH  16  18
BRANCH  15  21
ATOM     20  N   UNL     1      37.960 -27.013 -14.500  0.00  0.00    -0.191 NA
ATOM     21  C   UNL     1      37.287 -26.108 -14.227  0.00  0.00    +0.108 C 
ENDBRANCH  15  21
ENDBRANCH   3  15
TORSDOF 5
ENDMDL
