MODEL 1
REMARK VINA RESULT:      -9.6      0.000      0.000
REMARK  Name = 4369434
REMARK  5 active torsions:
REMARK  status: ('A' for Active; 'I' for Inactive)
REMARK    1  A    between atoms: N_2  and  C_25
REMARK    2  A    between atoms: C_5  and  C_13
REMARK    3  A    between atoms: C_7  and  C_19
REMARK    4  A    between atoms: C_25  and  C_26
REMARK    5  A    between atoms: C_26  and  O_28
REMARK                            x       y       z     vdW  Elec       q    Type
REMARK                         _______ _______ _______ _____ _____    ______ ____
ROOT
ATOM      1  N   UNL     1      31.933 -10.653 -21.839  0.00  0.00    -0.301 N 
ATOM      2  N   UNL     1      34.190 -14.288 -23.712  0.00  0.00    -0.319 N 
ATOM      3  N   UNL     1      31.735 -12.734 -20.638  0.00  0.00    -0.233 NA
ATOM      4  N   UNL     1      32.948 -14.561 -21.696  0.00  0.00    -0.233 NA
ATOM      5  C   UNL     1      33.226 -11.287 -23.536  0.00  0.00    +0.005 C 
ATOM      6  C   UNL     1      33.000 -12.413 -22.704  0.00  0.00    +0.131 C 
ATOM      7  C   UNL     1      32.558 -10.217 -22.980  0.00  0.00    +0.046 C 
ATOM      8  C   UNL     1      32.192 -11.985 -21.657  0.00  0.00    +0.117 C 
ATOM      9  C   UNL     1      33.374 -13.755 -22.696  0.00  0.00    +0.113 C 
ATOM     10  C   UNL     1      32.166 -14.008 -20.743  0.00  0.00    +0.252 C 
ATOM     11  H   UNL     1      31.385 -10.094 -21.243  0.00  0.00    +0.153 HD
ATOM     12  H   UNL     1      34.492 -13.691 -24.433  0.00  0.00    +0.148 HD
ENDROOT
BRANCH   5  13
ATOM     13  C   UNL     1      33.992 -11.185 -24.750  0.00  0.00    -0.002 C 
ATOM     14  C   UNL     1      35.099 -10.341 -24.805  0.00  0.00    -0.000 C 
ATOM     15  C   UNL     1      33.624 -11.932 -25.868  0.00  0.00    -0.000 C 
ATOM     16  C   UNL     1      35.843 -10.243 -25.982  0.00  0.00    -0.000 C 
ATOM     17  C   UNL     1      34.367 -11.834 -27.044  0.00  0.00    -0.000 C 
ATOM     18  C   UNL     1      35.476 -10.990 -27.102  0.00  0.00    -0.000 C 
ENDBRANCH   5  13
BRANCH   7  19
ATOM     19  C   UNL     1      32.449  -8.840 -23.409  0.00  0.00    +0.013 C 
ATOM     20  C   UNL     1      31.240  -8.365 -23.911  0.00  0.00    +0.001 C 
ATOM     21  C   UNL     1      33.552  -7.996 -23.318  0.00  0.00    +0.001 C 
ATOM     22  C   UNL     1      31.134  -7.037 -24.324  0.00  0.00    +0.000 C 
ATOM     23  C   UNL     1      33.446  -6.667 -23.732  0.00  0.00    +0.000 C 
ATOM     24  C   UNL     1      32.237  -6.188 -24.235  0.00  0.00    +0.000 C 
ENDBRANCH   7  19
BRANCH   2  25
ATOM     25  C   UNL     1      34.600 -15.660 -23.743  0.00  0.00    +0.118 C 
BRANCH  25  26
ATOM     26  C   UNL     1      34.085 -16.326 -25.016  0.00  0.00    +0.130 C 
ATOM     27  C   UNL     1      33.296 -15.344 -25.871  0.00  0.00    +0.034 C 
BRANCH  26  28
ATOM     28  O   UNL     1      35.204 -16.792 -25.771  0.00  0.00    -0.383 OA
ATOM     29  H   UNL     1      34.888 -17.274 -26.551  0.00  0.00    +0.210 HD
ENDBRANCH  26  28
ENDBRANCH  25  26
ENDBRANCH   2  25
TORSDOF 5
ENDMDL
MODEL 2
REMARK VINA RESULT:      -9.4      2.351      5.986
REMARK  Name = 4369434
REMARK  5 active torsions:
REMARK  status: ('A' for Active; 'I' for Inactive)
REMARK    1  A    between atoms: N_2  and  C_25
REMARK    2  A    between atoms: C_5  and  C_13
REMARK    3  A    between atoms: C_7  and  C_19
REMARK    4  A    between atoms: C_25  and  C_26
REMARK    5  A    between atoms: C_26  and  O_28
REMARK                            x       y       z     vdW  Elec       q    Type
REMARK                         _______ _______ _______ _____ _____    ______ ____
ROOT
ATOM      1  N   UNL     1      32.386 -13.528 -22.036  0.00  0.00    -0.301 N 
ATOM      2  N   UNL     1      32.556  -9.091 -23.485  0.00  0.00    -0.319 N 
ATOM      3  N   UNL     1      31.172 -11.942 -20.685  0.00  0.00    -0.233 NA
ATOM      4  N   UNL     1      31.324  -9.663 -21.527  0.00  0.00    -0.233 NA
ATOM      5  C   UNL     1      33.206 -12.178 -23.604  0.00  0.00    +0.005 C 
ATOM      6  C   UNL     1      32.444 -11.397 -22.698  0.00  0.00    +0.131 C 
ATOM      7  C   UNL     1      33.154 -13.486 -23.172  0.00  0.00    +0.046 C 
ATOM      8  C   UNL     1      31.947 -12.266 -21.734  0.00  0.00    +0.117 C 
ATOM      9  C   UNL     1      32.103 -10.053 -22.563  0.00  0.00    +0.113 C 
ATOM     10  C   UNL     1      30.912 -10.619 -20.664  0.00  0.00    +0.252 C 
ATOM     11  H   UNL     1      32.182 -14.339 -21.517  0.00  0.00    +0.153 HD
ATOM     12  H   UNL     1      33.122  -9.388 -24.233  0.00  0.00    +0.148 HD
ENDROOT
BRANCH   5  13
ATOM     13  C   UNL     1      33.932 -11.771 -24.777  0.00  0.00    -0.002 C 
ATOM     14  C   UNL     1      34.923 -10.796 -24.679  0.00  0.00    -0.000 C 
ATOM     15  C   UNL     1      33.642 -12.352 -26.011  0.00  0.00    -0.000 C 
ATOM     16  C   UNL     1      35.628 -10.401 -25.817  0.00  0.00    -0.000 C 
ATOM     17  C   UNL     1      34.346 -11.958 -27.148  0.00  0.00    -0.000 C 
ATOM     18  C   UNL     1      35.339 -10.983 -27.051  0.00  0.00    -0.000 C 
ENDBRANCH   5  13
BRANCH   7  19
ATOM     19  C   UNL     1      33.747 -14.689 -23.715  0.00  0.00    +0.013 C 
ATOM     20  C   UNL     1      34.708 -15.379 -22.981  0.00  0.00    +0.001 C 
ATOM     21  C   UNL     1      33.354 -15.151 -24.967  0.00  0.00    +0.001 C 
ATOM     22  C   UNL     1      35.279 -16.539 -23.503  0.00  0.00    +0.000 C 
ATOM     23  C   UNL     1      33.926 -16.312 -25.490  0.00  0.00    +0.000 C 
ATOM     24  C   UNL     1      34.889 -17.006 -24.758  0.00  0.00    +0.000 C 
ENDBRANCH   7  19
BRANCH   2  25
ATOM     25  C   UNL     1      32.229  -7.700 -23.386  0.00  0.00    +0.118 C 
BRANCH  25  26
ATOM     26  C   UNL     1      33.494  -6.859 -23.529  0.00  0.00    +0.130 C 
ATOM     27  C   UNL     1      34.744  -7.711 -23.357  0.00  0.00    +0.034 C 
BRANCH  26  28
ATOM     28  O   UNL     1      33.512  -6.281 -24.834  0.00  0.00    -0.383 OA
ATOM     29  H   UNL     1      33.867  -6.924 -25.467  0.00  0.00    +0.210 HD
ENDBRANCH  26  28
ENDBRANCH  25  26
ENDBRANCH   2  25
TORSDOF 5
ENDMDL
MODEL 3
REMARK VINA RESULT:      -8.8      1.072      1.696
REMARK  Name = 4369434
REMARK  5 active torsions:
REMARK  status: ('A' for Active; 'I' for Inactive)
REMARK    1  A    between atoms: N_2  and  C_25
REMARK    2  A    between atoms: C_5  and  C_13
REMARK    3  A    between atoms: C_7  and  C_19
REMARK    4  A    between atoms: C_25  and  C_26
REMARK    5  A    between atoms: C_26  and  O_28
REMARK                            x       y       z     vdW  Elec       q    Type
REMARK                         _______ _______ _______ _____ _____    ______ ____
ROOT
ATOM      1  N   UNL     1      31.975  -9.789 -22.016  0.00  0.00    -0.301 N 
ATOM      2  N   UNL     1      33.528 -13.947 -23.470  0.00  0.00    -0.319 N 
ATOM      3  N   UNL     1      31.433 -11.661 -20.595  0.00  0.00    -0.233 NA
ATOM      4  N   UNL     1      32.289 -13.776 -21.442  0.00  0.00    -0.233 NA
ATOM      5  C   UNL     1      33.110 -10.822 -23.628  0.00  0.00    +0.005 C 
ATOM      6  C   UNL     1      32.702 -11.793 -22.679  0.00  0.00    +0.131 C 
ATOM      7  C   UNL     1      32.649  -9.597 -23.195  0.00  0.00    +0.046 C 
ATOM      8  C   UNL     1      31.998 -11.119 -21.688  0.00  0.00    +0.117 C 
ATOM      9  C   UNL     1      32.835 -13.171 -22.522  0.00  0.00    +0.113 C 
ATOM     10  C   UNL     1      31.631 -12.994 -20.558  0.00  0.00    +0.252 C 
ATOM     11  H   UNL     1      31.542  -9.081 -21.487  0.00  0.00    +0.153 HD
ATOM     12  H   UNL     1      33.920 -13.495 -24.251  0.00  0.00    +0.148 HD
ENDROOT
BRANCH   5  13
ATOM     13  C   UNL     1      33.863 -10.989 -24.842  0.00  0.00    -0.002 C 
ATOM     14  C   UNL     1      33.408 -11.863 -25.828  0.00  0.00    -0.000 C 
ATOM     15  C   UNL     1      35.046 -10.276 -25.031  0.00  0.00    -0.000 C 
ATOM     16  C   UNL     1      34.138 -12.025 -27.006  0.00  0.00    -0.000 C 
ATOM     17  C   UNL     1      35.775 -10.438 -26.208  0.00  0.00    -0.000 C 
ATOM     18  C   UNL     1      35.322 -11.312 -27.196  0.00  0.00    -0.000 C 
ENDBRANCH   5  13
BRANCH   7  19
ATOM     19  C   UNL     1      32.776  -8.277 -23.773  0.00  0.00    +0.013 C 
ATOM     20  C   UNL     1      31.635  -7.543 -24.083  0.00  0.00    +0.001 C 
ATOM     21  C   UNL     1      34.040  -7.746 -24.016  0.00  0.00    +0.001 C 
ATOM     22  C   UNL     1      31.757  -6.270 -24.639  0.00  0.00    +0.000 C 
ATOM     23  C   UNL     1      34.163  -6.473 -24.573  0.00  0.00    +0.000 C 
ATOM     24  C   UNL     1      33.022  -5.734 -24.885  0.00  0.00    +0.000 C 
ENDBRANCH   7  19
BRANCH   2  25
ATOM     25  C   UNL     1      33.691 -15.365 -23.350  0.00  0.00    +0.118 C 
BRANCH  25  26
ATOM     26  C   UNL     1      34.990 -15.677 -22.612  0.00  0.00    +0.130 C 
ATOM     27  C   UNL     1      34.726 -16.497 -21.356  0.00  0.00    +0.034 C 
BRANCH  26  28
ATOM     28  O   UNL     1      35.837 -16.430 -23.479  0.00  0.00    -0.383 OA
ATOM     29  H   UNL     1      35.662 -16.180 -24.399  0.00  0.00    +0.210 HD
ENDBRANCH  26  28
ENDBRANCH  25  26
ENDBRANCH   2  25
TORSDOF 5
ENDMDL
MODEL 4
REMARK VINA RESULT:      -8.6     13.239     15.781
REMARK  Name = 4369434
REMARK  5 active torsions:
REMARK  status: ('A' for Active; 'I' for Inactive)
REMARK    1  A    between atoms: N_2  and  C_25
REMARK    2  A    between atoms: C_5  and  C_13
REMARK    3  A    between atoms: C_7  and  C_19
REMARK    4  A    between atoms: C_25  and  C_26
REMARK    5  A    between atoms: C_26  and  O_28
REMARK                            x       y       z     vdW  Elec       q    Type
REMARK                         _______ _______ _______ _____ _____    ______ ____
ROOT
ATOM      1  N   UNL     1      33.343 -24.484 -12.919  0.00  0.00    -0.301 N 
ATOM      2  N   UNL     1      37.453 -23.826 -15.040  0.00  0.00    -0.319 N 
ATOM      3  N   UNL     1      35.292 -25.010 -11.601  0.00  0.00    -0.233 NA
ATOM      4  N   UNL     1      37.379 -24.631 -12.797  0.00  0.00    -0.233 NA
ATOM      5  C   UNL     1      34.303 -23.824 -14.816  0.00  0.00    +0.005 C 
ATOM      6  C   UNL     1      35.325 -24.181 -13.900  0.00  0.00    +0.131 C 
ATOM      7  C   UNL     1      33.093 -24.020 -14.186  0.00  0.00    +0.046 C 
ATOM      8  C   UNL     1      34.695 -24.587 -12.729  0.00  0.00    +0.117 C 
ATOM      9  C   UNL     1      36.718 -24.216 -13.903  0.00  0.00    +0.113 C 
ATOM     10  C   UNL     1      36.635 -24.997 -11.730  0.00  0.00    +0.252 C 
ATOM     11  H   UNL     1      32.656 -24.707 -12.250  0.00  0.00    +0.153 HD
ATOM     12  H   UNL     1      36.960 -23.527 -15.837  0.00  0.00    +0.148 HD
ENDROOT
BRANCH   5  13
ATOM     13  C   UNL     1      34.413 -23.341 -16.166  0.00  0.00    -0.002 C 
ATOM     14  C   UNL     1      33.440 -23.676 -17.106  0.00  0.00    -0.000 C 
ATOM     15  C   UNL     1      35.492 -22.536 -16.531  0.00  0.00    -0.000 C 
ATOM     16  C   UNL     1      33.547 -23.207 -18.417  0.00  0.00    -0.000 C 
ATOM     17  C   UNL     1      35.598 -22.068 -17.840  0.00  0.00    -0.000 C 
ATOM     18  C   UNL     1      34.626 -22.402 -18.783  0.00  0.00    -0.000 C 
ENDBRANCH   5  13
BRANCH   7  19
ATOM     19  C   UNL     1      31.738 -23.818 -14.651  0.00  0.00    +0.013 C 
ATOM     20  C   UNL     1      30.962 -24.913 -15.022  0.00  0.00    +0.001 C 
ATOM     21  C   UNL     1      31.215 -22.530 -14.724  0.00  0.00    +0.001 C 
ATOM     22  C   UNL     1      29.656 -24.719 -15.470  0.00  0.00    +0.000 C 
ATOM     23  C   UNL     1      29.908 -22.335 -15.172  0.00  0.00    +0.000 C 
ATOM     24  C   UNL     1      29.128 -23.430 -15.545  0.00  0.00    +0.000 C 
ENDBRANCH   7  19
BRANCH   2  25
ATOM     25  C   UNL     1      38.884 -23.844 -15.088  0.00  0.00    +0.118 C 
BRANCH  25  26
ATOM     26  C   UNL     1      39.374 -25.253 -15.414  0.00  0.00    +0.130 C 
ATOM     27  C   UNL     1      40.339 -25.759 -14.351  0.00  0.00    +0.034 C 
BRANCH  26  28
ATOM     28  O   UNL     1      38.247 -26.127 -15.460  0.00  0.00    -0.383 OA
ATOM     29  H   UNL     1      38.110 -26.524 -14.586  0.00  0.00    +0.210 HD
ENDBRANCH  26  28
ENDBRANCH  25  26
ENDBRANCH   2  25
TORSDOF 5
ENDMDL
MODEL 5
REMARK VINA RESULT:      -8.4     12.631     15.659
REMARK  Name = 4369434
REMARK  5 active torsions:
REMARK  status: ('A' for Active; 'I' for Inactive)
REMARK    1  A    between atoms: N_2  and  C_25
REMARK    2  A    between atoms: C_5  and  C_13
REMARK    3  A    between atoms: C_7  and  C_19
REMARK    4  A    between atoms: C_25  and  C_26
REMARK    5  A    between atoms: C_26  and  O_28
REMARK                            x       y       z     vdW  Elec       q    Type
REMARK                         _______ _______ _______ _____ _____    ______ ____
ROOT
ATOM      1  N   UNL     1      33.650 -24.945 -13.457  0.00  0.00    -0.301 N 
ATOM      2  N   UNL     1      30.886 -22.790 -16.545  0.00  0.00    -0.319 N 
ATOM      3  N   UNL     1      31.306 -24.887 -12.896  0.00  0.00    -0.233 NA
ATOM      4  N   UNL     1      29.956 -23.745 -14.569  0.00  0.00    -0.233 NA
ATOM      5  C   UNL     1      33.627 -23.860 -15.401  0.00  0.00    +0.005 C 
ATOM      6  C   UNL     1      32.298 -23.924 -14.910  0.00  0.00    +0.131 C 
ATOM      7  C   UNL     1      34.439 -24.496 -14.486  0.00  0.00    +0.046 C 
ATOM      8  C   UNL     1      32.346 -24.605 -13.700  0.00  0.00    +0.117 C 
ATOM      9  C   UNL     1      31.043 -23.490 -15.334  0.00  0.00    +0.113 C 
ATOM     10  C   UNL     1      30.152 -24.418 -13.414  0.00  0.00    +0.252 C 
ATOM     11  H   UNL     1      33.972 -25.436 -12.667  0.00  0.00    +0.153 HD
ATOM     12  H   UNL     1      31.685 -22.612 -17.091  0.00  0.00    +0.148 HD
ENDROOT
BRANCH   5  13
ATOM     13  C   UNL     1      34.129 -23.266 -16.610  0.00  0.00    -0.002 C 
ATOM     14  C   UNL     1      33.417 -23.404 -17.801  0.00  0.00    -0.000 C 
ATOM     15  C   UNL     1      35.326 -22.551 -16.589  0.00  0.00    -0.000 C 
ATOM     16  C   UNL     1      33.904 -22.826 -18.975  0.00  0.00    -0.000 C 
ATOM     17  C   UNL     1      35.812 -21.974 -17.762  0.00  0.00    -0.000 C 
ATOM     18  C   UNL     1      35.101 -22.111 -18.954  0.00  0.00    -0.000 C 
ENDBRANCH   5  13
BRANCH   7  19
ATOM     19  C   UNL     1      35.867 -24.723 -14.482  0.00  0.00    +0.013 C 
ATOM     20  C   UNL     1      36.706 -23.846 -13.800  0.00  0.00    +0.001 C 
ATOM     21  C   UNL     1      36.397 -25.818 -15.160  0.00  0.00    +0.001 C 
ATOM     22  C   UNL     1      38.084 -24.065 -13.795  0.00  0.00    +0.000 C 
ATOM     23  C   UNL     1      37.776 -26.037 -15.155  0.00  0.00    +0.000 C 
ATOM     24  C   UNL     1      38.619 -25.160 -14.473  0.00  0.00    +0.000 C 
ENDBRANCH   7  19
BRANCH   2  25
ATOM     25  C   UNL     1      29.616 -22.328 -17.020  0.00  0.00    +0.118 C 
BRANCH  25  26
ATOM     26  C   UNL     1      28.498 -23.178 -16.423  0.00  0.00    +0.130 C 
ATOM     27  C   UNL     1      27.243 -22.349 -16.187  0.00  0.00    +0.034 C 
BRANCH  26  28
ATOM     28  O   UNL     1      28.186 -24.227 -17.338  0.00  0.00    -0.383 OA
ATOM     29  H   UNL     1      28.959 -24.414 -17.892  0.00  0.00    +0.210 HD
ENDBRANCH  26  28
ENDBRANCH  25  26
ENDBRANCH   2  25
TORSDOF 5
ENDMDL
MODEL 6
REMARK VINA RESULT:      -8.1      2.078      4.281
REMARK  Name = 4369434
REMARK  5 active torsions:
REMARK  status: ('A' for Active; 'I' for Inactive)
REMARK    1  A    between atoms: N_2  and  C_25
REMARK    2  A    between atoms: C_5  and  C_13
REMARK    3  A    between atoms: C_7  and  C_19
REMARK    4  A    between atoms: C_25  and  C_26
REMARK    5  A    between atoms: C_26  and  O_28
REMARK                            x       y       z     vdW  Elec       q    Type
REMARK                         _______ _______ _______ _____ _____    ______ ____
ROOT
ATOM      1  N   UNL     1      33.315 -10.854 -24.911  0.00  0.00    -0.301 N 
ATOM      2  N   UNL     1      32.543 -13.929 -21.480  0.00  0.00    -0.319 N 
ATOM      3  N   UNL     1      33.831 -13.151 -25.433  0.00  0.00    -0.233 NA
ATOM      4  N   UNL     1      33.392 -14.668 -23.581  0.00  0.00    -0.233 NA
ATOM      5  C   UNL     1      32.601 -11.067 -22.813  0.00  0.00    +0.005 C 
ATOM      6  C   UNL     1      32.958 -12.352 -23.295  0.00  0.00    +0.131 C 
ATOM      7  C   UNL     1      32.832 -10.163 -23.828  0.00  0.00    +0.046 C 
ATOM      8  C   UNL     1      33.397 -12.186 -24.603  0.00  0.00    +0.117 C 
ATOM      9  C   UNL     1      32.967 -13.652 -22.794  0.00  0.00    +0.113 C 
ATOM     10  C   UNL     1      33.792 -14.358 -24.834  0.00  0.00    +0.252 C 
ATOM     11  H   UNL     1      33.563 -10.454 -25.775  0.00  0.00    +0.153 HD
ATOM     12  H   UNL     1      32.237 -13.181 -20.919  0.00  0.00    +0.148 HD
ENDROOT
BRANCH   5  13
ATOM     13  C   UNL     1      32.091 -10.682 -21.525  0.00  0.00    -0.002 C 
ATOM     14  C   UNL     1      32.649  -9.598 -20.850  0.00  0.00    -0.000 C 
ATOM     15  C   UNL     1      31.037 -11.395 -20.954  0.00  0.00    -0.000 C 
ATOM     16  C   UNL     1      32.152  -9.224 -19.600  0.00  0.00    -0.000 C 
ATOM     17  C   UNL     1      30.541 -11.022 -19.705  0.00  0.00    -0.000 C 
ATOM     18  C   UNL     1      31.098  -9.937 -19.029  0.00  0.00    -0.000 C 
ENDBRANCH   5  13
BRANCH   7  19
ATOM     19  C   UNL     1      32.645  -8.730 -23.883  0.00  0.00    +0.013 C 
ATOM     20  C   UNL     1      33.753  -7.888 -23.935  0.00  0.00    +0.001 C 
ATOM     21  C   UNL     1      31.358  -8.198 -23.884  0.00  0.00    +0.001 C 
ATOM     22  C   UNL     1      33.573  -6.506 -23.987  0.00  0.00    +0.000 C 
ATOM     23  C   UNL     1      31.179  -6.815 -23.937  0.00  0.00    +0.000 C 
ATOM     24  C   UNL     1      32.286  -5.969 -23.989  0.00  0.00    +0.000 C 
ENDBRANCH   7  19
BRANCH   2  25
ATOM     25  C   UNL     1      32.535 -15.249 -20.924  0.00  0.00    +0.118 C 
BRANCH  25  26
ATOM     26  C   UNL     1      33.921 -15.594 -20.388  0.00  0.00    +0.130 C 
ATOM     27  C   UNL     1      34.490 -16.823 -21.083  0.00  0.00    +0.034 C 
BRANCH  26  28
ATOM     28  O   UNL     1      34.792 -14.489 -20.631  0.00  0.00    -0.383 OA
ATOM     29  H   UNL     1      34.305 -13.790 -21.094  0.00  0.00    +0.210 HD
ENDBRANCH  26  28
ENDBRANCH  25  26
ENDBRANCH   2  25
TORSDOF 5
ENDMDL
MODEL 7
REMARK VINA RESULT:      -8.1     11.276     14.737
REMARK  Name = 4369434
REMARK  5 active torsions:
REMARK  status: ('A' for Active; 'I' for Inactive)
REMARK    1  A    between atoms: N_2  and  C_25
REMARK    2  A    between atoms: C_5  and  C_13
REMARK    3  A    between atoms: C_7  and  C_19
REMARK    4  A    between atoms: C_25  and  C_26
REMARK    5  A    between atoms: C_26  and  O_28
REMARK                            x       y       z     vdW  Elec       q    Type
REMARK                         _______ _______ _______ _____ _____    ______ ____
ROOT
ATOM      1  N   UNL     1      32.010 -23.046 -17.017  0.00  0.00    -0.301 N 
ATOM      2  N   UNL     1      34.428 -24.418 -13.263  0.00  0.00    -0.319 N 
ATOM      3  N   UNL     1      30.711 -24.040 -15.246  0.00  0.00    -0.233 NA
ATOM      4  N   UNL     1      32.064 -24.717 -13.339  0.00  0.00    -0.233 NA
ATOM      5  C   UNL     1      34.051 -23.159 -16.134  0.00  0.00    +0.005 C 
ATOM      6  C   UNL     1      33.132 -23.713 -15.206  0.00  0.00    +0.131 C 
ATOM      7  C   UNL     1      33.333 -22.756 -17.240  0.00  0.00    +0.046 C 
ATOM      8  C   UNL     1      31.871 -23.628 -15.785  0.00  0.00    +0.117 C 
ATOM      9  C   UNL     1      33.199 -24.284 -13.937  0.00  0.00    +0.113 C 
ATOM     10  C   UNL     1      30.907 -24.571 -14.021  0.00  0.00    +0.252 C 
ATOM     11  H   UNL     1      31.275 -22.863 -17.645  0.00  0.00    +0.153 HD
ATOM     12  H   UNL     1      35.245 -24.099 -13.709  0.00  0.00    +0.148 HD
ENDROOT
BRANCH   5  13
ATOM     13  C   UNL     1      35.476 -23.005 -16.029  0.00  0.00    -0.002 C 
ATOM     14  C   UNL     1      36.071 -21.786 -16.351  0.00  0.00    -0.000 C 
ATOM     15  C   UNL     1      36.262 -24.076 -15.604  0.00  0.00    -0.000 C 
ATOM     16  C   UNL     1      37.455 -21.637 -16.249  0.00  0.00    -0.000 C 
ATOM     17  C   UNL     1      37.645 -23.927 -15.502  0.00  0.00    -0.000 C 
ATOM     18  C   UNL     1      38.241 -22.708 -15.823  0.00  0.00    -0.000 C 
ENDBRANCH   5  13
BRANCH   7  19
ATOM     19  C   UNL     1      33.761 -22.132 -18.473  0.00  0.00    +0.013 C 
ATOM     20  C   UNL     1      32.889 -21.296 -19.165  0.00  0.00    +0.001 C 
ATOM     21  C   UNL     1      35.043 -22.370 -18.961  0.00  0.00    +0.001 C 
ATOM     22  C   UNL     1      33.301 -20.695 -20.354  0.00  0.00    +0.000 C 
ATOM     23  C   UNL     1      35.455 -21.768 -20.150  0.00  0.00    +0.000 C 
ATOM     24  C   UNL     1      34.585 -20.930 -20.847  0.00  0.00    +0.000 C 
ENDBRANCH   7  19
BRANCH   2  25
ATOM     25  C   UNL     1      34.543 -24.997 -11.958  0.00  0.00    +0.118 C 
BRANCH  25  26
ATOM     26  C   UNL     1      35.858 -24.566 -11.314  0.00  0.00    +0.130 C 
ATOM     27  C   UNL     1      36.395 -23.294 -11.958  0.00  0.00    +0.034 C 
BRANCH  26  28
ATOM     28  O   UNL     1      35.626 -24.313  -9.929  0.00  0.00    -0.383 OA
ATOM     29  H   UNL     1      35.062 -25.011  -9.563  0.00  0.00    +0.210 HD
ENDBRANCH  26  28
ENDBRANCH  25  26
ENDBRANCH   2  25
TORSDOF 5
ENDMDL
MODEL 8
REMARK VINA RESULT:      -7.6      4.518      7.192
REMARK  Name = 4369434
REMARK  5 active torsions:
REMARK  status: ('A' for Active; 'I' for Inactive)
REMARK    1  A    between atoms: N_2  and  C_25
REMARK    2  A    between atoms: C_5  and  C_13
REMARK    3  A    between atoms: C_7  and  C_19
REMARK    4  A    between atoms: C_25  and  C_26
REMARK    5  A    between atoms: C_26  and  O_28
REMARK                            x       y       z     vdW  Elec       q    Type
REMARK                         _______ _______ _______ _____ _____    ______ ____
ROOT
ATOM      1  N   UNL     1      31.106  -6.566 -21.821  0.00  0.00    -0.301 N 
ATOM      2  N   UNL     1      33.278  -5.964 -25.912  0.00  0.00    -0.319 N 
ATOM      3  N   UNL     1      30.751  -4.432 -22.886  0.00  0.00    -0.233 NA
ATOM      4  N   UNL     1      31.925  -4.223 -25.009  0.00  0.00    -0.233 NA
ATOM      5  C   UNL     1      32.448  -7.541 -23.305  0.00  0.00    +0.005 C 
ATOM      6  C   UNL     1      32.128  -6.242 -23.779  0.00  0.00    +0.131 C 
ATOM      7  C   UNL     1      31.806  -7.713 -22.098  0.00  0.00    +0.046 C 
ATOM      8  C   UNL     1      31.291  -5.662 -22.833  0.00  0.00    +0.117 C 
ATOM      9  C   UNL     1      32.438  -5.470 -24.896  0.00  0.00    +0.113 C 
ATOM     10  C   UNL     1      31.124  -3.787 -24.010  0.00  0.00    +0.252 C 
ATOM     11  H   UNL     1      30.555  -6.417 -21.019  0.00  0.00    +0.153 HD
ATOM     12  H   UNL     1      33.645  -6.872 -25.817  0.00  0.00    +0.148 HD
ENDROOT
BRANCH   5  13
ATOM     13  C   UNL     1      33.278  -8.553 -23.901  0.00  0.00    -0.002 C 
ATOM     14  C   UNL     1      34.649  -8.339 -24.036  0.00  0.00    -0.000 C 
ATOM     15  C   UNL     1      32.709  -9.747 -24.342  0.00  0.00    -0.000 C 
ATOM     16  C   UNL     1      35.454  -9.322 -24.614  0.00  0.00    -0.000 C 
ATOM     17  C   UNL     1      33.513 -10.729 -24.920  0.00  0.00    -0.000 C 
ATOM     18  C   UNL     1      34.885 -10.517 -25.056  0.00  0.00    -0.000 C 
ENDBRANCH   5  13
BRANCH   7  19
ATOM     19  C   UNL     1      31.784  -8.837 -21.187  0.00  0.00    +0.013 C 
ATOM     20  C   UNL     1      32.322  -8.704 -19.910  0.00  0.00    +0.001 C 
ATOM     21  C   UNL     1      31.224 -10.046 -21.592  0.00  0.00    +0.001 C 
ATOM     22  C   UNL     1      32.301  -9.788 -19.032  0.00  0.00    +0.000 C 
ATOM     23  C   UNL     1      31.202 -11.129 -20.713  0.00  0.00    +0.000 C 
ATOM     24  C   UNL     1      31.741 -11.000 -19.433  0.00  0.00    +0.000 C 
ENDBRANCH   7  19
BRANCH   2  25
ATOM     25  C   UNL     1      33.623  -5.206 -27.077  0.00  0.00    +0.118 C 
BRANCH  25  26
ATOM     26  C   UNL     1      34.921  -4.442 -26.834  0.00  0.00    +0.130 C 
ATOM     27  C   UNL     1      36.044  -4.968 -27.718  0.00  0.00    +0.034 C 
BRANCH  26  28
ATOM     28  O   UNL     1      34.705  -3.066 -27.143  0.00  0.00    -0.383 OA
ATOM     29  H   UNL     1      35.291  -2.516 -26.600  0.00  0.00    +0.210 HD
ENDBRANCH  26  28
ENDBRANCH  25  26
ENDBRANCH   2  25
TORSDOF 5
ENDMDL
MODEL 9
REMARK VINA RESULT:      -6.9      2.365      4.566
REMARK  Name = 4369434
REMARK  5 active torsions:
REMARK  status: ('A' for Active; 'I' for Inactive)
REMARK    1  A    between atoms: N_2  and  C_25
REMARK    2  A    between atoms: C_5  and  C_13
REMARK    3  A    between atoms: C_7  and  C_19
REMARK    4  A    between atoms: C_25  and  C_26
REMARK    5  A    between atoms: C_26  and  O_28
REMARK                            x       y       z     vdW  Elec       q    Type
REMARK                         _______ _______ _______ _____ _____    ______ ____
ROOT
ATOM      1  N   UNL     1      33.526  -8.267 -24.449  0.00  0.00    -0.301 N 
ATOM      2  N   UNL     1      33.342 -12.723 -23.060  0.00  0.00    -0.319 N 
ATOM      3  N   UNL     1      34.737  -9.838 -25.820  0.00  0.00    -0.233 NA
ATOM      4  N   UNL     1      34.575 -12.129 -25.011  0.00  0.00    -0.233 NA
ATOM      5  C   UNL     1      32.699  -9.636 -22.901  0.00  0.00    +0.005 C 
ATOM      6  C   UNL     1      33.460 -10.407 -23.816  0.00  0.00    +0.131 C 
ATOM      7  C   UNL     1      32.757  -8.323 -23.314  0.00  0.00    +0.046 C 
ATOM      8  C   UNL     1      33.961  -9.526 -24.768  0.00  0.00    +0.117 C 
ATOM      9  C   UNL     1      33.797 -11.750 -23.970  0.00  0.00    +0.113 C 
ATOM     10  C   UNL     1      34.991 -11.162 -25.859  0.00  0.00    +0.252 C 
ATOM     11  H   UNL     1      33.732  -7.450 -24.956  0.00  0.00    +0.153 HD
ATOM     12  H   UNL     1      32.777 -12.435 -22.308  0.00  0.00    +0.148 HD
ENDROOT
BRANCH   5  13
ATOM     13  C   UNL     1      31.972 -10.057 -21.734  0.00  0.00    -0.002 C 
ATOM     14  C   UNL     1      32.353  -9.600 -20.473  0.00  0.00    -0.000 C 
ATOM     15  C   UNL     1      30.885 -10.921 -21.865  0.00  0.00    -0.000 C 
ATOM     16  C   UNL     1      31.647 -10.009 -19.341  0.00  0.00    -0.000 C 
ATOM     17  C   UNL     1      30.180 -11.329 -20.734  0.00  0.00    -0.000 C 
ATOM     18  C   UNL     1      30.560 -10.873 -19.472  0.00  0.00    -0.000 C 
ENDBRANCH   5  13
BRANCH   7  19
ATOM     19  C   UNL     1      32.167  -7.125 -22.756  0.00  0.00    +0.013 C 
ATOM     20  C   UNL     1      32.455  -6.760 -21.443  0.00  0.00    +0.001 C 
ATOM     21  C   UNL     1      31.317  -6.344 -23.532  0.00  0.00    +0.001 C 
ATOM     22  C   UNL     1      31.887  -5.605 -20.904  0.00  0.00    +0.000 C 
ATOM     23  C   UNL     1      30.749  -5.189 -22.993  0.00  0.00    +0.000 C 
ATOM     24  C   UNL     1      31.034  -4.819 -21.679  0.00  0.00    +0.000 C 
ENDBRANCH   7  19
BRANCH   2  25
ATOM     25  C   UNL     1      33.662 -14.114 -23.180  0.00  0.00    +0.118 C 
BRANCH  25  26
ATOM     26  C   UNL     1      34.305 -14.611 -21.888  0.00  0.00    +0.130 C 
ATOM     27  C   UNL     1      33.277 -14.728 -20.771  0.00  0.00    +0.034 C 
BRANCH  26  28
ATOM     28  O   UNL     1      34.868 -15.901 -22.126  0.00  0.00    -0.383 OA
ATOM     29  H   UNL     1      34.612 -16.502 -21.410  0.00  0.00    +0.210 HD
ENDBRANCH  26  28
ENDBRANCH  25  26
ENDBRANCH   2  25
TORSDOF 5
ENDMDL
