MODEL 1
REMARK VINA RESULT:      -7.8      0.000      0.000
REMARK  Name = 87031
REMARK  3 active torsions:
REMARK  status: ('A' for Active; 'I' for Inactive)
REMARK    1  A    between atoms: C_2  and  S_11
REMARK    2  A    between atoms: C_7  and  O_17
REMARK    3  A    between atoms: S_11  and  N_14
REMARK                            x       y       z     vdW  Elec       q    Type
REMARK                         _______ _______ _______ _____ _____    ______ ____
ROOT
ATOM      1  C   UNL     1      35.032 -20.644 -20.084  0.00  0.00    +0.022 C 
ATOM      2  C   UNL     1      33.890 -21.317 -19.616  0.00  0.00    +0.122 C 
ATOM      3  C   UNL     1      34.873 -19.467 -20.855  0.00  0.00    +0.035 C 
ATOM      4  C   UNL     1      32.613 -20.838 -19.905  0.00  0.00    +0.020 C 
ATOM      5  C   UNL     1      36.325 -21.112 -19.803  0.00  0.00    +0.002 C 
ATOM      6  C   UNL     1      33.579 -19.000 -21.136  0.00  0.00    +0.003 C 
ATOM      7  C   UNL     1      36.013 -18.794 -21.323  0.00  0.00    +0.134 C 
ATOM      8  C   UNL     1      32.458 -19.681 -20.663  0.00  0.00    +0.001 C 
ATOM      9  C   UNL     1      37.447 -20.430 -20.275  0.00  0.00    +0.003 C 
ATOM     10  C   UNL     1      37.292 -19.274 -21.034  0.00  0.00    +0.037 C 
ENDROOT
BRANCH   2  11
ATOM     11  S   UNL     1      33.980 -22.784 -18.653  0.00  0.00    +0.057 S 
ATOM     12  O   UNL     1      34.041 -23.915 -19.562  0.00  0.00    -0.153 OA
ATOM     13  O   UNL     1      35.009 -22.600 -17.644  0.00  0.00    -0.153 OA
BRANCH  11  14
ATOM     14  N   UNL     1      32.450 -22.758 -17.897  0.00  0.00    -0.203 NA
ATOM     15  H   UNL     1      32.047 -21.825 -17.978  0.00  0.00    +0.144 HD
ATOM     16  H   UNL     1      32.554 -22.999 -16.911  0.00  0.00    +0.144 HD
ENDBRANCH  11  14
ENDBRANCH   2  11
BRANCH   7  17
ATOM     17  O   UNL     1      35.911 -17.656 -22.070  0.00  0.00    -0.506 OA
ATOM     18  H   UNL     1      36.069 -17.685 -22.993  0.00  0.00    +0.292 HD
ENDBRANCH   7  17
TORSDOF 3
ENDMDL
MODEL 2
REMARK VINA RESULT:      -7.7      4.792      7.086
REMARK  Name = 87031
REMARK  3 active torsions:
REMARK  status: ('A' for Active; 'I' for Inactive)
REMARK    1  A    between atoms: C_2  and  S_11
REMARK    2  A    between atoms: C_7  and  O_17
REMARK    3  A    between atoms: S_11  and  N_14
REMARK                            x       y       z     vdW  Elec       q    Type
REMARK                         _______ _______ _______ _____ _____    ______ ____
ROOT
ATOM      1  C   UNL     1      32.372 -23.216 -16.110  0.00  0.00    +0.022 C 
ATOM      2  C   UNL     1      33.627 -23.193 -16.743  0.00  0.00    +0.122 C 
ATOM      3  C   UNL     1      32.299 -23.529 -14.731  0.00  0.00    +0.035 C 
ATOM      4  C   UNL     1      34.790 -23.475 -16.028  0.00  0.00    +0.020 C 
ATOM      5  C   UNL     1      31.191 -22.934 -16.814  0.00  0.00    +0.002 C 
ATOM      6  C   UNL     1      33.481 -23.810 -14.027  0.00  0.00    +0.003 C 
ATOM      7  C   UNL     1      31.046 -23.552 -14.098  0.00  0.00    +0.134 C 
ATOM      8  C   UNL     1      34.718 -23.783 -14.673  0.00  0.00    +0.001 C 
ATOM      9  C   UNL     1      29.954 -22.960 -16.169  0.00  0.00    +0.003 C 
ATOM     10  C   UNL     1      29.882 -23.269 -14.814  0.00  0.00    +0.037 C 
ENDROOT
BRANCH   2  11
ATOM     11  S   UNL     1      33.824 -22.816 -18.448  0.00  0.00    +0.057 S 
ATOM     12  O   UNL     1      33.787 -24.064 -19.190  0.00  0.00    -0.153 OA
ATOM     13  O   UNL     1      32.910 -21.738 -18.782  0.00  0.00    -0.153 OA
BRANCH  11  14
ATOM     14  N   UNL     1      35.420 -22.211 -18.453  0.00  0.00    -0.203 NA
ATOM     15  H   UNL     1      35.512 -21.487 -17.741  0.00  0.00    +0.144 HD
ATOM     16  H   UNL     1      35.631 -21.815 -19.369  0.00  0.00    +0.144 HD
ENDBRANCH  11  14
ENDBRANCH   2  11
BRANCH   7  17
ATOM     17  O   UNL     1      30.925 -23.848 -12.771  0.00  0.00    -0.506 OA
ATOM     18  H   UNL     1      30.148 -23.608 -12.306  0.00  0.00    +0.292 HD
ENDBRANCH   7  17
TORSDOF 3
ENDMDL
MODEL 3
REMARK VINA RESULT:      -7.6      4.556      5.953
REMARK  Name = 87031
REMARK  3 active torsions:
REMARK  status: ('A' for Active; 'I' for Inactive)
REMARK    1  A    between atoms: C_2  and  S_11
REMARK    2  A    between atoms: C_7  and  O_17
REMARK    3  A    between atoms: S_11  and  N_14
REMARK                            x       y       z     vdW  Elec       q    Type
REMARK                         _______ _______ _______ _____ _____    ______ ____
ROOT
ATOM      1  C   UNL     1      34.336 -16.190 -23.169  0.00  0.00    +0.022 C 
ATOM      2  C   UNL     1      34.799 -16.911 -22.056  0.00  0.00    +0.122 C 
ATOM      3  C   UNL     1      33.892 -14.857 -22.995  0.00  0.00    +0.035 C 
ATOM      4  C   UNL     1      34.823 -16.328 -20.789  0.00  0.00    +0.020 C 
ATOM      5  C   UNL     1      34.307 -16.761 -24.452  0.00  0.00    +0.002 C 
ATOM      6  C   UNL     1      33.922 -14.287 -21.712  0.00  0.00    +0.003 C 
ATOM      7  C   UNL     1      33.429 -14.136 -24.107  0.00  0.00    +0.134 C 
ATOM      8  C   UNL     1      34.385 -15.018 -20.618  0.00  0.00    +0.001 C 
ATOM      9  C   UNL     1      33.845 -16.029 -25.546  0.00  0.00    +0.003 C 
ATOM     10  C   UNL     1      33.407 -14.720 -25.374  0.00  0.00    +0.037 C 
ENDROOT
BRANCH   2  11
ATOM     11  S   UNL     1      35.373 -18.569 -22.168  0.00  0.00    +0.057 S 
ATOM     12  O   UNL     1      34.217 -19.432 -22.335  0.00  0.00    -0.153 OA
ATOM     13  O   UNL     1      36.460 -18.607 -23.130  0.00  0.00    -0.153 OA
BRANCH  11  14
ATOM     14  N   UNL     1      36.011 -18.787 -20.600  0.00  0.00    -0.203 NA
ATOM     15  H   UNL     1      35.406 -18.328 -19.920  0.00  0.00    +0.144 HD
ATOM     16  H   UNL     1      36.945 -18.381 -20.554  0.00  0.00    +0.144 HD
ENDBRANCH  11  14
ENDBRANCH   2  11
BRANCH   7  17
ATOM     17  O   UNL     1      32.990 -12.849 -23.987  0.00  0.00    -0.506 OA
ATOM     18  H   UNL     1      32.357 -12.629 -23.333  0.00  0.00    +0.292 HD
ENDBRANCH   7  17
TORSDOF 3
ENDMDL
MODEL 4
REMARK VINA RESULT:      -7.6      4.184      5.582
REMARK  Name = 87031
REMARK  3 active torsions:
REMARK  status: ('A' for Active; 'I' for Inactive)
REMARK    1  A    between atoms: C_2  and  S_11
REMARK    2  A    between atoms: C_7  and  O_17
REMARK    3  A    between atoms: S_11  and  N_14
REMARK                            x       y       z     vdW  Elec       q    Type
REMARK                         _______ _______ _______ _____ _____    ______ ____
ROOT
ATOM      1  C   UNL     1      34.625 -16.811 -23.330  0.00  0.00    +0.022 C 
ATOM      2  C   UNL     1      35.024 -18.050 -22.801  0.00  0.00    +0.122 C 
ATOM      3  C   UNL     1      34.187 -16.741 -24.674  0.00  0.00    +0.035 C 
ATOM      4  C   UNL     1      34.992 -19.202 -23.586  0.00  0.00    +0.020 C 
ATOM      5  C   UNL     1      34.651 -15.640 -22.554  0.00  0.00    +0.002 C 
ATOM      6  C   UNL     1      34.161 -17.912 -25.449  0.00  0.00    +0.003 C 
ATOM      7  C   UNL     1      33.787 -15.503 -25.203  0.00  0.00    +0.134 C 
ATOM      8  C   UNL     1      34.562 -19.133 -24.907  0.00  0.00    +0.001 C 
ATOM      9  C   UNL     1      34.249 -14.419 -23.096  0.00  0.00    +0.003 C 
ATOM     10  C   UNL     1      33.819 -14.350 -24.417  0.00  0.00    +0.037 C 
ENDROOT
BRANCH   2  11
ATOM     11  S   UNL     1      35.584 -18.242 -21.146  0.00  0.00    +0.057 S 
ATOM     12  O   UNL     1      36.922 -18.804 -21.188  0.00  0.00    -0.153 OA
ATOM     13  O   UNL     1      35.334 -16.999 -20.438  0.00  0.00    -0.153 OA
BRANCH  11  14
ATOM     14  N   UNL     1      34.497 -19.431 -20.583  0.00  0.00    -0.203 NA
ATOM     15  H   UNL     1      33.909 -19.747 -21.354  0.00  0.00    +0.144 HD
ATOM     16  H   UNL     1      33.910 -19.034 -19.849  0.00  0.00    +0.144 HD
ENDBRANCH  11  14
ENDBRANCH   2  11
BRANCH   7  17
ATOM     17  O   UNL     1      33.357 -15.386 -26.493  0.00  0.00    -0.506 OA
ATOM     18  H   UNL     1      32.482 -15.104 -26.671  0.00  0.00    +0.292 HD
ENDBRANCH   7  17
TORSDOF 3
ENDMDL
MODEL 5
REMARK VINA RESULT:      -7.6      5.365      7.259
REMARK  Name = 87031
REMARK  3 active torsions:
REMARK  status: ('A' for Active; 'I' for Inactive)
REMARK    1  A    between atoms: C_2  and  S_11
REMARK    2  A    between atoms: C_7  and  O_17
REMARK    3  A    between atoms: S_11  and  N_14
REMARK                            x       y       z     vdW  Elec       q    Type
REMARK                         _______ _______ _______ _____ _____    ______ ____
ROOT
ATOM      1  C   UNL     1      34.268 -15.996 -23.204  0.00  0.00    +0.022 C 
ATOM      2  C   UNL     1      33.805 -14.752 -22.741  0.00  0.00    +0.122 C 
ATOM      3  C   UNL     1      34.797 -16.926 -22.278  0.00  0.00    +0.035 C 
ATOM      4  C   UNL     1      33.864 -14.431 -21.386  0.00  0.00    +0.020 C 
ATOM      5  C   UNL     1      34.216 -16.336 -24.566  0.00  0.00    +0.002 C 
ATOM      6  C   UNL     1      34.849 -16.584 -20.916  0.00  0.00    +0.003 C 
ATOM      7  C   UNL     1      35.260 -18.168 -22.740  0.00  0.00    +0.134 C 
ATOM      8  C   UNL     1      34.385 -15.345 -20.475  0.00  0.00    +0.001 C 
ATOM      9  C   UNL     1      34.679 -17.576 -25.007  0.00  0.00    +0.003 C 
ATOM     10  C   UNL     1      35.200 -18.490 -24.096  0.00  0.00    +0.037 C 
ENDROOT
BRANCH   2  11
ATOM     11  S   UNL     1      33.131 -13.530 -23.810  0.00  0.00    +0.057 S 
ATOM     12  O   UNL     1      34.147 -12.515 -24.026  0.00  0.00    -0.153 OA
ATOM     13  O   UNL     1      32.520 -14.207 -24.940  0.00  0.00    -0.153 OA
BRANCH  11  14
ATOM     14  N   UNL     1      31.902 -12.887 -22.816  0.00  0.00    -0.203 NA
ATOM     15  H   UNL     1      32.311 -12.236 -22.146  0.00  0.00    +0.144 HD
ATOM     16  H   UNL     1      31.440 -13.645 -22.313  0.00  0.00    +0.144 HD
ENDBRANCH  11  14
ENDBRANCH   2  11
BRANCH   7  17
ATOM     17  O   UNL     1      35.778 -19.097 -21.884  0.00  0.00    -0.506 OA
ATOM     18  H   UNL     1      35.925 -18.876 -20.986  0.00  0.00    +0.292 HD
ENDBRANCH   7  17
TORSDOF 3
ENDMDL
MODEL 6
REMARK VINA RESULT:      -7.5      3.093      5.289
REMARK  Name = 87031
REMARK  3 active torsions:
REMARK  status: ('A' for Active; 'I' for Inactive)
REMARK    1  A    between atoms: C_2  and  S_11
REMARK    2  A    between atoms: C_7  and  O_17
REMARK    3  A    between atoms: S_11  and  N_14
REMARK                            x       y       z     vdW  Elec       q    Type
REMARK                         _______ _______ _______ _____ _____    ______ ____
ROOT
ATOM      1  C   UNL     1      34.691 -19.608 -20.985  0.00  0.00    +0.022 C 
ATOM      2  C   UNL     1      35.371 -18.646 -21.751  0.00  0.00    +0.122 C 
ATOM      3  C   UNL     1      35.435 -20.504 -20.181  0.00  0.00    +0.035 C 
ATOM      4  C   UNL     1      36.763 -18.568 -21.724  0.00  0.00    +0.020 C 
ATOM      5  C   UNL     1      33.290 -19.700 -21.000  0.00  0.00    +0.002 C 
ATOM      6  C   UNL     1      36.837 -20.412 -20.167  0.00  0.00    +0.003 C 
ATOM      7  C   UNL     1      34.756 -21.466 -19.416  0.00  0.00    +0.134 C 
ATOM      8  C   UNL     1      37.494 -19.450 -20.933  0.00  0.00    +0.001 C 
ATOM      9  C   UNL     1      32.632 -20.662 -20.233  0.00  0.00    +0.003 C 
ATOM     10  C   UNL     1      33.363 -21.543 -19.443  0.00  0.00    +0.037 C 
ENDROOT
BRANCH   2  11
ATOM     11  S   UNL     1      34.539 -17.489 -22.780  0.00  0.00    +0.057 S 
ATOM     12  O   UNL     1      34.017 -18.207 -23.930  0.00  0.00    -0.153 OA
ATOM     13  O   UNL     1      33.652 -16.698 -21.946  0.00  0.00    -0.153 OA
BRANCH  11  14
ATOM     14  N   UNL     1      35.849 -16.514 -23.279  0.00  0.00    -0.203 NA
ATOM     15  H   UNL     1      35.544 -15.891 -24.027  0.00  0.00    +0.144 HD
ATOM     16  H   UNL     1      36.605 -17.109 -23.619  0.00  0.00    +0.144 HD
ENDBRANCH  11  14
ENDBRANCH   2  11
BRANCH   7  17
ATOM     17  O   UNL     1      35.431 -22.351 -18.626  0.00  0.00    -0.506 OA
ATOM     18  H   UNL     1      36.314 -22.585 -18.832  0.00  0.00    +0.292 HD
ENDBRANCH   7  17
TORSDOF 3
ENDMDL
MODEL 7
REMARK VINA RESULT:      -7.5      3.410      4.553
REMARK  Name = 87031
REMARK  3 active torsions:
REMARK  status: ('A' for Active; 'I' for Inactive)
REMARK    1  A    between atoms: C_2  and  S_11
REMARK    2  A    between atoms: C_7  and  O_17
REMARK    3  A    between atoms: S_11  and  N_14
REMARK                            x       y       z     vdW  Elec       q    Type
REMARK                         _______ _______ _______ _____ _____    ______ ____
ROOT
ATOM      1  C   UNL     1      35.201 -22.499 -17.277  0.00  0.00    +0.022 C 
ATOM      2  C   UNL     1      35.196 -23.074 -15.995  0.00  0.00    +0.122 C 
ATOM      3  C   UNL     1      33.992 -22.433 -18.011  0.00  0.00    +0.035 C 
ATOM      4  C   UNL     1      34.017 -23.576 -15.445  0.00  0.00    +0.020 C 
ATOM      5  C   UNL     1      36.379 -21.988 -17.846  0.00  0.00    +0.002 C 
ATOM      6  C   UNL     1      32.815 -22.944 -17.441  0.00  0.00    +0.003 C 
ATOM      7  C   UNL     1      33.997 -21.858 -19.292  0.00  0.00    +0.134 C 
ATOM      8  C   UNL     1      32.829 -23.512 -16.166  0.00  0.00    +0.001 C 
ATOM      9  C   UNL     1      36.365 -21.420 -19.120  0.00  0.00    +0.003 C 
ATOM     10  C   UNL     1      35.177 -21.355 -19.842  0.00  0.00    +0.037 C 
ENDROOT
BRANCH   2  11
ATOM     11  S   UNL     1      36.642 -23.203 -15.005  0.00  0.00    +0.057 S 
ATOM     12  O   UNL     1      37.584 -22.193 -15.454  0.00  0.00    -0.153 OA
ATOM     13  O   UNL     1      36.233 -23.256 -13.613  0.00  0.00    -0.153 OA
BRANCH  11  14
ATOM     14  N   UNL     1      37.209 -24.743 -15.476  0.00  0.00    -0.203 NA
ATOM     15  H   UNL     1      38.056 -24.968 -14.955  0.00  0.00    +0.144 HD
ATOM     16  H   UNL     1      37.416 -24.738 -16.475  0.00  0.00    +0.144 HD
ENDBRANCH  11  14
ENDBRANCH   2  11
BRANCH   7  17
ATOM     17  O   UNL     1      32.856 -21.772 -20.037  0.00  0.00    -0.506 OA
ATOM     18  H   UNL     1      32.160 -21.208 -19.764  0.00  0.00    +0.292 HD
ENDBRANCH   7  17
TORSDOF 3
ENDMDL
MODEL 8
REMARK VINA RESULT:      -7.5      5.631      7.509
REMARK  Name = 87031
REMARK  3 active torsions:
REMARK  status: ('A' for Active; 'I' for Inactive)
REMARK    1  A    between atoms: C_2  and  S_11
REMARK    2  A    between atoms: C_7  and  O_17
REMARK    3  A    between atoms: S_11  and  N_14
REMARK                            x       y       z     vdW  Elec       q    Type
REMARK                         _______ _______ _______ _____ _____    ______ ____
ROOT
ATOM      1  C   UNL     1      34.148 -15.614 -22.956  0.00  0.00    +0.022 C 
ATOM      2  C   UNL     1      33.824 -15.378 -24.303  0.00  0.00    +0.122 C 
ATOM      3  C   UNL     1      34.767 -16.835 -22.596  0.00  0.00    +0.035 C 
ATOM      4  C   UNL     1      34.107 -16.332 -25.280  0.00  0.00    +0.020 C 
ATOM      5  C   UNL     1      33.871 -14.665 -21.959  0.00  0.00    +0.002 C 
ATOM      6  C   UNL     1      35.044 -17.784 -23.594  0.00  0.00    +0.003 C 
ATOM      7  C   UNL     1      35.090 -17.071 -21.251  0.00  0.00    +0.134 C 
ATOM      8  C   UNL     1      34.716 -17.532 -24.927  0.00  0.00    +0.001 C 
ATOM      9  C   UNL     1      34.199 -14.916 -20.627  0.00  0.00    +0.003 C 
ATOM     10  C   UNL     1      34.808 -16.116 -20.273  0.00  0.00    +0.037 C 
ENDROOT
BRANCH   2  11
ATOM     11  S   UNL     1      33.055 -13.896 -24.851  0.00  0.00    +0.057 S 
ATOM     12  O   UNL     1      31.954 -13.603 -23.949  0.00  0.00    -0.153 OA
ATOM     13  O   UNL     1      34.093 -12.908 -25.084  0.00  0.00    -0.153 OA
BRANCH  11  14
ATOM     14  N   UNL     1      32.425 -14.406 -26.353  0.00  0.00    -0.203 NA
ATOM     15  H   UNL     1      31.860 -15.243 -26.219  0.00  0.00    +0.144 HD
ATOM     16  H   UNL     1      33.194 -14.614 -26.991  0.00  0.00    +0.144 HD
ENDBRANCH  11  14
ENDBRANCH   2  11
BRANCH   7  17
ATOM     17  O   UNL     1      35.688 -18.233 -20.856  0.00  0.00    -0.506 OA
ATOM     18  H   UNL     1      36.398 -18.211 -20.244  0.00  0.00    +0.292 HD
ENDBRANCH   7  17
TORSDOF 3
ENDMDL
MODEL 9
REMARK VINA RESULT:      -7.5      5.764      6.955
REMARK  Name = 87031
REMARK  3 active torsions:
REMARK  status: ('A' for Active; 'I' for Inactive)
REMARK    1  A    between atoms: C_2  and  S_11
REMARK    2  A    between atoms: C_7  and  O_17
REMARK    3  A    between atoms: S_11  and  N_14
REMARK                            x       y       z     vdW  Elec       q    Type
REMARK                         _______ _______ _______ _____ _____    ______ ____
ROOT
ATOM      1  C   UNL     1      36.156 -23.150 -14.624  0.00  0.00    +0.022 C 
ATOM      2  C   UNL     1      36.151 -23.597 -13.292  0.00  0.00    +0.122 C 
ATOM      3  C   UNL     1      34.966 -23.227 -15.385  0.00  0.00    +0.035 C 
ATOM      4  C   UNL     1      34.989 -24.114 -12.720  0.00  0.00    +0.020 C 
ATOM      5  C   UNL     1      37.317 -22.626 -15.216  0.00  0.00    +0.002 C 
ATOM      6  C   UNL     1      33.805 -23.751 -14.793  0.00  0.00    +0.003 C 
ATOM      7  C   UNL     1      34.971 -22.781 -16.716  0.00  0.00    +0.134 C 
ATOM      8  C   UNL     1      33.818 -24.191 -13.468  0.00  0.00    +0.001 C 
ATOM      9  C   UNL     1      37.304 -22.186 -16.540  0.00  0.00    +0.003 C 
ATOM     10  C   UNL     1      36.134 -22.263 -17.289  0.00  0.00    +0.037 C 
ENDROOT
BRANCH   2  11
ATOM     11  S   UNL     1      37.576 -23.542 -12.264  0.00  0.00    +0.057 S 
ATOM     12  O   UNL     1      38.601 -24.370 -12.876  0.00  0.00    -0.153 OA
ATOM     13  O   UNL     1      37.850 -22.152 -11.946  0.00  0.00    -0.153 OA
BRANCH  11  14
ATOM     14  N   UNL     1      36.986 -24.326 -10.868  0.00  0.00    -0.203 NA
ATOM     15  H   UNL     1      37.766 -24.729 -10.349  0.00  0.00    +0.144 HD
ATOM     16  H   UNL     1      36.341 -25.068 -11.141  0.00  0.00    +0.144 HD
ENDBRANCH  11  14
ENDBRANCH   2  11
BRANCH   7  17
ATOM     17  O   UNL     1      33.847 -22.836 -17.489  0.00  0.00    -0.506 OA
ATOM     18  H   UNL     1      33.447 -22.044 -17.791  0.00  0.00    +0.292 HD
ENDBRANCH   7  17
TORSDOF 3
ENDMDL
