MODEL 1
REMARK VINA RESULT:     -10.5      0.000      0.000
REMARK  Name = 9887712
REMARK  10 active torsions:
REMARK  status: ('A' for Active; 'I' for Inactive)
REMARK    1  A    between atoms: C_2  and  C_12
REMARK    2  A    between atoms: C_5  and  C_23
REMARK    3  A    between atoms: C_9  and  O_14
REMARK    4  A    between atoms: C_10  and  O_16
REMARK    5  A    between atoms: C_11  and  O_18
REMARK    6  A    between atoms: C_13  and  C_20
REMARK    7  A    between atoms: C_20  and  O_21
REMARK    8  A    between atoms: C_23  and  C_24
REMARK    9  A    between atoms: C_29  and  O_30
REMARK   10  A    between atoms: O_30  and  C_31
REMARK                            x       y       z     vdW  Elec       q    Type
REMARK                         _______ _______ _______ _____ _____    ______ ____
ROOT
ATOM      1 CL   UNL     1      35.435 -19.203 -24.111  0.00  0.00    -0.083 Cl
ATOM      2  C   UNL     1      33.742 -15.020 -24.076  0.00  0.00    +0.007 C 
ATOM      3  C   UNL     1      34.323 -15.534 -22.918  0.00  0.00    -0.005 C 
ATOM      4  C   UNL     1      33.686 -15.794 -25.234  0.00  0.00    -0.001 C 
ATOM      5  C   UNL     1      34.849 -16.825 -22.917  0.00  0.00    -0.007 C 
ATOM      6  C   UNL     1      34.211 -17.086 -25.233  0.00  0.00    +0.011 C 
ATOM      7  C   UNL     1      34.794 -17.602 -24.075  0.00  0.00    +0.054 C 
ENDROOT
BRANCH   2  12
ATOM      8  O   UNL     1      34.179 -12.735 -24.579  0.00  0.00    -0.347 OA
ATOM      9  C   UNL     1      32.289 -11.709 -22.670  0.00  0.00    +0.169 C 
ATOM     10  C   UNL     1      32.712 -13.181 -22.676  0.00  0.00    +0.171 C 
ATOM     11  C   UNL     1      33.339 -10.826 -23.344  0.00  0.00    +0.169 C 
ATOM     12  C   UNL     1      33.169 -13.615 -24.077  0.00  0.00    +0.167 C 
ATOM     13  C   UNL     1      33.723 -11.389 -24.714  0.00  0.00    +0.174 C 
BRANCH   9  14
ATOM     14  O   UNL     1      32.140 -11.264 -21.321  0.00  0.00    -0.379 OA
ATOM     15  H   UNL     1      32.171 -10.294 -21.296  0.00  0.00    +0.211 HD
ENDBRANCH   9  14
BRANCH  10  16
ATOM     16  O   UNL     1      31.599 -13.985 -22.288  0.00  0.00    -0.379 OA
ATOM     17  H   UNL     1      31.815 -14.921 -22.421  0.00  0.00    +0.211 HD
ENDBRANCH  10  16
BRANCH  11  18
ATOM     18  O   UNL     1      32.814  -9.511 -23.507  0.00  0.00    -0.379 OA
ATOM     19  H   UNL     1      32.080  -9.376 -22.886  0.00  0.00    +0.211 HD
ENDBRANCH  11  18
BRANCH  13  20
ATOM     20  C   UNL     1      34.848 -10.586 -25.360  0.00  0.00    +0.169 C 
BRANCH  20  21
ATOM     21  O   UNL     1      35.608  -9.971 -24.336  0.00  0.00    -0.379 OA
ATOM     22  H   UNL     1      36.168  -9.278 -24.721  0.00  0.00    +0.211 HD
ENDBRANCH  20  21
ENDBRANCH  13  20
ENDBRANCH   2  12
BRANCH   5  23
ATOM     23  C   UNL     1      35.465 -17.340 -21.656  0.00  0.00    +0.053 C 
BRANCH  23  24
ATOM     24  C   UNL     1      34.800 -18.588 -21.116  0.00  0.00    -0.018 C 
ATOM     25  C   UNL     1      33.418 -18.652 -21.071  0.00  0.00    -0.001 C 
ATOM     26  C   UNL     1      35.590 -19.637 -20.679  0.00  0.00    -0.001 C 
ATOM     27  C   UNL     1      32.806 -19.802 -20.573  0.00  0.00    +0.037 C 
ATOM     28  C   UNL     1      34.977 -20.787 -20.180  0.00  0.00    +0.037 C 
ATOM     29  C   UNL     1      33.586 -20.869 -20.127  0.00  0.00    +0.139 C 
BRANCH  29  30
ATOM     30  O   UNL     1      32.988 -21.992 -19.642  0.00  0.00    -0.475 OA
BRANCH  30  31
ATOM     31  C   UNL     1      33.746 -22.793 -18.738  0.00  0.00    +0.206 C 
ATOM     32  C   UNL     1      32.949 -22.991 -17.466  0.00  0.00    +0.051 C 
ENDBRANCH  30  31
ENDBRANCH  29  30
ENDBRANCH  23  24
ENDBRANCH   5  23
TORSDOF 10
ENDMDL
MODEL 2
REMARK VINA RESULT:     -10.1      4.186     11.236
REMARK  Name = 9887712
REMARK  10 active torsions:
REMARK  status: ('A' for Active; 'I' for Inactive)
REMARK    1  A    between atoms: C_2  and  C_12
REMARK    2  A    between atoms: C_5  and  C_23
REMARK    3  A    between atoms: C_9  and  O_14
REMARK    4  A    between atoms: C_10  and  O_16
REMARK    5  A    between atoms: C_11  and  O_18
REMARK    6  A    between atoms: C_13  and  C_20
REMARK    7  A    between atoms: C_20  and  O_21
REMARK    8  A    between atoms: C_23  and  C_24
REMARK    9  A    between atoms: C_29  and  O_30
REMARK   10  A    between atoms: O_30  and  C_31
REMARK                            x       y       z     vdW  Elec       q    Type
REMARK                         _______ _______ _______ _____ _____    ______ ____
ROOT
ATOM      1 CL   UNL     1      37.185 -21.409 -17.550  0.00  0.00    -0.083 Cl
ATOM      2  C   UNL     1      33.315 -23.439 -16.424  0.00  0.00    +0.007 C 
ATOM      3  C   UNL     1      33.612 -23.228 -17.770  0.00  0.00    -0.005 C 
ATOM      4  C   UNL     1      34.208 -23.026 -15.437  0.00  0.00    -0.001 C 
ATOM      5  C   UNL     1      34.805 -22.602 -18.129  0.00  0.00    -0.007 C 
ATOM      6  C   UNL     1      35.401 -22.398 -15.797  0.00  0.00    +0.011 C 
ATOM      7  C   UNL     1      35.700 -22.187 -17.143  0.00  0.00    +0.054 C 
ENDROOT
BRANCH   2  12
ATOM      8  O   UNL     1      30.941 -23.275 -16.449  0.00  0.00    -0.347 OA
ATOM      9  C   UNL     1      30.568 -24.933 -14.129  0.00  0.00    +0.169 C 
ATOM     10  C   UNL     1      31.946 -24.394 -14.523  0.00  0.00    +0.171 C 
ATOM     11  C   UNL     1      29.447 -24.075 -14.716  0.00  0.00    +0.169 C 
ATOM     12  C   UNL     1      32.018 -24.120 -16.033  0.00  0.00    +0.167 C 
ATOM     13  C   UNL     1      29.658 -23.857 -16.215  0.00  0.00    +0.174 C 
BRANCH   9  14
ATOM     14  O   UNL     1      30.439 -24.912 -12.706  0.00  0.00    -0.379 OA
ATOM     15  H   UNL     1      29.638 -25.395 -12.448  0.00  0.00    +0.211 HD
ENDBRANCH   9  14
BRANCH  10  16
ATOM     16  O   UNL     1      32.937 -25.365 -14.186  0.00  0.00    -0.379 OA
ATOM     17  H   UNL     1      33.373 -25.675 -14.995  0.00  0.00    +0.211 HD
ENDBRANCH  10  16
BRANCH  11  18
ATOM     18  O   UNL     1      28.197 -24.727 -14.507  0.00  0.00    -0.379 OA
ATOM     19  H   UNL     1      27.902 -24.577 -13.595  0.00  0.00    +0.211 HD
ENDBRANCH  11  18
BRANCH  13  20
ATOM     20  C   UNL     1      28.613 -22.915 -16.803  0.00  0.00    +0.169 C 
BRANCH  20  21
ATOM     21  O   UNL     1      27.696 -23.678 -17.566  0.00  0.00    -0.379 OA
ATOM     22  H   UNL     1      27.827 -23.492 -18.509  0.00  0.00    +0.211 HD
ENDBRANCH  20  21
ENDBRANCH  13  20
ENDBRANCH   2  12
BRANCH   5  23
ATOM     23  C   UNL     1      35.088 -22.393 -19.582  0.00  0.00    +0.053 C 
BRANCH  23  24
ATOM     24  C   UNL     1      34.705 -21.020 -20.089  0.00  0.00    -0.018 C 
ATOM     25  C   UNL     1      33.368 -20.667 -20.140  0.00  0.00    -0.001 C 
ATOM     26  C   UNL     1      35.701 -20.148 -20.492  0.00  0.00    -0.001 C 
ATOM     27  C   UNL     1      33.015 -19.401 -20.608  0.00  0.00    +0.037 C 
ATOM     28  C   UNL     1      35.349 -18.882 -20.960  0.00  0.00    +0.037 C 
ATOM     29  C   UNL     1      34.007 -18.509 -21.018  0.00  0.00    +0.139 C 
BRANCH  29  30
ATOM     30  O   UNL     1      33.662 -17.273 -21.474  0.00  0.00    -0.475 OA
BRANCH  30  31
ATOM     31  C   UNL     1      34.700 -16.297 -21.553  0.00  0.00    +0.206 C 
ATOM     32  C   UNL     1      34.408 -15.186 -20.566  0.00  0.00    +0.051 C 
ENDBRANCH  30  31
ENDBRANCH  29  30
ENDBRANCH  23  24
ENDBRANCH   5  23
TORSDOF 10
ENDMDL
MODEL 3
REMARK VINA RESULT:      -9.9      5.383     12.424
REMARK  Name = 9887712
REMARK  10 active torsions:
REMARK  status: ('A' for Active; 'I' for Inactive)
REMARK    1  A    between atoms: C_2  and  C_12
REMARK    2  A    between atoms: C_5  and  C_23
REMARK    3  A    between atoms: C_9  and  O_14
REMARK    4  A    between atoms: C_10  and  O_16
REMARK    5  A    between atoms: C_11  and  O_18
REMARK    6  A    between atoms: C_13  and  C_20
REMARK    7  A    between atoms: C_20  and  O_21
REMARK    8  A    between atoms: C_23  and  C_24
REMARK    9  A    between atoms: C_29  and  O_30
REMARK   10  A    between atoms: O_30  and  C_31
REMARK                            x       y       z     vdW  Elec       q    Type
REMARK                         _______ _______ _______ _____ _____    ______ ____
ROOT
ATOM      1 CL   UNL     1      30.777 -22.615 -17.054  0.00  0.00    -0.083 Cl
ATOM      2  C   UNL     1      34.602 -23.584 -14.864  0.00  0.00    +0.007 C 
ATOM      3  C   UNL     1      34.573 -23.653 -16.255  0.00  0.00    -0.005 C 
ATOM      4  C   UNL     1      33.458 -23.218 -14.157  0.00  0.00    -0.001 C 
ATOM      5  C   UNL     1      33.397 -23.356 -16.943  0.00  0.00    -0.007 C 
ATOM      6  C   UNL     1      32.281 -22.922 -14.845  0.00  0.00    +0.011 C 
ATOM      7  C   UNL     1      32.250 -22.990 -16.238  0.00  0.00    +0.054 C 
ENDROOT
BRANCH   2  12
ATOM      8  O   UNL     1      36.912 -24.112 -15.087  0.00  0.00    -0.347 OA
ATOM      9  C   UNL     1      37.066 -25.545 -12.598  0.00  0.00    +0.169 C 
ATOM     10  C   UNL     1      35.724 -25.143 -13.216  0.00  0.00    +0.171 C 
ATOM     11  C   UNL     1      38.167 -25.612 -13.655  0.00  0.00    +0.169 C 
ATOM     12  C   UNL     1      35.881 -23.907 -14.116  0.00  0.00    +0.167 C 
ATOM     13  C   UNL     1      38.193 -24.334 -14.496  0.00  0.00    +0.174 C 
BRANCH   9  14
ATOM     14  O   UNL     1      36.946 -26.838 -12.003  0.00  0.00    -0.379 OA
ATOM     15  H   UNL     1      36.131 -27.263 -12.315  0.00  0.00    +0.211 HD
ENDBRANCH   9  14
BRANCH  10  16
ATOM     16  O   UNL     1      34.805 -24.833 -12.169  0.00  0.00    -0.379 OA
ATOM     17  H   UNL     1      34.840 -25.525 -11.492  0.00  0.00    +0.211 HD
ENDBRANCH  10  16
BRANCH  11  18
ATOM     18  O   UNL     1      39.429 -25.777 -13.012  0.00  0.00    -0.379 OA
ATOM     19  H   UNL     1      40.091 -26.055 -13.665  0.00  0.00    +0.211 HD
ENDBRANCH  11  18
BRANCH  13  20
ATOM     20  C   UNL     1      39.211 -24.422 -15.628  0.00  0.00    +0.169 C 
BRANCH  20  21
ATOM     21  O   UNL     1      39.678 -25.757 -15.712  0.00  0.00    -0.379 OA
ATOM     22  H   UNL     1      38.923 -26.366 -15.684  0.00  0.00    +0.211 HD
ENDBRANCH  20  21
ENDBRANCH  13  20
ENDBRANCH   2  12
BRANCH   5  23
ATOM     23  C   UNL     1      33.406 -23.441 -18.435  0.00  0.00    +0.053 C 
BRANCH  23  24
ATOM     24  C   UNL     1      33.973 -22.213 -19.114  0.00  0.00    -0.018 C 
ATOM     25  C   UNL     1      33.106 -21.284 -19.664  0.00  0.00    -0.001 C 
ATOM     26  C   UNL     1      35.345 -22.048 -19.171  0.00  0.00    -0.001 C 
ATOM     27  C   UNL     1      33.629 -20.153 -20.291  0.00  0.00    +0.037 C 
ATOM     28  C   UNL     1      35.869 -20.917 -19.798  0.00  0.00    +0.037 C 
ATOM     29  C   UNL     1      35.011 -19.970 -20.357  0.00  0.00    +0.139 C 
BRANCH  29  30
ATOM     30  O   UNL     1      35.521 -18.865 -20.968  0.00  0.00    -0.475 OA
BRANCH  30  31
ATOM     31  C   UNL     1      34.738 -18.278 -22.006  0.00  0.00    +0.206 C 
ATOM     32  C   UNL     1      35.140 -18.889 -23.332  0.00  0.00    +0.051 C 
ENDBRANCH  30  31
ENDBRANCH  29  30
ENDBRANCH  23  24
ENDBRANCH   5  23
TORSDOF 10
ENDMDL
MODEL 4
REMARK VINA RESULT:      -9.7      5.428     12.377
REMARK  Name = 9887712
REMARK  10 active torsions:
REMARK  status: ('A' for Active; 'I' for Inactive)
REMARK    1  A    between atoms: C_2  and  C_12
REMARK    2  A    between atoms: C_5  and  C_23
REMARK    3  A    between atoms: C_9  and  O_14
REMARK    4  A    between atoms: C_10  and  O_16
REMARK    5  A    between atoms: C_11  and  O_18
REMARK    6  A    between atoms: C_13  and  C_20
REMARK    7  A    between atoms: C_20  and  O_21
REMARK    8  A    between atoms: C_23  and  C_24
REMARK    9  A    between atoms: C_29  and  O_30
REMARK   10  A    between atoms: O_30  and  C_31
REMARK                            x       y       z     vdW  Elec       q    Type
REMARK                         _______ _______ _______ _____ _____    ______ ____
ROOT
ATOM      1 CL   UNL     1      30.697 -22.356 -17.193  0.00  0.00    -0.083 Cl
ATOM      2  C   UNL     1      34.234 -24.053 -14.962  0.00  0.00    +0.007 C 
ATOM      3  C   UNL     1      34.261 -24.005 -16.355  0.00  0.00    -0.005 C 
ATOM      4  C   UNL     1      33.122 -23.580 -14.267  0.00  0.00    -0.001 C 
ATOM      5  C   UNL     1      33.174 -23.483 -17.055  0.00  0.00    -0.007 C 
ATOM      6  C   UNL     1      32.034 -23.058 -14.967  0.00  0.00    +0.011 C 
ATOM      7  C   UNL     1      32.061 -23.009 -16.361  0.00  0.00    +0.054 C 
ENDROOT
BRANCH   2  12
ATOM      8  O   UNL     1      36.074 -23.532 -13.544  0.00  0.00    -0.347 OA
ATOM      9  C   UNL     1      37.650 -25.793 -14.367  0.00  0.00    +0.169 C 
ATOM     10  C   UNL     1      36.390 -25.369 -15.126  0.00  0.00    +0.171 C 
ATOM     11  C   UNL     1      38.235 -24.629 -13.567  0.00  0.00    +0.169 C 
ATOM     12  C   UNL     1      35.417 -24.621 -14.201  0.00  0.00    +0.167 C 
ATOM     13  C   UNL     1      37.156 -23.958 -12.716  0.00  0.00    +0.174 C 
BRANCH   9  14
ATOM     14  O   UNL     1      38.641 -26.229 -15.299  0.00  0.00    -0.379 OA
ATOM     15  H   UNL     1      38.427 -27.125 -15.602  0.00  0.00    +0.211 HD
ENDBRANCH   9  14
BRANCH  10  16
ATOM     16  O   UNL     1      35.737 -26.534 -15.629  0.00  0.00    -0.379 OA
ATOM     17  H   UNL     1      34.798 -26.508 -15.389  0.00  0.00    +0.211 HD
ENDBRANCH  10  16
BRANCH  11  18
ATOM     18  O   UNL     1      39.270 -25.115 -12.716  0.00  0.00    -0.379 OA
ATOM     19  H   UNL     1      38.976 -25.933 -12.284  0.00  0.00    +0.211 HD
ENDBRANCH  11  18
BRANCH  13  20
ATOM     20  C   UNL     1      37.691 -22.726 -11.992  0.00  0.00    +0.169 C 
BRANCH  20  21
ATOM     21  O   UNL     1      37.302 -22.798 -10.632  0.00  0.00    -0.379 OA
ATOM     22  H   UNL     1      38.055 -22.560 -10.068  0.00  0.00    +0.211 HD
ENDBRANCH  20  21
ENDBRANCH  13  20
ENDBRANCH   2  12
BRANCH   5  23
ATOM     23  C   UNL     1      33.241 -23.447 -18.548  0.00  0.00    +0.053 C 
BRANCH  23  24
ATOM     24  C   UNL     1      33.991 -22.253 -19.098  0.00  0.00    -0.018 C 
ATOM     25  C   UNL     1      33.287 -21.252 -19.743  0.00  0.00    -0.001 C 
ATOM     26  C   UNL     1      35.365 -22.192 -18.944  0.00  0.00    -0.001 C 
ATOM     27  C   UNL     1      33.980 -20.153 -20.252  0.00  0.00    +0.037 C 
ATOM     28  C   UNL     1      36.058 -21.092 -19.452  0.00  0.00    +0.037 C 
ATOM     29  C   UNL     1      35.365 -20.073 -20.105  0.00  0.00    +0.139 C 
BRANCH  29  30
ATOM     30  O   UNL     1      36.040 -18.999 -20.600  0.00  0.00    -0.475 OA
BRANCH  30  31
ATOM     31  C   UNL     1      35.275 -18.016 -21.296  0.00  0.00    +0.206 C 
ATOM     32  C   UNL     1      35.775 -17.920 -22.721  0.00  0.00    +0.051 C 
ENDBRANCH  30  31
ENDBRANCH  29  30
ENDBRANCH  23  24
ENDBRANCH   5  23
TORSDOF 10
ENDMDL
MODEL 5
REMARK VINA RESULT:      -9.4      1.185      2.707
REMARK  Name = 9887712
REMARK  10 active torsions:
REMARK  status: ('A' for Active; 'I' for Inactive)
REMARK    1  A    between atoms: C_2  and  C_12
REMARK    2  A    between atoms: C_5  and  C_23
REMARK    3  A    between atoms: C_9  and  O_14
REMARK    4  A    between atoms: C_10  and  O_16
REMARK    5  A    between atoms: C_11  and  O_18
REMARK    6  A    between atoms: C_13  and  C_20
REMARK    7  A    between atoms: C_20  and  O_21
REMARK    8  A    between atoms: C_23  and  C_24
REMARK    9  A    between atoms: C_29  and  O_30
REMARK   10  A    between atoms: O_30  and  C_31
REMARK                            x       y       z     vdW  Elec       q    Type
REMARK                         _______ _______ _______ _____ _____    ______ ____
ROOT
ATOM      1 CL   UNL     1      34.545 -18.121 -25.136  0.00  0.00    -0.083 Cl
ATOM      2  C   UNL     1      33.783 -14.004 -23.452  0.00  0.00    +0.007 C 
ATOM      3  C   UNL     1      34.604 -14.888 -22.755  0.00  0.00    -0.005 C 
ATOM      4  C   UNL     1      33.203 -14.391 -24.659  0.00  0.00    -0.001 C 
ATOM      5  C   UNL     1      34.847 -16.163 -23.265  0.00  0.00    -0.007 C 
ATOM      6  C   UNL     1      33.445 -15.667 -25.170  0.00  0.00    +0.011 C 
ATOM      7  C   UNL     1      34.268 -16.552 -24.473  0.00  0.00    +0.054 C 
ENDROOT
BRANCH   2  12
ATOM      8  O   UNL     1      32.261 -12.655 -22.216  0.00  0.00    -0.347 OA
ATOM      9  C   UNL     1      33.087 -10.188 -23.443  0.00  0.00    +0.169 C 
ATOM     10  C   UNL     1      33.512 -11.549 -24.001  0.00  0.00    +0.171 C 
ATOM     11  C   UNL     1      31.814 -10.304 -22.605  0.00  0.00    +0.169 C 
ATOM     12  C   UNL     1      33.519 -12.618 -22.897  0.00  0.00    +0.167 C 
ATOM     13  C   UNL     1      31.945 -11.422 -21.569  0.00  0.00    +0.174 C 
BRANCH   9  14
ATOM     14  O   UNL     1      32.821  -9.294 -24.525  0.00  0.00    -0.379 OA
ATOM     15  H   UNL     1      33.265  -9.615 -25.326  0.00  0.00    +0.211 HD
ENDBRANCH   9  14
BRANCH  10  16
ATOM     16  O   UNL     1      34.830 -11.438 -24.538  0.00  0.00    -0.379 OA
ATOM     17  H   UNL     1      35.471 -11.385 -23.813  0.00  0.00    +0.211 HD
ENDBRANCH  10  16
BRANCH  11  18
ATOM     18  O   UNL     1      31.575  -9.068 -21.936  0.00  0.00    -0.379 OA
ATOM     19  H   UNL     1      30.716  -9.105 -21.487  0.00  0.00    +0.211 HD
ENDBRANCH  11  18
BRANCH  13  20
ATOM     20  C   UNL     1      30.649 -11.630 -20.793  0.00  0.00    +0.169 C 
BRANCH  20  21
ATOM     21  O   UNL     1      30.670 -10.797 -19.648  0.00  0.00    -0.379 OA
ATOM     22  H   UNL     1      30.904  -9.893 -19.910  0.00  0.00    +0.211 HD
ENDBRANCH  20  21
ENDBRANCH  13  20
ENDBRANCH   2  12
BRANCH   5  23
ATOM     23  C   UNL     1      35.734 -17.082 -22.489  0.00  0.00    +0.053 C 
BRANCH  23  24
ATOM     24  C   UNL     1      34.987 -18.167 -21.742  0.00  0.00    -0.018 C 
ATOM     25  C   UNL     1      35.668 -19.301 -21.338  0.00  0.00    -0.001 C 
ATOM     26  C   UNL     1      33.638 -17.999 -21.483  0.00  0.00    -0.001 C 
ATOM     27  C   UNL     1      34.979 -20.301 -20.651  0.00  0.00    +0.037 C 
ATOM     28  C   UNL     1      32.948 -18.999 -20.796  0.00  0.00    +0.037 C 
ATOM     29  C   UNL     1      33.619 -20.149 -20.380  0.00  0.00    +0.139 C 
BRANCH  29  30
ATOM     30  O   UNL     1      32.947 -21.124 -19.709  0.00  0.00    -0.475 OA
BRANCH  30  31
ATOM     31  C   UNL     1      33.719 -22.207 -19.192  0.00  0.00    +0.206 C 
ATOM     32  C   UNL     1      33.049 -22.739 -17.943  0.00  0.00    +0.051 C 
ENDBRANCH  30  31
ENDBRANCH  29  30
ENDBRANCH  23  24
ENDBRANCH   5  23
TORSDOF 10
ENDMDL
MODEL 6
REMARK VINA RESULT:      -9.4      5.770      8.671
REMARK  Name = 9887712
REMARK  10 active torsions:
REMARK  status: ('A' for Active; 'I' for Inactive)
REMARK    1  A    between atoms: C_2  and  C_12
REMARK    2  A    between atoms: C_5  and  C_23
REMARK    3  A    between atoms: C_9  and  O_14
REMARK    4  A    between atoms: C_10  and  O_16
REMARK    5  A    between atoms: C_11  and  O_18
REMARK    6  A    between atoms: C_13  and  C_20
REMARK    7  A    between atoms: C_20  and  O_21
REMARK    8  A    between atoms: C_23  and  C_24
REMARK    9  A    between atoms: C_29  and  O_30
REMARK   10  A    between atoms: O_30  and  C_31
REMARK                            x       y       z     vdW  Elec       q    Type
REMARK                         _______ _______ _______ _____ _____    ______ ____
ROOT
ATOM      1 CL   UNL     1      36.987 -23.470 -14.071  0.00  0.00    -0.083 Cl
ATOM      2  C   UNL     1      35.650 -21.960 -18.108  0.00  0.00    +0.007 C 
ATOM      3  C   UNL     1      34.816 -22.811 -17.384  0.00  0.00    -0.005 C 
ATOM      4  C   UNL     1      36.886 -21.581 -17.587  0.00  0.00    -0.001 C 
ATOM      5  C   UNL     1      35.219 -23.283 -16.135  0.00  0.00    -0.007 C 
ATOM      6  C   UNL     1      37.289 -22.055 -16.338  0.00  0.00    +0.011 C 
ATOM      7  C   UNL     1      36.455 -22.905 -15.612  0.00  0.00    +0.054 C 
ENDROOT
BRANCH   2  12
ATOM      8  O   UNL     1      36.030 -20.317 -19.787  0.00  0.00    -0.347 OA
ATOM      9  C   UNL     1      33.343 -20.400 -20.809  0.00  0.00    +0.169 C 
ATOM     10  C   UNL     1      33.723 -21.065 -19.483  0.00  0.00    +0.171 C 
ATOM     11  C   UNL     1      34.330 -19.294 -21.179  0.00  0.00    +0.169 C 
ATOM     12  C   UNL     1      35.212 -21.446 -19.466  0.00  0.00    +0.167 C 
ATOM     13  C   UNL     1      35.771 -19.800 -21.092  0.00  0.00    +0.174 C 
BRANCH   9  14
ATOM     14  O   UNL     1      32.047 -19.812 -20.690  0.00  0.00    -0.379 OA
ATOM     15  H   UNL     1      31.427 -20.467 -20.331  0.00  0.00    +0.211 HD
ENDBRANCH   9  14
BRANCH  10  16
ATOM     16  O   UNL     1      32.946 -22.250 -19.318  0.00  0.00    -0.379 OA
ATOM     17  H   UNL     1      32.012 -22.012 -19.210  0.00  0.00    +0.211 HD
ENDBRANCH  10  16
BRANCH  11  18
ATOM     18  O   UNL     1      34.067 -18.853 -22.509  0.00  0.00    -0.379 OA
ATOM     19  H   UNL     1      34.896 -18.573 -22.927  0.00  0.00    +0.211 HD
ENDBRANCH  11  18
BRANCH  13  20
ATOM     20  C   UNL     1      36.779 -18.685 -21.352  0.00  0.00    +0.169 C 
BRANCH  20  21
ATOM     21  O   UNL     1      36.716 -18.329 -22.721  0.00  0.00    -0.379 OA
ATOM     22  H   UNL     1      36.554 -19.124 -23.254  0.00  0.00    +0.211 HD
ENDBRANCH  20  21
ENDBRANCH  13  20
ENDBRANCH   2  12
BRANCH   5  23
ATOM     23  C   UNL     1      34.296 -24.193 -15.389  0.00  0.00    +0.053 C 
BRANCH  23  24
ATOM     24  C   UNL     1      32.876 -23.677 -15.291  0.00  0.00    -0.018 C 
ATOM     25  C   UNL     1      32.125 -23.544 -16.445  0.00  0.00    -0.001 C 
ATOM     26  C   UNL     1      32.363 -23.350 -14.048  0.00  0.00    -0.001 C 
ATOM     27  C   UNL     1      30.817 -23.068 -16.354  0.00  0.00    +0.037 C 
ATOM     28  C   UNL     1      31.054 -22.874 -13.957  0.00  0.00    +0.037 C 
ATOM     29  C   UNL     1      30.282 -22.733 -15.110  0.00  0.00    +0.139 C 
BRANCH  29  30
ATOM     30  O   UNL     1      29.004 -22.270 -15.022  0.00  0.00    -0.475 OA
BRANCH  30  31
ATOM     31  C   UNL     1      28.095 -22.676 -16.044  0.00  0.00    +0.206 C 
ATOM     32  C   UNL     1      26.731 -22.088 -15.751  0.00  0.00    +0.051 C 
ENDBRANCH  30  31
ENDBRANCH  29  30
ENDBRANCH  23  24
ENDBRANCH   5  23
TORSDOF 10
ENDMDL
MODEL 7
REMARK VINA RESULT:      -9.1      4.335      7.567
REMARK  Name = 9887712
REMARK  10 active torsions:
REMARK  status: ('A' for Active; 'I' for Inactive)
REMARK    1  A    between atoms: C_2  and  C_12
REMARK    2  A    between atoms: C_5  and  C_23
REMARK    3  A    between atoms: C_9  and  O_14
REMARK    4  A    between atoms: C_10  and  O_16
REMARK    5  A    between atoms: C_11  and  O_18
REMARK    6  A    between atoms: C_13  and  C_20
REMARK    7  A    between atoms: C_20  and  O_21
REMARK    8  A    between atoms: C_23  and  C_24
REMARK    9  A    between atoms: C_29  and  O_30
REMARK   10  A    between atoms: O_30  and  C_31
REMARK                            x       y       z     vdW  Elec       q    Type
REMARK                         _______ _______ _______ _____ _____    ______ ____
ROOT
ATOM      1 CL   UNL     1      31.213 -11.152 -18.855  0.00  0.00    -0.083 Cl
ATOM      2  C   UNL     1      32.529  -7.959 -21.760  0.00  0.00    +0.007 C 
ATOM      3  C   UNL     1      32.032  -9.166 -22.248  0.00  0.00    -0.005 C 
ATOM      4  C   UNL     1      32.617  -7.742 -20.386  0.00  0.00    -0.001 C 
ATOM      5  C   UNL     1      31.623 -10.160 -21.360  0.00  0.00    -0.007 C 
ATOM      6  C   UNL     1      32.208  -8.737 -19.497  0.00  0.00    +0.011 C 
ATOM      7  C   UNL     1      31.711  -9.945 -19.984  0.00  0.00    +0.054 C 
ENDROOT
BRANCH   2  12
ATOM      8  O   UNL     1      31.805  -6.362 -23.370  0.00  0.00    -0.347 OA
ATOM      9  C   UNL     1      34.289  -6.348 -24.819  0.00  0.00    +0.169 C 
ATOM     10  C   UNL     1      33.978  -7.410 -23.761  0.00  0.00    +0.171 C 
ATOM     11  C   UNL     1      33.009  -5.726 -25.375  0.00  0.00    +0.169 C 
ATOM     12  C   UNL     1      32.974  -6.878 -22.726  0.00  0.00    +0.167 C 
ATOM     13  C   UNL     1      32.090  -5.268 -24.241  0.00  0.00    +0.174 C 
BRANCH   9  14
ATOM     14  O   UNL     1      34.993  -6.953 -25.905  0.00  0.00    -0.379 OA
ATOM     15  H   UNL     1      34.597  -7.815 -26.107  0.00  0.00    +0.211 HD
ENDBRANCH   9  14
BRANCH  10  16
ATOM     16  O   UNL     1      35.186  -7.762 -23.087  0.00  0.00    -0.379 OA
ATOM     17  H   UNL     1      35.941  -7.362 -23.546  0.00  0.00    +0.211 HD
ENDBRANCH  10  16
BRANCH  11  18
ATOM     18  O   UNL     1      33.345  -4.606 -26.190  0.00  0.00    -0.379 OA
ATOM     19  H   UNL     1      32.569  -4.031 -26.286  0.00  0.00    +0.211 HD
ENDBRANCH  11  18
BRANCH  13  20
ATOM     20  C   UNL     1      30.759  -4.743 -24.769  0.00  0.00    +0.169 C 
BRANCH  20  21
ATOM     21  O   UNL     1      30.460  -3.526 -24.108  0.00  0.00    -0.379 OA
ATOM     22  H   UNL     1      29.809  -3.691 -23.407  0.00  0.00    +0.211 HD
ENDBRANCH  20  21
ENDBRANCH  13  20
ENDBRANCH   2  12
BRANCH   5  23
ATOM     23  C   UNL     1      31.095 -11.441 -21.921  0.00  0.00    +0.053 C 
BRANCH  23  24
ATOM     24  C   UNL     1      32.169 -12.463 -22.228  0.00  0.00    -0.018 C 
ATOM     25  C   UNL     1      32.909 -12.337 -23.390  0.00  0.00    -0.001 C 
ATOM     26  C   UNL     1      32.386 -13.500 -21.338  0.00  0.00    -0.001 C 
ATOM     27  C   UNL     1      33.898 -13.280 -23.673  0.00  0.00    +0.037 C 
ATOM     28  C   UNL     1      33.374 -14.443 -21.621  0.00  0.00    +0.037 C 
ATOM     29  C   UNL     1      34.131 -14.332 -22.787  0.00  0.00    +0.139 C 
BRANCH  29  30
ATOM     30  O   UNL     1      35.097 -15.251 -23.063  0.00  0.00    -0.475 OA
BRANCH  30  31
ATOM     31  C   UNL     1      34.664 -16.570 -23.390  0.00  0.00    +0.206 C 
ATOM     32  C   UNL     1      34.696 -16.741 -24.894  0.00  0.00    +0.051 C 
ENDBRANCH  30  31
ENDBRANCH  29  30
ENDBRANCH  23  24
ENDBRANCH   5  23
TORSDOF 10
ENDMDL
MODEL 8
REMARK VINA RESULT:      -8.9      3.348      5.600
REMARK  Name = 9887712
REMARK  10 active torsions:
REMARK  status: ('A' for Active; 'I' for Inactive)
REMARK    1  A    between atoms: C_2  and  C_12
REMARK    2  A    between atoms: C_5  and  C_23
REMARK    3  A    between atoms: C_9  and  O_14
REMARK    4  A    between atoms: C_10  and  O_16
REMARK    5  A    between atoms: C_11  and  O_18
REMARK    6  A    between atoms: C_13  and  C_20
REMARK    7  A    between atoms: C_20  and  O_21
REMARK    8  A    between atoms: C_23  and  C_24
REMARK    9  A    between atoms: C_29  and  O_30
REMARK   10  A    between atoms: O_30  and  C_31
REMARK                            x       y       z     vdW  Elec       q    Type
REMARK                         _______ _______ _______ _____ _____    ______ ____
ROOT
ATOM      1 CL   UNL     1      33.412 -22.832 -19.225  0.00  0.00    -0.083 Cl
ATOM      2  C   UNL     1      34.438 -18.800 -20.973  0.00  0.00    +0.007 C 
ATOM      3  C   UNL     1      35.460 -19.628 -20.514  0.00  0.00    -0.005 C 
ATOM      4  C   UNL     1      33.110 -19.217 -20.892  0.00  0.00    -0.001 C 
ATOM      5  C   UNL     1      35.156 -20.875 -19.972  0.00  0.00    -0.007 C 
ATOM      6  C   UNL     1      32.805 -20.465 -20.349  0.00  0.00    +0.011 C 
ATOM      7  C   UNL     1      33.828 -21.294 -19.889  0.00  0.00    +0.054 C 
ENDROOT
BRANCH   2  12
ATOM      8  O   UNL     1      33.735 -16.534 -21.170  0.00  0.00    -0.347 OA
ATOM      9  C   UNL     1      35.071 -16.093 -23.679  0.00  0.00    +0.169 C 
ATOM     10  C   UNL     1      34.896 -17.497 -23.094  0.00  0.00    +0.171 C 
ATOM     11  C   UNL     1      34.029 -15.124 -23.120  0.00  0.00    +0.169 C 
ATOM     12  C   UNL     1      34.769 -17.442 -21.563  0.00  0.00    +0.167 C 
ATOM     13  C   UNL     1      33.987 -15.194 -21.592  0.00  0.00    +0.174 C 
BRANCH   9  14
ATOM     14  O   UNL     1      34.906 -16.147 -25.097  0.00  0.00    -0.379 OA
ATOM     15  H   UNL     1      34.033 -16.514 -25.307  0.00  0.00    +0.211 HD
ENDBRANCH   9  14
BRANCH  10  16
ATOM     16  O   UNL     1      36.038 -18.285 -23.430  0.00  0.00    -0.379 OA
ATOM     17  H   UNL     1      36.571 -17.817 -24.091  0.00  0.00    +0.211 HD
ENDBRANCH  10  16
BRANCH  11  18
ATOM     18  O   UNL     1      34.357 -13.796 -23.521  0.00  0.00    -0.379 OA
ATOM     19  H   UNL     1      35.120 -13.819 -24.121  0.00  0.00    +0.211 HD
ENDBRANCH  11  18
BRANCH  13  20
ATOM     20  C   UNL     1      32.880 -14.316 -21.017  0.00  0.00    +0.169 C 
BRANCH  20  21
ATOM     21  O   UNL     1      31.939 -14.048 -22.041  0.00  0.00    -0.379 OA
ATOM     22  H   UNL     1      32.408 -13.824 -22.860  0.00  0.00    +0.211 HD
ENDBRANCH  20  21
ENDBRANCH  13  20
ENDBRANCH   2  12
BRANCH   5  23
ATOM     23  C   UNL     1      36.280 -21.735 -19.490  0.00  0.00    +0.053 C 
BRANCH  23  24
ATOM     24  C   UNL     1      36.240 -22.019 -18.004  0.00  0.00    -0.018 C 
ATOM     25  C   UNL     1      37.272 -21.567 -17.201  0.00  0.00    -0.001 C 
ATOM     26  C   UNL     1      35.171 -22.727 -17.483  0.00  0.00    -0.001 C 
ATOM     27  C   UNL     1      37.234 -21.831 -15.832  0.00  0.00    +0.037 C 
ATOM     28  C   UNL     1      35.133 -22.991 -16.114  0.00  0.00    +0.037 C 
ATOM     29  C   UNL     1      36.164 -22.543 -15.288  0.00  0.00    +0.139 C 
BRANCH  29  30
ATOM     30  O   UNL     1      36.127 -22.799 -13.951  0.00  0.00    -0.475 OA
BRANCH  30  31
ATOM     31  C   UNL     1      37.154 -23.636 -13.422  0.00  0.00    +0.206 C 
ATOM     32  C   UNL     1      37.508 -23.161 -12.029  0.00  0.00    +0.051 C 
ENDBRANCH  30  31
ENDBRANCH  29  30
ENDBRANCH  23  24
ENDBRANCH   5  23
TORSDOF 10
ENDMDL
MODEL 9
REMARK VINA RESULT:      -8.7      2.753     10.349
REMARK  Name = 9887712
REMARK  10 active torsions:
REMARK  status: ('A' for Active; 'I' for Inactive)
REMARK    1  A    between atoms: C_2  and  C_12
REMARK    2  A    between atoms: C_5  and  C_23
REMARK    3  A    between atoms: C_9  and  O_14
REMARK    4  A    between atoms: C_10  and  O_16
REMARK    5  A    between atoms: C_11  and  O_18
REMARK    6  A    between atoms: C_13  and  C_20
REMARK    7  A    between atoms: C_20  and  O_21
REMARK    8  A    between atoms: C_23  and  C_24
REMARK    9  A    between atoms: C_29  and  O_30
REMARK   10  A    between atoms: O_30  and  C_31
REMARK                            x       y       z     vdW  Elec       q    Type
REMARK                         _______ _______ _______ _____ _____    ______ ____
ROOT
ATOM      1 CL   UNL     1      37.208 -19.486 -21.065  0.00  0.00    -0.083 Cl
ATOM      2  C   UNL     1      34.800 -22.127 -18.309  0.00  0.00    +0.007 C 
ATOM      3  C   UNL     1      34.214 -21.637 -19.474  0.00  0.00    -0.005 C 
ATOM      4  C   UNL     1      36.121 -21.802 -18.000  0.00  0.00    -0.001 C 
ATOM      5  C   UNL     1      34.947 -20.820 -20.333  0.00  0.00    -0.007 C 
ATOM      6  C   UNL     1      36.855 -20.984 -18.859  0.00  0.00    +0.011 C 
ATOM      7  C   UNL     1      36.268 -20.494 -20.026  0.00  0.00    +0.054 C 
ENDROOT
BRANCH   2  12
ATOM      8  O   UNL     1      32.668 -22.502 -17.321  0.00  0.00    -0.347 OA
ATOM      9  C   UNL     1      33.717 -23.843 -15.003  0.00  0.00    +0.169 C 
ATOM     10  C   UNL     1      34.622 -23.074 -15.969  0.00  0.00    +0.171 C 
ATOM     11  C   UNL     1      32.271 -23.353 -15.086  0.00  0.00    +0.169 C 
ATOM     12  C   UNL     1      34.002 -23.016 -17.374  0.00  0.00    +0.167 C 
ATOM     13  C   UNL     1      31.793 -23.315 -16.539  0.00  0.00    +0.174 C 
BRANCH   9  14
ATOM     14  O   UNL     1      34.173 -23.644 -13.664  0.00  0.00    -0.379 OA
ATOM     15  H   UNL     1      34.371 -24.503 -13.259  0.00  0.00    +0.211 HD
ENDBRANCH   9  14
BRANCH  10  16
ATOM     16  O   UNL     1      35.882 -23.739 -16.053  0.00  0.00    -0.379 OA
ATOM     17  H   UNL     1      35.960 -24.377 -15.327  0.00  0.00    +0.211 HD
ENDBRANCH  10  16
BRANCH  11  18
ATOM     18  O   UNL     1      31.432 -24.229 -14.338  0.00  0.00    -0.379 OA
ATOM     19  H   UNL     1      30.870 -24.736 -14.946  0.00  0.00    +0.211 HD
ENDBRANCH  11  18
BRANCH  13  20
ATOM     20  C   UNL     1      30.391 -22.726 -16.657  0.00  0.00    +0.169 C 
BRANCH  20  21
ATOM     21  O   UNL     1      29.449 -23.742 -16.365  0.00  0.00    -0.379 OA
ATOM     22  H   UNL     1      29.282 -23.763 -15.409  0.00  0.00    +0.211 HD
ENDBRANCH  20  21
ENDBRANCH  13  20
ENDBRANCH   2  12
BRANCH   5  23
ATOM     23  C   UNL     1      34.283 -20.315 -21.573  0.00  0.00    +0.053 C 
BRANCH  23  24
ATOM     24  C   UNL     1      34.425 -18.821 -21.778  0.00  0.00    -0.018 C 
ATOM     25  C   UNL     1      35.046 -18.353 -22.923  0.00  0.00    -0.001 C 
ATOM     26  C   UNL     1      33.933 -17.959 -20.814  0.00  0.00    -0.001 C 
ATOM     27  C   UNL     1      35.177 -16.976 -23.110  0.00  0.00    +0.037 C 
ATOM     28  C   UNL     1      34.064 -16.583 -21.002  0.00  0.00    +0.037 C 
ATOM     29  C   UNL     1      34.686 -16.092 -22.149  0.00  0.00    +0.139 C 
BRANCH  29  30
ATOM     30  O   UNL     1      34.814 -14.749 -22.334  0.00  0.00    -0.475 OA
BRANCH  30  31
ATOM     31  C   UNL     1      33.991 -14.150 -23.333  0.00  0.00    +0.206 C 
ATOM     32  C   UNL     1      32.685 -13.716 -22.701  0.00  0.00    +0.051 C 
ENDBRANCH  30  31
ENDBRANCH  29  30
ENDBRANCH  23  24
ENDBRANCH   5  23
TORSDOF 10
ENDMDL
