MODEL 1
REMARK VINA RESULT:      -6.8      0.000      0.000
REMARK  Name = 4469371
REMARK  1 active torsions:
REMARK  status: ('A' for Active; 'I' for Inactive)
REMARK    1  A    between atoms: C_3  and  N_10
REMARK                            x       y       z     vdW  Elec       q    Type
REMARK                         _______ _______ _______ _____ _____    ______ ____
ROOT
ATOM      1  N   UNL     1      32.686 -22.112 -18.862  0.00  0.00    -0.269 NA
ATOM      2  N   UNL     1      35.064 -22.599 -18.657  0.00  0.00    -0.269 NA
ATOM      3  C   UNL     1      33.695 -23.014 -18.240  0.00  0.00    +0.149 C 
ATOM      4  C   UNL     1      33.402 -21.297 -19.553  0.00  0.00    +0.093 C 
ATOM      5  C   UNL     1      34.845 -21.592 -19.429  0.00  0.00    +0.093 C 
ATOM      6  C   UNL     1      32.964 -20.177 -20.394  0.00  0.00    +0.020 C 
ATOM      7  C   UNL     1      35.817 -20.760 -20.148  0.00  0.00    +0.020 C 
ATOM      8  C   UNL     1      33.917 -19.470 -21.015  0.00  0.00    +0.002 C 
ATOM      9  C   UNL     1      35.331 -19.759 -20.894  0.00  0.00    +0.002 C 
ENDROOT
BRANCH   3  10
ATOM     10  N   UNL     1      33.554 -23.091 -16.786  0.00  0.00    +0.409 N 
ATOM     11  H   UNL     1      34.474 -23.025 -16.351  0.00  0.00    -0.083 HD
ATOM     12  H   UNL     1      33.121 -23.980 -16.534  0.00  0.00    -0.083 HD
ATOM     13  H   UNL     1      32.968 -22.323 -16.461  0.00  0.00    -0.083 HD
ENDBRANCH   3  10
TORSDOF 1
ENDMDL
MODEL 2
REMARK VINA RESULT:      -6.6      3.034      4.265
REMARK  Name = 4469371
REMARK  1 active torsions:
REMARK  status: ('A' for Active; 'I' for Inactive)
REMARK    1  A    between atoms: C_3  and  N_10
REMARK                            x       y       z     vdW  Elec       q    Type
REMARK                         _______ _______ _______ _____ _____    ______ ____
ROOT
ATOM      1  N   UNL     1      34.181 -18.365 -21.559  0.00  0.00    -0.269 NA
ATOM      2  N   UNL     1      36.466 -19.062 -21.084  0.00  0.00    -0.269 NA
ATOM      3  C   UNL     1      35.621 -18.029 -21.743  0.00  0.00    +0.149 C 
ATOM      4  C   UNL     1      34.217 -19.451 -20.869  0.00  0.00    +0.093 C 
ATOM      5  C   UNL     1      35.603 -19.875 -20.581  0.00  0.00    +0.093 C 
ATOM      6  C   UNL     1      33.097 -20.261 -20.376  0.00  0.00    +0.020 C 
ATOM      7  C   UNL     1      35.838 -21.098 -19.805  0.00  0.00    +0.020 C 
ATOM      8  C   UNL     1      33.401 -21.362 -19.676  0.00  0.00    +0.002 C 
ATOM      9  C   UNL     1      34.759 -21.777 -19.393  0.00  0.00    +0.002 C 
ENDROOT
BRANCH   3  10
ATOM     10  N   UNL     1      35.973 -17.834 -23.149  0.00  0.00    +0.409 N 
ATOM     11  H   UNL     1      36.133 -18.739 -23.589  0.00  0.00    -0.083 HD
ATOM     12  H   UNL     1      36.821 -17.270 -23.212  0.00  0.00    -0.083 HD
ATOM     13  H   UNL     1      35.210 -17.353 -23.627  0.00  0.00    -0.083 HD
ENDBRANCH   3  10
TORSDOF 1
ENDMDL
MODEL 3
REMARK VINA RESULT:      -6.3      0.649      2.042
REMARK  Name = 4469371
REMARK  1 active torsions:
REMARK  status: ('A' for Active; 'I' for Inactive)
REMARK    1  A    between atoms: C_3  and  N_10
REMARK                            x       y       z     vdW  Elec       q    Type
REMARK                         _______ _______ _______ _____ _____    ______ ____
ROOT
ATOM      1  N   UNL     1      35.078 -22.304 -18.662  0.00  0.00    -0.269 NA
ATOM      2  N   UNL     1      32.706 -21.834 -18.954  0.00  0.00    -0.269 NA
ATOM      3  C   UNL     1      33.702 -22.664 -18.221  0.00  0.00    +0.149 C 
ATOM      4  C   UNL     1      34.877 -21.375 -19.530  0.00  0.00    +0.093 C 
ATOM      5  C   UNL     1      33.438 -21.089 -19.707  0.00  0.00    +0.093 C 
ATOM      6  C   UNL     1      35.864 -20.622 -20.312  0.00  0.00    +0.020 C 
ATOM      7  C   UNL     1      33.019 -20.057 -20.662  0.00  0.00    +0.020 C 
ATOM      8  C   UNL     1      35.396 -19.698 -21.160  0.00  0.00    +0.002 C 
ATOM      9  C   UNL     1      33.985 -19.418 -21.334  0.00  0.00    +0.002 C 
ENDROOT
BRANCH   3  10
ATOM     10  N   UNL     1      33.433 -24.097 -18.346  0.00  0.00    +0.409 N 
ATOM     11  H   UNL     1      34.310 -24.613 -18.305  0.00  0.00    -0.083 HD
ATOM     12  H   UNL     1      32.971 -24.280 -19.237  0.00  0.00    -0.083 HD
ATOM     13  H   UNL     1      32.826 -24.396 -17.582  0.00  0.00    -0.083 HD
ENDBRANCH   3  10
TORSDOF 1
ENDMDL
MODEL 4
REMARK VINA RESULT:      -6.2      2.884      4.448
REMARK  Name = 4469371
REMARK  1 active torsions:
REMARK  status: ('A' for Active; 'I' for Inactive)
REMARK    1  A    between atoms: C_3  and  N_10
REMARK                            x       y       z     vdW  Elec       q    Type
REMARK                         _______ _______ _______ _____ _____    ______ ____
ROOT
ATOM      1  N   UNL     1      36.164 -18.879 -20.932  0.00  0.00    -0.269 NA
ATOM      2  N   UNL     1      33.745 -18.781 -21.198  0.00  0.00    -0.269 NA
ATOM      3  C   UNL     1      35.030 -18.085 -21.483  0.00  0.00    +0.149 C 
ATOM      4  C   UNL     1      35.583 -19.902 -20.411  0.00  0.00    +0.093 C 
ATOM      5  C   UNL     1      34.115 -19.843 -20.573  0.00  0.00    +0.093 C 
ATOM      6  C   UNL     1      36.188 -21.045 -19.716  0.00  0.00    +0.020 C 
ATOM      7  C   UNL     1      33.286 -20.928 -20.036  0.00  0.00    +0.020 C 
ATOM      8  C   UNL     1      35.357 -21.991 -19.258  0.00  0.00    +0.002 C 
ATOM      9  C   UNL     1      33.919 -21.933 -19.417  0.00  0.00    +0.002 C 
ENDROOT
BRANCH   3  10
ATOM     10  N   UNL     1      35.033 -16.702 -21.006  0.00  0.00    +0.409 N 
ATOM     11  H   UNL     1      34.621 -16.662 -20.075  0.00  0.00    -0.083 HD
ATOM     12  H   UNL     1      34.489 -16.121 -21.644  0.00  0.00    -0.083 HD
ATOM     13  H   UNL     1      35.993 -16.358 -20.969  0.00  0.00    -0.083 HD
ENDBRANCH   3  10
TORSDOF 1
ENDMDL
MODEL 5
REMARK VINA RESULT:      -6.2      7.588      8.912
REMARK  Name = 4469371
REMARK  1 active torsions:
REMARK  status: ('A' for Active; 'I' for Inactive)
REMARK    1  A    between atoms: C_3  and  N_10
REMARK                            x       y       z     vdW  Elec       q    Type
REMARK                         _______ _______ _______ _____ _____    ______ ____
ROOT
ATOM      1  N   UNL     1      33.303 -15.676 -26.508  0.00  0.00    -0.269 NA
ATOM      2  N   UNL     1      33.177 -13.937 -24.807  0.00  0.00    -0.269 NA
ATOM      3  C   UNL     1      32.813 -14.303 -26.204  0.00  0.00    +0.149 C 
ATOM      4  C   UNL     1      33.864 -16.041 -25.409  0.00  0.00    +0.093 C 
ATOM      5  C   UNL     1      33.788 -14.987 -24.376  0.00  0.00    +0.093 C 
ATOM      6  C   UNL     1      34.530 -17.311 -25.097  0.00  0.00    +0.020 C 
ATOM      7  C   UNL     1      34.379 -15.226 -23.055  0.00  0.00    +0.020 C 
ATOM      8  C   UNL     1      35.042 -17.446 -23.866  0.00  0.00    +0.002 C 
ATOM      9  C   UNL     1      34.967 -16.412 -22.854  0.00  0.00    +0.002 C 
ENDROOT
BRANCH   3  10
ATOM     10  N   UNL     1      33.280 -13.315 -27.178  0.00  0.00    +0.409 N 
ATOM     11  H   UNL     1      34.262 -13.483 -27.388  0.00  0.00    -0.083 HD
ATOM     12  H   UNL     1      33.170 -12.378 -26.790  0.00  0.00    -0.083 HD
ATOM     13  H   UNL     1      32.730 -13.396 -28.033  0.00  0.00    -0.083 HD
ENDBRANCH   3  10
TORSDOF 1
ENDMDL
MODEL 6
REMARK VINA RESULT:      -6.1      1.389      2.254
REMARK  Name = 4469371
REMARK  1 active torsions:
REMARK  status: ('A' for Active; 'I' for Inactive)
REMARK    1  A    between atoms: C_3  and  N_10
REMARK                            x       y       z     vdW  Elec       q    Type
REMARK                         _______ _______ _______ _____ _____    ______ ____
ROOT
ATOM      1  N   UNL     1      35.081 -22.120 -18.618  0.00  0.00    -0.269 NA
ATOM      2  N   UNL     1      36.743 -20.633 -19.599  0.00  0.00    -0.269 NA
ATOM      3  C   UNL     1      36.527 -21.763 -18.654  0.00  0.00    +0.149 C 
ATOM      4  C   UNL     1      34.552 -21.295 -19.453  0.00  0.00    +0.093 C 
ATOM      5  C   UNL     1      35.560 -20.392 -20.048  0.00  0.00    +0.093 C 
ATOM      6  C   UNL     1      33.144 -21.164 -19.846  0.00  0.00    +0.020 C 
ATOM      7  C   UNL     1      35.137 -19.380 -21.023  0.00  0.00    +0.020 C 
ATOM      8  C   UNL     1      32.846 -20.214 -20.742  0.00  0.00    +0.002 C 
ATOM      9  C   UNL     1      33.833 -19.330 -21.325  0.00  0.00    +0.002 C 
ENDROOT
BRANCH   3  10
ATOM     10  N   UNL     1      37.067 -21.488 -17.323  0.00  0.00    +0.409 N 
ATOM     11  H   UNL     1      38.031 -21.170 -17.405  0.00  0.00    -0.083 HD
ATOM     12  H   UNL     1      37.036 -22.339 -16.761  0.00  0.00    -0.083 HD
ATOM     13  H   UNL     1      36.507 -20.763 -16.873  0.00  0.00    -0.083 HD
ENDBRANCH   3  10
TORSDOF 1
ENDMDL
MODEL 7
REMARK VINA RESULT:      -6.1      3.836      4.997
REMARK  Name = 4469371
REMARK  1 active torsions:
REMARK  status: ('A' for Active; 'I' for Inactive)
REMARK    1  A    between atoms: C_3  and  N_10
REMARK                            x       y       z     vdW  Elec       q    Type
REMARK                         _______ _______ _______ _____ _____    ______ ____
ROOT
ATOM      1  N   UNL     1      35.338 -17.620 -21.016  0.00  0.00    -0.269 NA
ATOM      2  N   UNL     1      34.980 -19.741 -22.158  0.00  0.00    -0.269 NA
ATOM      3  C   UNL     1      35.274 -19.099 -20.848  0.00  0.00    +0.149 C 
ATOM      4  C   UNL     1      35.097 -17.454 -22.269  0.00  0.00    +0.093 C 
ATOM      5  C   UNL     1      34.879 -18.740 -22.963  0.00  0.00    +0.093 C 
ATOM      6  C   UNL     1      35.024 -16.201 -23.031  0.00  0.00    +0.020 C 
ATOM      7  C   UNL     1      34.594 -18.745 -24.402  0.00  0.00    +0.020 C 
ATOM      8  C   UNL     1      34.758 -16.297 -24.340  0.00  0.00    +0.002 C 
ATOM      9  C   UNL     1      34.544 -17.558 -25.019  0.00  0.00    +0.002 C 
ENDROOT
BRANCH   3  10
ATOM     10  N   UNL     1      36.478 -19.642 -20.219  0.00  0.00    +0.409 N 
ATOM     11  H   UNL     1      36.594 -19.230 -19.294  0.00  0.00    -0.083 HD
ATOM     12  H   UNL     1      37.291 -19.420 -20.794  0.00  0.00    -0.083 HD
ATOM     13  H   UNL     1      36.389 -20.654 -20.132  0.00  0.00    -0.083 HD
ENDBRANCH   3  10
TORSDOF 1
ENDMDL
MODEL 8
REMARK VINA RESULT:      -6.0     11.715     13.074
REMARK  Name = 4469371
REMARK  1 active torsions:
REMARK  status: ('A' for Active; 'I' for Inactive)
REMARK    1  A    between atoms: C_3  and  N_10
REMARK                            x       y       z     vdW  Elec       q    Type
REMARK                         _______ _______ _______ _____ _____    ______ ____
ROOT
ATOM      1  N   UNL     1      32.457  -7.916 -19.679  0.00  0.00    -0.269 NA
ATOM      2  N   UNL     1      32.077  -8.122 -22.077  0.00  0.00    -0.269 NA
ATOM      3  C   UNL     1      32.496  -7.200 -20.985  0.00  0.00    +0.149 C 
ATOM      4  C   UNL     1      32.073  -9.101 -20.003  0.00  0.00    +0.093 C 
ATOM      5  C   UNL     1      31.843  -9.227 -21.457  0.00  0.00    +0.093 C 
ATOM      6  C   UNL     1      31.853 -10.263 -19.134  0.00  0.00    +0.020 C 
ATOM      7  C   UNL     1      31.397 -10.511 -22.010  0.00  0.00    +0.020 C 
ATOM      8  C   UNL     1      31.446 -11.397 -19.721  0.00  0.00    +0.002 C 
ATOM      9  C   UNL     1      31.221 -11.519 -21.146  0.00  0.00    +0.002 C 
ENDROOT
BRANCH   3  10
ATOM     10  N   UNL     1      31.713  -5.965 -20.967  0.00  0.00    +0.409 N 
ATOM     11  H   UNL     1      32.204  -5.258 -20.422  0.00  0.00    -0.083 HD
ATOM     12  H   UNL     1      30.801  -6.146 -20.546  0.00  0.00    -0.083 HD
ATOM     13  H   UNL     1      31.584  -5.630 -21.922  0.00  0.00    -0.083 HD
ENDBRANCH   3  10
TORSDOF 1
ENDMDL
MODEL 9
REMARK VINA RESULT:      -6.0      6.567      7.807
REMARK  Name = 4469371
REMARK  1 active torsions:
REMARK  status: ('A' for Active; 'I' for Inactive)
REMARK    1  A    between atoms: C_3  and  N_10
REMARK                            x       y       z     vdW  Elec       q    Type
REMARK                         _______ _______ _______ _____ _____    ______ ____
ROOT
ATOM      1  N   UNL     1      33.763 -14.762 -24.369  0.00  0.00    -0.269 NA
ATOM      2  N   UNL     1      34.221 -16.611 -25.888  0.00  0.00    -0.269 NA
ATOM      3  C   UNL     1      33.721 -15.212 -25.789  0.00  0.00    +0.149 C 
ATOM      4  C   UNL     1      34.241 -15.784 -23.749  0.00  0.00    +0.093 C 
ATOM      5  C   UNL     1      34.519 -16.906 -24.670  0.00  0.00    +0.093 C 
ATOM      6  C   UNL     1      34.517 -15.940 -22.316  0.00  0.00    +0.020 C 
ATOM      7  C   UNL     1      35.067 -18.158 -24.137  0.00  0.00    +0.020 C 
ATOM      8  C   UNL     1      35.017 -17.116 -21.915  0.00  0.00    +0.002 C 
ATOM      9  C   UNL     1      35.290 -18.216 -22.818  0.00  0.00    +0.002 C 
ENDROOT
BRANCH   3  10
ATOM     10  N   UNL     1      32.395 -15.050 -26.386  0.00  0.00    +0.409 N 
ATOM     11  H   UNL     1      32.283 -15.715 -27.150  0.00  0.00    -0.083 HD
ATOM     12  H   UNL     1      32.298 -14.100 -26.745  0.00  0.00    -0.083 HD
ATOM     13  H   UNL     1      31.681 -15.221 -25.678  0.00  0.00    -0.083 HD
ENDBRANCH   3  10
TORSDOF 1
ENDMDL
