MODEL 1
REMARK VINA RESULT:     -11.1      0.000      0.000
REMARK  Name = 46937158
REMARK  3 active torsions:
REMARK  status: ('A' for Active; 'I' for Inactive)
REMARK    1  A    between atoms: N_2  and  C_19
REMARK    2  A    between atoms: C_7  and  C_13
REMARK    3  A    between atoms: C_19  and  C_21
REMARK                            x       y       z     vdW  Elec       q    Type
REMARK                         _______ _______ _______ _____ _____    ______ ____
ROOT
ATOM      1  N   UNL     1      32.094 -23.774 -15.082  0.00  0.00    -0.260 N 
ATOM      2  N   UNL     1      33.225 -22.651 -18.421  0.00  0.00    -0.302 N 
ATOM      3  N   UNL     1      34.368 -23.672 -16.659  0.00  0.00    -0.387 NA
ATOM      4  N   UNL     1      30.850 -22.802 -16.656  0.00  0.00    -0.224 NA
ATOM      5  C   UNL     1      32.049 -23.231 -16.339  0.00  0.00    +0.180 C 
ATOM      6  C   UNL     1      33.248 -23.186 -17.155  0.00  0.00    +0.212 C 
ATOM      7  C   UNL     1      34.379 -24.211 -15.372  0.00  0.00    +0.133 C 
ATOM      8  C   UNL     1      33.281 -24.277 -14.586  0.00  0.00    +0.156 C 
ATOM      9  C   UNL     1      30.835 -23.688 -14.558  0.00  0.00    +0.088 C 
ATOM     10  C   UNL     1      30.087 -23.084 -15.546  0.00  0.00    +0.117 C 
ATOM     11  H   UNL     1      32.378 -22.294 -18.774  0.00  0.00    +0.150 HD
ENDROOT
BRANCH   7  13
ATOM     12  F   UNL     1      36.074 -22.771 -13.625  0.00  0.00    -0.204 F 
ATOM     13  C   UNL     1      35.666 -24.752 -14.878  0.00  0.00    +0.055 C 
ATOM     14  C   UNL     1      36.460 -23.995 -14.017  0.00  0.00    +0.142 C 
ATOM     15  C   UNL     1      36.082 -26.022 -15.274  0.00  0.00    +0.005 C 
ATOM     16  C   UNL     1      37.671 -24.509 -13.552  0.00  0.00    +0.030 C 
ATOM     17  C   UNL     1      37.292 -26.536 -14.810  0.00  0.00    +0.000 C 
ATOM     18  C   UNL     1      38.087 -25.779 -13.949  0.00  0.00    +0.002 C 
ENDBRANCH   7  13
BRANCH   2  19
ATOM     19  C   UNL     1      34.392 -22.595 -19.242  0.00  0.00    +0.118 C 
BRANCH  19  21
ATOM     20  N   UNL     1      35.942 -19.434 -20.628  0.00  0.00    -0.243 NA
ATOM     21  C   UNL     1      34.520 -21.243 -19.886  0.00  0.00    +0.017 C 
ATOM     22  C   UNL     1      33.397 -20.551 -20.328  0.00  0.00    +0.001 C 
ATOM     23  C   UNL     1      35.758 -20.647 -20.058  0.00  0.00    +0.096 C 
ATOM     24  C   UNL     1      33.546 -19.302 -20.919  0.00  0.00    +0.020 C 
ATOM     25  C   UNL     1      34.827 -18.791 -21.045  0.00  0.00    +0.099 C 
ENDBRANCH  19  21
ENDBRANCH   2  19
TORSDOF 3
ENDMDL
MODEL 2
REMARK VINA RESULT:     -10.6      1.896      4.638
REMARK  Name = 46937158
REMARK  3 active torsions:
REMARK  status: ('A' for Active; 'I' for Inactive)
REMARK    1  A    between atoms: N_2  and  C_19
REMARK    2  A    between atoms: C_7  and  C_13
REMARK    3  A    between atoms: C_19  and  C_21
REMARK                            x       y       z     vdW  Elec       q    Type
REMARK                         _______ _______ _______ _____ _____    ______ ____
ROOT
ATOM      1  N   UNL     1      34.918 -23.502 -14.583  0.00  0.00    -0.260 N 
ATOM      2  N   UNL     1      35.202 -22.450 -18.119  0.00  0.00    -0.302 N 
ATOM      3  N   UNL     1      33.359 -23.081 -16.831  0.00  0.00    -0.387 NA
ATOM      4  N   UNL     1      36.785 -22.932 -15.660  0.00  0.00    -0.224 NA
ATOM      5  C   UNL     1      35.486 -23.088 -15.759  0.00  0.00    +0.180 C 
ATOM      6  C   UNL     1      34.656 -22.870 -16.930  0.00  0.00    +0.212 C 
ATOM      7  C   UNL     1      32.816 -23.510 -15.620  0.00  0.00    +0.133 C 
ATOM      8  C   UNL     1      33.556 -23.716 -14.507  0.00  0.00    +0.156 C 
ATOM      9  C   UNL     1      35.925 -23.617 -13.666  0.00  0.00    +0.088 C 
ATOM     10  C   UNL     1      37.066 -23.261 -14.355  0.00  0.00    +0.117 C 
ATOM     11  H   UNL     1      36.173 -22.296 -18.170  0.00  0.00    +0.150 HD
ENDROOT
BRANCH   7  13
ATOM     12  F   UNL     1      31.612 -25.572 -14.106  0.00  0.00    -0.204 F 
ATOM     13  C   UNL     1      31.351 -23.717 -15.572  0.00  0.00    +0.055 C 
ATOM     14  C   UNL     1      30.814 -24.752 -14.807  0.00  0.00    +0.142 C 
ATOM     15  C   UNL     1      30.507 -22.874 -16.294  0.00  0.00    +0.005 C 
ATOM     16  C   UNL     1      29.433 -24.944 -14.764  0.00  0.00    +0.030 C 
ATOM     17  C   UNL     1      29.126 -23.065 -16.252  0.00  0.00    +0.000 C 
ATOM     18  C   UNL     1      28.589 -24.100 -15.486  0.00  0.00    +0.002 C 
ENDBRANCH   7  13
BRANCH   2  19
ATOM     19  C   UNL     1      34.406 -22.229 -19.283  0.00  0.00    +0.118 C 
BRANCH  19  21
ATOM     20  N   UNL     1      36.558 -19.397 -20.574  0.00  0.00    -0.243 NA
ATOM     21  C   UNL     1      34.808 -20.949 -19.962  0.00  0.00    +0.017 C 
ATOM     22  C   UNL     1      33.863 -20.143 -20.587  0.00  0.00    +0.001 C 
ATOM     23  C   UNL     1      36.130 -20.536 -19.983  0.00  0.00    +0.096 C 
ATOM     24  C   UNL     1      34.264 -18.964 -21.206  0.00  0.00    +0.020 C 
ATOM     25  C   UNL     1      35.610 -18.639 -21.172  0.00  0.00    +0.099 C 
ENDBRANCH  19  21
ENDBRANCH   2  19
TORSDOF 3
ENDMDL
MODEL 3
REMARK VINA RESULT:     -10.0     11.070     15.132
REMARK  Name = 46937158
REMARK  3 active torsions:
REMARK  status: ('A' for Active; 'I' for Inactive)
REMARK    1  A    between atoms: N_2  and  C_19
REMARK    2  A    between atoms: C_7  and  C_13
REMARK    3  A    between atoms: C_19  and  C_21
REMARK                            x       y       z     vdW  Elec       q    Type
REMARK                         _______ _______ _______ _____ _____    ______ ____
ROOT
ATOM      1  N   UNL     1      31.888  -9.758 -20.673  0.00  0.00    -0.260 N 
ATOM      2  N   UNL     1      32.572 -12.531 -23.026  0.00  0.00    -0.302 N 
ATOM      3  N   UNL     1      32.692 -10.212 -23.283  0.00  0.00    -0.387 NA
ATOM      4  N   UNL     1      31.715 -11.941 -20.251  0.00  0.00    -0.224 NA
ATOM      5  C   UNL     1      32.012 -11.035 -21.154  0.00  0.00    +0.180 C 
ATOM      6  C   UNL     1      32.435 -11.259 -22.523  0.00  0.00    +0.212 C 
ATOM      7  C   UNL     1      32.548  -8.926 -22.763  0.00  0.00    +0.133 C 
ATOM      8  C   UNL     1      32.163  -8.680 -21.491  0.00  0.00    +0.156 C 
ATOM      9  C   UNL     1      31.485  -9.853 -19.371  0.00  0.00    +0.088 C 
ATOM     10  C   UNL     1      31.384 -11.208 -19.135  0.00  0.00    +0.117 C 
ATOM     11  H   UNL     1      32.377 -13.299 -22.441  0.00  0.00    +0.150 HD
ENDROOT
BRANCH   7  13
ATOM     12  F   UNL     1      35.170  -8.370 -23.663  0.00  0.00    -0.204 F 
ATOM     13  C   UNL     1      32.863  -7.794 -23.664  0.00  0.00    +0.055 C 
ATOM     14  C   UNL     1      34.176  -7.570 -24.075  0.00  0.00    +0.142 C 
ATOM     15  C   UNL     1      31.841  -6.952 -24.102  0.00  0.00    +0.005 C 
ATOM     16  C   UNL     1      34.468  -6.502 -24.925  0.00  0.00    +0.030 C 
ATOM     17  C   UNL     1      32.132  -5.885 -24.951  0.00  0.00    +0.000 C 
ATOM     18  C   UNL     1      33.446  -5.660 -25.363  0.00  0.00    +0.002 C 
ENDBRANCH   7  13
BRANCH   2  19
ATOM     19  C   UNL     1      32.987 -12.775 -24.370  0.00  0.00    +0.118 C 
BRANCH  19  21
ATOM     20  N   UNL     1      33.848 -16.150 -25.848  0.00  0.00    -0.243 NA
ATOM     21  C   UNL     1      33.551 -14.162 -24.504  0.00  0.00    +0.017 C 
ATOM     22  C   UNL     1      34.273 -14.744 -23.469  0.00  0.00    +0.001 C 
ATOM     23  C   UNL     1      33.368 -14.899 -25.663  0.00  0.00    +0.096 C 
ATOM     24  C   UNL     1      34.782 -16.029 -23.621  0.00  0.00    +0.020 C 
ATOM     25  C   UNL     1      34.544 -16.684 -24.818  0.00  0.00    +0.099 C 
ENDBRANCH  19  21
ENDBRANCH   2  19
TORSDOF 3
ENDMDL
MODEL 4
REMARK VINA RESULT:      -9.9     11.114     15.168
REMARK  Name = 46937158
REMARK  3 active torsions:
REMARK  status: ('A' for Active; 'I' for Inactive)
REMARK    1  A    between atoms: N_2  and  C_19
REMARK    2  A    between atoms: C_7  and  C_13
REMARK    3  A    between atoms: C_19  and  C_21
REMARK                            x       y       z     vdW  Elec       q    Type
REMARK                         _______ _______ _______ _____ _____    ______ ____
ROOT
ATOM      1  N   UNL     1      31.900  -9.744 -20.619  0.00  0.00    -0.260 N 
ATOM      2  N   UNL     1      32.538 -12.560 -22.933  0.00  0.00    -0.302 N 
ATOM      3  N   UNL     1      32.701 -10.248 -23.220  0.00  0.00    -0.387 NA
ATOM      4  N   UNL     1      31.686 -11.917 -20.168  0.00  0.00    -0.224 NA
ATOM      5  C   UNL     1      32.002 -11.029 -21.082  0.00  0.00    +0.180 C 
ATOM      6  C   UNL     1      32.424 -11.279 -22.447  0.00  0.00    +0.212 C 
ATOM      7  C   UNL     1      32.580  -8.952 -22.718  0.00  0.00    +0.133 C 
ATOM      8  C   UNL     1      32.197  -8.682 -21.450  0.00  0.00    +0.156 C 
ATOM      9  C   UNL     1      31.493  -9.814 -19.317  0.00  0.00    +0.088 C 
ATOM     10  C   UNL     1      31.366 -11.163 -19.062  0.00  0.00    +0.117 C 
ATOM     11  H   UNL     1      32.328 -13.316 -22.338  0.00  0.00    +0.150 HD
ENDROOT
BRANCH   7  13
ATOM     12  F   UNL     1      30.639  -7.164 -23.732  0.00  0.00    -0.204 F 
ATOM     13  C   UNL     1      32.917  -7.839 -23.633  0.00  0.00    +0.055 C 
ATOM     14  C   UNL     1      31.916  -6.988 -24.101  0.00  0.00    +0.142 C 
ATOM     15  C   UNL     1      34.241  -7.641 -24.026  0.00  0.00    +0.005 C 
ATOM     16  C   UNL     1      32.239  -5.938 -24.962  0.00  0.00    +0.030 C 
ATOM     17  C   UNL     1      34.564  -6.593 -24.887  0.00  0.00    +0.000 C 
ATOM     18  C   UNL     1      33.562  -5.741 -25.355  0.00  0.00    +0.002 C 
ENDBRANCH   7  13
BRANCH   2  19
ATOM     19  C   UNL     1      32.951 -12.829 -24.272  0.00  0.00    +0.118 C 
BRANCH  19  21
ATOM     20  N   UNL     1      33.831 -16.243 -25.648  0.00  0.00    -0.243 NA
ATOM     21  C   UNL     1      33.543 -14.208 -24.374  0.00  0.00    +0.017 C 
ATOM     22  C   UNL     1      34.321 -14.731 -23.348  0.00  0.00    +0.001 C 
ATOM     23  C   UNL     1      33.330 -14.996 -25.493  0.00  0.00    +0.096 C 
ATOM     24  C   UNL     1      34.855 -16.009 -23.469  0.00  0.00    +0.020 C 
ATOM     25  C   UNL     1      34.583 -16.718 -24.628  0.00  0.00    +0.099 C 
ENDBRANCH  19  21
ENDBRANCH   2  19
TORSDOF 3
ENDMDL
MODEL 5
REMARK VINA RESULT:      -9.9     10.903     15.107
REMARK  Name = 46937158
REMARK  3 active torsions:
REMARK  status: ('A' for Active; 'I' for Inactive)
REMARK    1  A    between atoms: N_2  and  C_19
REMARK    2  A    between atoms: C_7  and  C_13
REMARK    3  A    between atoms: C_19  and  C_21
REMARK                            x       y       z     vdW  Elec       q    Type
REMARK                         _______ _______ _______ _____ _____    ______ ____
ROOT
ATOM      1  N   UNL     1      31.876  -9.605 -20.567  0.00  0.00    -0.260 N 
ATOM      2  N   UNL     1      32.475 -12.474 -22.827  0.00  0.00    -0.302 N 
ATOM      3  N   UNL     1      32.659 -10.170 -23.162  0.00  0.00    -0.387 NA
ATOM      4  N   UNL     1      31.643 -11.767 -20.071  0.00  0.00    -0.224 NA
ATOM      5  C   UNL     1      31.963 -10.901 -21.005  0.00  0.00    +0.180 C 
ATOM      6  C   UNL     1      32.376 -11.183 -22.367  0.00  0.00    +0.212 C 
ATOM      7  C   UNL     1      32.552  -8.863 -22.686  0.00  0.00    +0.133 C 
ATOM      8  C   UNL     1      32.178  -8.564 -21.422  0.00  0.00    +0.156 C 
ATOM      9  C   UNL     1      31.475  -9.645 -19.262  0.00  0.00    +0.088 C 
ATOM     10  C   UNL     1      31.337 -10.988 -18.980  0.00  0.00    +0.117 C 
ATOM     11  H   UNL     1      32.261 -13.216 -22.216  0.00  0.00    +0.150 HD
ENDROOT
BRANCH   7  13
ATOM     12  F   UNL     1      35.183  -8.421 -23.621  0.00  0.00    -0.204 F 
ATOM     13  C   UNL     1      32.895  -7.772 -23.625  0.00  0.00    +0.055 C 
ATOM     14  C   UNL     1      34.212  -7.602 -24.052  0.00  0.00    +0.142 C 
ATOM     15  C   UNL     1      31.897  -6.913 -24.084  0.00  0.00    +0.005 C 
ATOM     16  C   UNL     1      34.530  -6.573 -24.939  0.00  0.00    +0.030 C 
ATOM     17  C   UNL     1      32.215  -5.883 -24.969  0.00  0.00    +0.000 C 
ATOM     18  C   UNL     1      33.532  -5.713 -25.397  0.00  0.00    +0.002 C 
ENDBRANCH   7  13
BRANCH   2  19
ATOM     19  C   UNL     1      32.879 -12.775 -24.163  0.00  0.00    +0.118 C 
BRANCH  19  21
ATOM     20  N   UNL     1      35.064 -15.710 -23.199  0.00  0.00    -0.243 NA
ATOM     21  C   UNL     1      33.561 -14.113 -24.218  0.00  0.00    +0.017 C 
ATOM     22  C   UNL     1      33.351 -14.981 -25.284  0.00  0.00    +0.001 C 
ATOM     23  C   UNL     1      34.419 -14.521 -23.210  0.00  0.00    +0.096 C 
ATOM     24  C   UNL     1      33.996 -16.212 -25.310  0.00  0.00    +0.020 C 
ATOM     25  C   UNL     1      34.835 -16.527 -24.253  0.00  0.00    +0.099 C 
ENDBRANCH  19  21
ENDBRANCH   2  19
TORSDOF 3
ENDMDL
MODEL 6
REMARK VINA RESULT:      -9.9      2.517      6.329
REMARK  Name = 46937158
REMARK  3 active torsions:
REMARK  status: ('A' for Active; 'I' for Inactive)
REMARK    1  A    between atoms: N_2  and  C_19
REMARK    2  A    between atoms: C_7  and  C_13
REMARK    3  A    between atoms: C_19  and  C_21
REMARK                            x       y       z     vdW  Elec       q    Type
REMARK                         _______ _______ _______ _____ _____    ______ ____
ROOT
ATOM      1  N   UNL     1      36.679 -24.593 -14.277  0.00  0.00    -0.260 N 
ATOM      2  N   UNL     1      33.364 -23.557 -12.998  0.00  0.00    -0.302 N 
ATOM      3  N   UNL     1      34.461 -23.107 -15.010  0.00  0.00    -0.387 NA
ATOM      4  N   UNL     1      35.785 -25.121 -12.303  0.00  0.00    -0.224 NA
ATOM      5  C   UNL     1      35.609 -24.471 -13.430  0.00  0.00    +0.180 C 
ATOM      6  C   UNL     1      34.452 -23.690 -13.828  0.00  0.00    +0.212 C 
ATOM      7  C   UNL     1      35.571 -23.247 -15.843  0.00  0.00    +0.133 C 
ATOM      8  C   UNL     1      36.662 -23.972 -15.510  0.00  0.00    +0.156 C 
ATOM      9  C   UNL     1      37.604 -25.378 -13.648  0.00  0.00    +0.088 C 
ATOM     10  C   UNL     1      37.030 -25.690 -12.433  0.00  0.00    +0.117 C 
ATOM     11  H   UNL     1      33.378 -24.002 -12.119  0.00  0.00    +0.150 HD
ENDROOT
BRANCH   7  13
ATOM     12  F   UNL     1      33.283 -23.328 -17.502  0.00  0.00    -0.204 F 
ATOM     13  C   UNL     1      35.514 -22.578 -17.163  0.00  0.00    +0.055 C 
ATOM     14  C   UNL     1      34.357 -22.652 -17.937  0.00  0.00    +0.142 C 
ATOM     15  C   UNL     1      36.621 -21.870 -17.630  0.00  0.00    +0.005 C 
ATOM     16  C   UNL     1      34.307 -22.019 -19.180  0.00  0.00    +0.030 C 
ATOM     17  C   UNL     1      36.572 -21.237 -18.872  0.00  0.00    +0.000 C 
ATOM     18  C   UNL     1      35.414 -21.312 -19.647  0.00  0.00    +0.002 C 
ENDBRANCH   7  13
BRANCH   2  19
ATOM     19  C   UNL     1      32.217 -22.794 -13.368  0.00  0.00    +0.118 C 
BRANCH  19  21
ATOM     20  N   UNL     1      30.267 -25.734 -14.739  0.00  0.00    -0.243 NA
ATOM     21  C   UNL     1      31.305 -23.606 -14.246  0.00  0.00    +0.017 C 
ATOM     22  C   UNL     1      30.667 -23.033 -15.341  0.00  0.00    +0.001 C 
ATOM     23  C   UNL     1      31.074 -24.947 -13.989  0.00  0.00    +0.096 C 
ATOM     24  C   UNL     1      29.831 -23.809 -16.135  0.00  0.00    +0.020 C 
ATOM     25  C   UNL     1      29.665 -25.142 -15.795  0.00  0.00    +0.099 C 
ENDBRANCH  19  21
ENDBRANCH   2  19
TORSDOF 3
ENDMDL
MODEL 7
REMARK VINA RESULT:      -9.7      1.970      5.215
REMARK  Name = 46937158
REMARK  3 active torsions:
REMARK  status: ('A' for Active; 'I' for Inactive)
REMARK    1  A    between atoms: N_2  and  C_19
REMARK    2  A    between atoms: C_7  and  C_13
REMARK    3  A    between atoms: C_19  and  C_21
REMARK                            x       y       z     vdW  Elec       q    Type
REMARK                         _______ _______ _______ _____ _____    ______ ____
ROOT
ATOM      1  N   UNL     1      36.351 -22.137 -17.587  0.00  0.00    -0.260 N 
ATOM      2  N   UNL     1      32.928 -23.278 -16.764  0.00  0.00    -0.302 N 
ATOM      3  N   UNL     1      34.940 -23.429 -15.586  0.00  0.00    -0.387 NA
ATOM      4  N   UNL     1      34.528 -21.909 -18.850  0.00  0.00    -0.224 NA
ATOM      5  C   UNL     1      35.006 -22.365 -17.716  0.00  0.00    +0.180 C 
ATOM      6  C   UNL     1      34.279 -23.042 -16.659  0.00  0.00    +0.212 C 
ATOM      7  C   UNL     1      36.310 -23.186 -15.491  0.00  0.00    +0.133 C 
ATOM      8  C   UNL     1      37.019 -22.552 -16.452  0.00  0.00    +0.156 C 
ATOM      9  C   UNL     1      36.761 -21.487 -18.716  0.00  0.00    +0.088 C 
ATOM     10  C   UNL     1      35.620 -21.359 -19.480  0.00  0.00    +0.117 C 
ATOM     11  H   UNL     1      32.454 -22.980 -17.573  0.00  0.00    +0.150 HD
ENDROOT
BRANCH   7  13
ATOM     12  F   UNL     1      37.837 -25.562 -15.362  0.00  0.00    -0.204 F 
ATOM     13  C   UNL     1      36.992 -23.634 -14.256  0.00  0.00    +0.055 C 
ATOM     14  C   UNL     1      37.732 -24.816 -14.252  0.00  0.00    +0.142 C 
ATOM     15  C   UNL     1      36.893 -22.870 -13.093  0.00  0.00    +0.005 C 
ATOM     16  C   UNL     1      38.373 -25.234 -13.086  0.00  0.00    +0.030 C 
ATOM     17  C   UNL     1      37.534 -23.287 -11.927  0.00  0.00    +0.000 C 
ATOM     18  C   UNL     1      38.274 -24.469 -11.923  0.00  0.00    +0.002 C 
ENDBRANCH   7  13
BRANCH   2  19
ATOM     19  C   UNL     1      32.193 -23.942 -15.736  0.00  0.00    +0.118 C 
BRANCH  19  21
ATOM     20  N   UNL     1      28.932 -22.414 -16.898  0.00  0.00    -0.243 NA
ATOM     21  C   UNL     1      30.717 -23.714 -15.913  0.00  0.00    +0.017 C 
ATOM     22  C   UNL     1      29.785 -24.539 -15.294  0.00  0.00    +0.001 C 
ATOM     23  C   UNL     1      30.244 -22.675 -16.698  0.00  0.00    +0.096 C 
ATOM     24  C   UNL     1      28.427 -24.303 -15.475  0.00  0.00    +0.020 C 
ATOM     25  C   UNL     1      28.055 -23.237 -16.279  0.00  0.00    +0.099 C 
ENDBRANCH  19  21
ENDBRANCH   2  19
TORSDOF 3
ENDMDL
MODEL 8
REMARK VINA RESULT:      -9.7      2.112      6.075
REMARK  Name = 46937158
REMARK  3 active torsions:
REMARK  status: ('A' for Active; 'I' for Inactive)
REMARK    1  A    between atoms: N_2  and  C_19
REMARK    2  A    between atoms: C_7  and  C_13
REMARK    3  A    between atoms: C_19  and  C_21
REMARK                            x       y       z     vdW  Elec       q    Type
REMARK                         _______ _______ _______ _____ _____    ______ ____
ROOT
ATOM      1  N   UNL     1      31.812 -24.094 -15.446  0.00  0.00    -0.260 N 
ATOM      2  N   UNL     1      34.724 -23.815 -13.179  0.00  0.00    -0.302 N 
ATOM      3  N   UNL     1      34.419 -23.164 -15.402  0.00  0.00    -0.387 NA
ATOM      4  N   UNL     1      31.926 -24.783 -13.329  0.00  0.00    -0.224 NA
ATOM      5  C   UNL     1      32.576 -24.209 -14.314  0.00  0.00    +0.180 C 
ATOM      6  C   UNL     1      33.940 -23.716 -14.305  0.00  0.00    +0.212 C 
ATOM      7  C   UNL     1      33.617 -23.071 -16.539  0.00  0.00    +0.133 C 
ATOM      8  C   UNL     1      32.339 -23.512 -16.582  0.00  0.00    +0.156 C 
ATOM      9  C   UNL     1      30.588 -24.631 -15.164  0.00  0.00    +0.088 C 
ATOM     10  C   UNL     1      30.683 -25.050 -13.854  0.00  0.00    +0.117 C 
ATOM     11  H   UNL     1      34.346 -24.229 -12.370  0.00  0.00    +0.150 HD
ENDROOT
BRANCH   7  13
ATOM     12  F   UNL     1      36.393 -22.609 -16.808  0.00  0.00    -0.204 F 
ATOM     13  C   UNL     1      34.210 -22.430 -17.734  0.00  0.00    +0.055 C 
ATOM     14  C   UNL     1      35.587 -22.229 -17.810  0.00  0.00    +0.142 C 
ATOM     15  C   UNL     1      33.387 -22.030 -18.786  0.00  0.00    +0.005 C 
ATOM     16  C   UNL     1      36.142 -21.625 -18.940  0.00  0.00    +0.030 C 
ATOM     17  C   UNL     1      33.941 -21.426 -19.915  0.00  0.00    +0.000 C 
ATOM     18  C   UNL     1      35.319 -21.224 -19.992  0.00  0.00    +0.002 C 
ENDBRANCH   7  13
BRANCH   2  19
ATOM     19  C   UNL     1      36.068 -23.337 -13.147  0.00  0.00    +0.118 C 
BRANCH  19  21
ATOM     20  N   UNL     1      37.692 -26.721 -13.629  0.00  0.00    -0.243 NA
ATOM     21  C   UNL     1      37.017 -24.399 -13.630  0.00  0.00    +0.017 C 
ATOM     22  C   UNL     1      38.064 -24.087 -14.490  0.00  0.00    +0.001 C 
ATOM     23  C   UNL     1      36.875 -25.719 -13.233  0.00  0.00    +0.096 C 
ATOM     24  C   UNL     1      38.926 -25.090 -14.920  0.00  0.00    +0.020 C 
ATOM     25  C   UNL     1      38.700 -26.379 -14.465  0.00  0.00    +0.099 C 
ENDBRANCH  19  21
ENDBRANCH   2  19
TORSDOF 3
ENDMDL
MODEL 9
REMARK VINA RESULT:      -9.5      6.208     11.837
REMARK  Name = 46937158
REMARK  3 active torsions:
REMARK  status: ('A' for Active; 'I' for Inactive)
REMARK    1  A    between atoms: N_2  and  C_19
REMARK    2  A    between atoms: C_7  and  C_13
REMARK    3  A    between atoms: C_19  and  C_21
REMARK                            x       y       z     vdW  Elec       q    Type
REMARK                         _______ _______ _______ _____ _____    ______ ____
ROOT
ATOM      1  N   UNL     1      32.788 -14.045 -25.029  0.00  0.00    -0.260 N 
ATOM      2  N   UNL     1      34.545 -16.374 -22.752  0.00  0.00    -0.302 N 
ATOM      3  N   UNL     1      33.404 -14.375 -22.350  0.00  0.00    -0.387 NA
ATOM      4  N   UNL     1      33.840 -15.928 -25.596  0.00  0.00    -0.224 NA
ATOM      5  C   UNL     1      33.511 -15.130 -24.607  0.00  0.00    +0.180 C 
ATOM      6  C   UNL     1      33.826 -15.291 -23.200  0.00  0.00    +0.212 C 
ATOM      7  C   UNL     1      32.677 -13.280 -22.816  0.00  0.00    +0.133 C 
ATOM      8  C   UNL     1      32.359 -13.101 -24.118  0.00  0.00    +0.156 C 
ATOM      9  C   UNL     1      32.642 -14.158 -26.383  0.00  0.00    +0.088 C 
ATOM     10  C   UNL     1      33.299 -15.326 -26.709  0.00  0.00    +0.117 C 
ATOM     11  H   UNL     1      34.849 -17.047 -23.403  0.00  0.00    +0.150 HD
ENDROOT
BRANCH   7  13
ATOM     12  F   UNL     1      32.338 -13.926 -20.084  0.00  0.00    -0.204 F 
ATOM     13  C   UNL     1      32.222 -12.294 -21.810  0.00  0.00    +0.055 C 
ATOM     14  C   UNL     1      32.074 -12.671 -20.476  0.00  0.00    +0.142 C 
ATOM     15  C   UNL     1      31.943 -10.984 -22.200  0.00  0.00    +0.005 C 
ATOM     16  C   UNL     1      31.646 -11.738 -19.531  0.00  0.00    +0.030 C 
ATOM     17  C   UNL     1      31.515 -10.051 -21.256  0.00  0.00    +0.000 C 
ATOM     18  C   UNL     1      31.367 -10.428 -19.921  0.00  0.00    +0.002 C 
ENDBRANCH   7  13
BRANCH   2  19
ATOM     19  C   UNL     1      34.866 -16.553 -21.372  0.00  0.00    +0.118 C 
BRANCH  19  21
ATOM     20  N   UNL     1      36.194 -19.970 -20.434  0.00  0.00    -0.243 NA
ATOM     21  C   UNL     1      34.898 -18.015 -21.025  0.00  0.00    +0.017 C 
ATOM     22  C   UNL     1      33.728 -18.763 -20.966  0.00  0.00    +0.001 C 
ATOM     23  C   UNL     1      36.094 -18.658 -20.752  0.00  0.00    +0.096 C 
ATOM     24  C   UNL     1      33.789 -20.114 -20.643  0.00  0.00    +0.020 C 
ATOM     25  C   UNL     1      35.034 -20.665 -20.388  0.00  0.00    +0.099 C 
ENDBRANCH  19  21
ENDBRANCH   2  19
TORSDOF 3
ENDMDL
