MODEL 1
REMARK VINA RESULT:     -12.8      0.000      0.000
REMARK  Name = 445480
REMARK  5 active torsions:
REMARK  status: ('A' for Active; 'I' for Inactive)
REMARK    1  A    between atoms: N_2  and  C_21
REMARK    2  A    between atoms: C_3  and  N_7
REMARK    3  A    between atoms: N_7  and  S_9
REMARK    4  A    between atoms: S_9  and  C_14
REMARK    5  A    between atoms: C_21  and  C_24
REMARK                            x       y       z     vdW  Elec       q    Type
REMARK                         _______ _______ _______ _____ _____    ______ ____
ROOT
ATOM      1  O   UNL     1      36.830 -20.643 -20.227  0.00  0.00    -0.273 OA
ATOM      2  N   UNL     1      35.251 -19.293 -21.330  0.00  0.00    -0.274 N 
ATOM      3  C   UNL     1      34.451 -21.137 -20.150  0.00  0.00    +0.153 C 
ATOM      4  C   UNL     1      33.313 -20.151 -20.388  0.00  0.00    +0.048 C 
ATOM      5  C   UNL     1      33.821 -19.291 -21.530  0.00  0.00    +0.096 C 
ATOM      6  C   UNL     1      35.683 -20.356 -20.536  0.00  0.00    +0.242 C 
ENDROOT
BRANCH   3   7
ATOM      7  N   UNL     1      34.537 -21.513 -18.735  0.00  0.00    -0.171 NA
ATOM      8  H   UNL     1      35.508 -21.763 -18.545  0.00  0.00    +0.149 HD
BRANCH   7   9
ATOM      9  S   UNL     1      33.560 -22.810 -18.184  0.00  0.00    +0.066 S 
ATOM     10  O   UNL     1      33.863 -23.999 -18.959  0.00  0.00    -0.152 OA
ATOM     11  O   UNL     1      32.197 -22.343 -18.022  0.00  0.00    -0.152 OA
BRANCH   9  14
ATOM     12  S   UNL     1      35.704 -22.820 -16.202  0.00  0.00    -0.066 S 
ATOM     13  N   UNL     1      33.896 -24.310 -13.096  0.00  0.00    -0.243 NA
ATOM     14  C   UNL     1      34.079 -23.187 -16.509  0.00  0.00    +0.153 C 
ATOM     15  C   UNL     1      33.416 -23.708 -15.452  0.00  0.00    +0.046 C 
ATOM     16  C   UNL     1      34.267 -23.823 -14.312  0.00  0.00    +0.089 C 
ATOM     17  C   UNL     1      35.560 -23.371 -14.580  0.00  0.00    +0.048 C 
ATOM     18  C   UNL     1      36.538 -23.406 -13.575  0.00  0.00    +0.010 C 
ATOM     19  C   UNL     1      36.165 -23.902 -12.333  0.00  0.00    +0.021 C 
ATOM     20  C   UNL     1      34.862 -24.330 -12.156  0.00  0.00    +0.099 C 
ENDBRANCH   9  14
ENDBRANCH   7   9
ENDBRANCH   3   7
BRANCH   2  21
ATOM     21  C   UNL     1      36.112 -18.347 -22.006  0.00  0.00    +0.120 C 
BRANCH  21  24
ATOM     22  N   UNL     1      33.272 -13.602 -24.799  0.00  0.00    -0.230 NA
ATOM     23  N   UNL     1      34.296 -13.556 -22.680  0.00  0.00    -0.343 N 
ATOM     24  C   UNL     1      35.359 -17.635 -23.095  0.00  0.00    -0.002 C 
ATOM     25  C   UNL     1      35.023 -16.298 -22.934  0.00  0.00    +0.000 C 
ATOM     26  C   UNL     1      35.008 -18.324 -24.247  0.00  0.00    -0.003 C 
ATOM     27  C   UNL     1      34.318 -15.626 -23.947  0.00  0.00    +0.031 C 
ATOM     28  C   UNL     1      33.955 -16.315 -25.124  0.00  0.00    +0.004 C 
ATOM     29  C   UNL     1      34.308 -17.668 -25.260  0.00  0.00    -0.000 C 
ATOM     30  C   UNL     1      33.949 -14.283 -23.848  0.00  0.00    +0.125 C 
ATOM     31  C   UNL     1      33.253 -15.628 -26.121  0.00  0.00    +0.021 C 
ATOM     32  C   UNL     1      32.942 -14.294 -25.911  0.00  0.00    +0.100 C 
ATOM     33  H   UNL     1      34.042 -12.609 -22.596  0.00  0.00    +0.144 HD
ATOM     34  H   UNL     1      34.790 -14.000 -21.953  0.00  0.00    +0.144 HD
ENDBRANCH  21  24
ENDBRANCH   2  21
TORSDOF 5
ENDMDL
MODEL 2
REMARK VINA RESULT:     -12.8      1.023      1.782
REMARK  Name = 445480
REMARK  5 active torsions:
REMARK  status: ('A' for Active; 'I' for Inactive)
REMARK    1  A    between atoms: N_2  and  C_21
REMARK    2  A    between atoms: C_3  and  N_7
REMARK    3  A    between atoms: N_7  and  S_9
REMARK    4  A    between atoms: S_9  and  C_14
REMARK    5  A    between atoms: C_21  and  C_24
REMARK                            x       y       z     vdW  Elec       q    Type
REMARK                         _______ _______ _______ _____ _____    ______ ____
ROOT
ATOM      1  O   UNL     1      36.712 -20.700 -19.996  0.00  0.00    -0.273 OA
ATOM      2  N   UNL     1      35.047 -19.553 -21.196  0.00  0.00    -0.274 N 
ATOM      3  C   UNL     1      34.382 -21.386 -19.920  0.00  0.00    +0.153 C 
ATOM      4  C   UNL     1      33.171 -20.514 -20.229  0.00  0.00    +0.048 C 
ATOM      5  C   UNL     1      33.625 -19.682 -21.414  0.00  0.00    +0.096 C 
ATOM      6  C   UNL     1      35.551 -20.528 -20.336  0.00  0.00    +0.242 C 
ENDROOT
BRANCH   3   7
ATOM      7  N   UNL     1      34.474 -21.671 -18.484  0.00  0.00    -0.171 NA
ATOM      8  H   UNL     1      35.448 -21.898 -18.281  0.00  0.00    +0.149 HD
BRANCH   7   9
ATOM      9  S   UNL     1      33.513 -22.942 -17.850  0.00  0.00    +0.066 S 
ATOM     10  O   UNL     1      33.750 -24.150 -18.618  0.00  0.00    -0.152 OA
ATOM     11  O   UNL     1      32.170 -22.449 -17.616  0.00  0.00    -0.152 OA
BRANCH   9  14
ATOM     12  S   UNL     1      35.748 -22.865 -15.973  0.00  0.00    -0.066 S 
ATOM     13  N   UNL     1      34.150 -24.419 -12.784  0.00  0.00    -0.243 NA
ATOM     14  C   UNL     1      34.126 -23.295 -16.202  0.00  0.00    +0.153 C 
ATOM     15  C   UNL     1      33.535 -23.840 -15.115  0.00  0.00    +0.046 C 
ATOM     16  C   UNL     1      34.443 -23.919 -14.017  0.00  0.00    +0.089 C 
ATOM     17  C   UNL     1      35.703 -23.417 -14.346  0.00  0.00    +0.048 C 
ATOM     18  C   UNL     1      36.729 -23.413 -13.389  0.00  0.00    +0.010 C 
ATOM     19  C   UNL     1      36.436 -23.921 -12.131  0.00  0.00    +0.021 C 
ATOM     20  C   UNL     1      35.160 -24.399 -11.891  0.00  0.00    +0.099 C 
ENDBRANCH   9  14
ENDBRANCH   7   9
ENDBRANCH   3   7
BRANCH   2  21
ATOM     21  C   UNL     1      35.837 -18.579 -21.917  0.00  0.00    +0.120 C 
BRANCH  21  24
ATOM     22  N   UNL     1      32.890 -13.835 -24.597  0.00  0.00    -0.230 NA
ATOM     23  N   UNL     1      33.750 -15.734 -25.692  0.00  0.00    -0.343 N 
ATOM     24  C   UNL     1      35.117 -17.261 -21.985  0.00  0.00    -0.002 C 
ATOM     25  C   UNL     1      34.679 -16.783 -23.213  0.00  0.00    +0.000 C 
ATOM     26  C   UNL     1      34.900 -16.539 -20.821  0.00  0.00    -0.003 C 
ATOM     27  C   UNL     1      34.006 -15.552 -23.285  0.00  0.00    +0.031 C 
ATOM     28  C   UNL     1      33.779 -14.807 -22.109  0.00  0.00    +0.004 C 
ATOM     29  C   UNL     1      34.234 -15.315 -20.880  0.00  0.00    -0.000 C 
ATOM     30  C   UNL     1      33.541 -15.015 -24.486  0.00  0.00    +0.125 C 
ATOM     31  C   UNL     1      33.108 -13.582 -22.201  0.00  0.00    +0.021 C 
ATOM     32  C   UNL     1      32.691 -13.150 -23.451  0.00  0.00    +0.100 C 
ATOM     33  H   UNL     1      33.428 -15.367 -26.546  0.00  0.00    +0.144 HD
ATOM     34  H   UNL     1      34.218 -16.600 -25.673  0.00  0.00    +0.144 HD
ENDBRANCH  21  24
ENDBRANCH   2  21
TORSDOF 5
ENDMDL
MODEL 3
REMARK VINA RESULT:     -12.5      4.796     11.291
REMARK  Name = 445480
REMARK  5 active torsions:
REMARK  status: ('A' for Active; 'I' for Inactive)
REMARK    1  A    between atoms: N_2  and  C_21
REMARK    2  A    between atoms: C_3  and  N_7
REMARK    3  A    between atoms: N_7  and  S_9
REMARK    4  A    between atoms: S_9  and  C_14
REMARK    5  A    between atoms: C_21  and  C_24
REMARK                            x       y       z     vdW  Elec       q    Type
REMARK                         _______ _______ _______ _____ _____    ______ ____
ROOT
ATOM      1  O   UNL     1      34.886 -16.106 -21.047  0.00  0.00    -0.273 OA
ATOM      2  N   UNL     1      35.605 -17.712 -22.607  0.00  0.00    -0.274 N 
ATOM      3  C   UNL     1      34.133 -16.069 -23.357  0.00  0.00    +0.153 C 
ATOM      4  C   UNL     1      34.836 -16.706 -24.549  0.00  0.00    +0.048 C 
ATOM      5  C   UNL     1      35.356 -18.019 -23.996  0.00  0.00    +0.096 C 
ATOM      6  C   UNL     1      34.909 -16.585 -22.171  0.00  0.00    +0.242 C 
ENDROOT
BRANCH   3   7
ATOM      7  N   UNL     1      34.231 -14.606 -23.405  0.00  0.00    -0.171 NA
ATOM      8  H   UNL     1      34.608 -14.297 -22.508  0.00  0.00    +0.149 HD
BRANCH   7   9
ATOM      9  S   UNL     1      32.798 -13.709 -23.691  0.00  0.00    +0.066 S 
ATOM     10  O   UNL     1      31.882 -13.907 -22.583  0.00  0.00    -0.152 OA
ATOM     11  O   UNL     1      32.377 -13.912 -25.063  0.00  0.00    -0.152 OA
BRANCH   9  14
ATOM     12  S   UNL     1      32.244 -11.045 -22.633  0.00  0.00    -0.066 S 
ATOM     13  N   UNL     1      35.027  -8.928 -24.338  0.00  0.00    -0.243 NA
ATOM     14  C   UNL     1      33.243 -11.973 -23.638  0.00  0.00    +0.153 C 
ATOM     15  C   UNL     1      34.224 -11.271 -24.249  0.00  0.00    +0.046 C 
ATOM     16  C   UNL     1      34.175  -9.891 -23.890  0.00  0.00    +0.089 C 
ATOM     17  C   UNL     1      33.132  -9.621 -23.003  0.00  0.00    +0.048 C 
ATOM     18  C   UNL     1      32.928  -8.314 -22.537  0.00  0.00    +0.010 C 
ATOM     19  C   UNL     1      33.793  -7.327 -22.991  0.00  0.00    +0.021 C 
ATOM     20  C   UNL     1      34.800  -7.684 -23.870  0.00  0.00    +0.099 C 
ENDBRANCH   9  14
ENDBRANCH   7   9
ENDBRANCH   3   7
BRANCH   2  21
ATOM     21  C   UNL     1      36.397 -18.586 -21.768  0.00  0.00    +0.120 C 
BRANCH  21  24
ATOM     22  N   UNL     1      34.963 -22.884 -17.544  0.00  0.00    -0.230 NA
ATOM     23  N   UNL     1      37.101 -21.979 -17.935  0.00  0.00    -0.343 N 
ATOM     24  C   UNL     1      35.510 -19.525 -20.999  0.00  0.00    -0.002 C 
ATOM     25  C   UNL     1      36.056 -20.318 -19.999  0.00  0.00    +0.000 C 
ATOM     26  C   UNL     1      34.158 -19.588 -21.299  0.00  0.00    -0.003 C 
ATOM     27  C   UNL     1      35.235 -21.200 -19.277  0.00  0.00    +0.031 C 
ATOM     28  C   UNL     1      33.857 -21.274 -19.572  0.00  0.00    +0.004 C 
ATOM     29  C   UNL     1      33.331 -20.460 -20.589  0.00  0.00    -0.000 C 
ATOM     30  C   UNL     1      35.720 -22.024 -18.261  0.00  0.00    +0.125 C 
ATOM     31  C   UNL     1      33.055 -22.158 -18.842  0.00  0.00    +0.021 C 
ATOM     32  C   UNL     1      33.649 -22.928 -17.854  0.00  0.00    +0.100 C 
ATOM     33  H   UNL     1      37.457 -22.555 -17.221  0.00  0.00    +0.144 HD
ATOM     34  H   UNL     1      37.702 -21.371 -18.423  0.00  0.00    +0.144 HD
ENDBRANCH  21  24
ENDBRANCH   2  21
TORSDOF 5
ENDMDL
MODEL 4
REMARK VINA RESULT:     -12.1      2.861     10.735
REMARK  Name = 445480
REMARK  5 active torsions:
REMARK  status: ('A' for Active; 'I' for Inactive)
REMARK    1  A    between atoms: N_2  and  C_21
REMARK    2  A    between atoms: C_3  and  N_7
REMARK    3  A    between atoms: N_7  and  S_9
REMARK    4  A    between atoms: S_9  and  C_14
REMARK    5  A    between atoms: C_21  and  C_24
REMARK                            x       y       z     vdW  Elec       q    Type
REMARK                         _______ _______ _______ _____ _____    ______ ____
ROOT
ATOM      1  O   UNL     1      36.161 -21.235 -20.177  0.00  0.00    -0.273 OA
ATOM      2  N   UNL     1      34.002 -21.858 -19.483  0.00  0.00    -0.274 N 
ATOM      3  C   UNL     1      34.256 -19.749 -20.441  0.00  0.00    +0.153 C 
ATOM      4  C   UNL     1      32.789 -20.157 -20.489  0.00  0.00    +0.048 C 
ATOM      5  C   UNL     1      32.690 -21.255 -19.447  0.00  0.00    +0.096 C 
ATOM      6  C   UNL     1      34.965 -21.021 -20.047  0.00  0.00    +0.242 C 
ENDROOT
BRANCH   3   7
ATOM      7  N   UNL     1      34.728 -19.317 -21.761  0.00  0.00    -0.171 NA
ATOM      8  H   UNL     1      35.294 -20.075 -22.144  0.00  0.00    +0.149 HD
BRANCH   7   9
ATOM      9  S   UNL     1      35.666 -17.885 -21.854  0.00  0.00    +0.066 S 
ATOM     10  O   UNL     1      36.986 -18.210 -22.361  0.00  0.00    -0.152 OA
ATOM     11  O   UNL     1      35.495 -17.125 -20.632  0.00  0.00    -0.152 OA
BRANCH   9  14
ATOM     12  S   UNL     1      34.466 -15.313 -22.539  0.00  0.00    -0.066 S 
ATOM     13  N   UNL     1      33.641 -15.810 -26.309  0.00  0.00    -0.243 NA
ATOM     14  C   UNL     1      34.916 -16.844 -23.107  0.00  0.00    +0.153 C 
ATOM     15  C   UNL     1      34.645 -17.055 -24.415  0.00  0.00    +0.046 C 
ATOM     16  C   UNL     1      34.033 -15.911 -25.009  0.00  0.00    +0.089 C 
ATOM     17  C   UNL     1      33.871 -14.872 -24.091  0.00  0.00    +0.048 C 
ATOM     18  C   UNL     1      33.286 -13.663 -24.495  0.00  0.00    +0.010 C 
ATOM     19  C   UNL     1      32.884 -13.554 -25.819  0.00  0.00    +0.021 C 
ATOM     20  C   UNL     1      33.082 -14.634 -26.661  0.00  0.00    +0.099 C 
ENDBRANCH   9  14
ENDBRANCH   7   9
ENDBRANCH   3   7
BRANCH   2  21
ATOM     21  C   UNL     1      34.262 -23.144 -18.872  0.00  0.00    +0.120 C 
BRANCH  21  24
ATOM     22  N   UNL     1      29.864 -23.179 -14.509  0.00  0.00    -0.230 NA
ATOM     23  N   UNL     1      29.514 -23.058 -16.834  0.00  0.00    -0.343 N 
ATOM     24  C   UNL     1      33.698 -23.189 -17.479  0.00  0.00    -0.002 C 
ATOM     25  C   UNL     1      32.323 -23.144 -17.295  0.00  0.00    +0.000 C 
ATOM     26  C   UNL     1      34.559 -23.271 -16.395  0.00  0.00    -0.003 C 
ATOM     27  C   UNL     1      31.788 -23.184 -15.996  0.00  0.00    +0.031 C 
ATOM     28  C   UNL     1      32.653 -23.268 -14.885  0.00  0.00    +0.004 C 
ATOM     29  C   UNL     1      34.041 -23.311 -15.101  0.00  0.00    -0.000 C 
ATOM     30  C   UNL     1      30.417 -23.143 -15.743  0.00  0.00    +0.125 C 
ATOM     31  C   UNL     1      32.102 -23.307 -13.599  0.00  0.00    +0.021 C 
ATOM     32  C   UNL     1      30.722 -23.260 -13.470  0.00  0.00    +0.100 C 
ATOM     33  H   UNL     1      28.544 -23.028 -16.670  0.00  0.00    +0.144 HD
ATOM     34  H   UNL     1      29.859 -23.029 -17.756  0.00  0.00    +0.144 HD
ENDBRANCH  21  24
ENDBRANCH   2  21
TORSDOF 5
ENDMDL
MODEL 5
REMARK VINA RESULT:     -12.1      1.803      2.202
REMARK  Name = 445480
REMARK  5 active torsions:
REMARK  status: ('A' for Active; 'I' for Inactive)
REMARK    1  A    between atoms: N_2  and  C_21
REMARK    2  A    between atoms: C_3  and  N_7
REMARK    3  A    between atoms: N_7  and  S_9
REMARK    4  A    between atoms: S_9  and  C_14
REMARK    5  A    between atoms: C_21  and  C_24
REMARK                            x       y       z     vdW  Elec       q    Type
REMARK                         _______ _______ _______ _____ _____    ______ ____
ROOT
ATOM      1  O   UNL     1      36.337 -20.295 -20.003  0.00  0.00    -0.273 OA
ATOM      2  N   UNL     1      34.914 -19.109 -21.453  0.00  0.00    -0.274 N 
ATOM      3  C   UNL     1      34.012 -20.930 -20.311  0.00  0.00    +0.153 C 
ATOM      4  C   UNL     1      32.886 -20.032 -20.810  0.00  0.00    +0.048 C 
ATOM      5  C   UNL     1      33.544 -19.207 -21.900  0.00  0.00    +0.096 C 
ATOM      6  C   UNL     1      35.251 -20.097 -20.527  0.00  0.00    +0.242 C 
ENDROOT
BRANCH   3   7
ATOM      7  N   UNL     1      33.862 -21.220 -18.881  0.00  0.00    -0.171 NA
ATOM      8  H   UNL     1      34.407 -20.523 -18.372  0.00  0.00    +0.149 HD
BRANCH   7   9
ATOM      9  S   UNL     1      34.351 -22.762 -18.315  0.00  0.00    +0.066 S 
ATOM     10  O   UNL     1      35.636 -22.643 -17.651  0.00  0.00    -0.152 OA
ATOM     11  O   UNL     1      34.132 -23.743 -19.360  0.00  0.00    -0.152 OA
BRANCH   9  14
ATOM     12  S   UNL     1      33.939 -23.849 -15.637  0.00  0.00    -0.066 S 
ATOM     13  N   UNL     1      30.058 -23.810 -15.362  0.00  0.00    -0.243 NA
ATOM     14  C   UNL     1      33.194 -23.245 -17.033  0.00  0.00    +0.153 C 
ATOM     15  C   UNL     1      31.844 -23.216 -16.976  0.00  0.00    +0.046 C 
ATOM     16  C   UNL     1      31.367 -23.712 -15.726  0.00  0.00    +0.089 C 
ATOM     17  C   UNL     1      32.412 -24.099 -14.886  0.00  0.00    +0.048 C 
ATOM     18  C   UNL     1      32.136 -24.612 -13.611  0.00  0.00    +0.010 C 
ATOM     19  C   UNL     1      30.803 -24.715 -13.235  0.00  0.00    +0.021 C 
ATOM     20  C   UNL     1      29.830 -24.309 -14.130  0.00  0.00    +0.099 C 
ENDBRANCH   9  14
ENDBRANCH   7   9
ENDBRANCH   3   7
BRANCH   2  21
ATOM     21  C   UNL     1      35.832 -18.151 -22.029  0.00  0.00    +0.120 C 
BRANCH  21  24
ATOM     22  N   UNL     1      33.289 -13.278 -24.885  0.00  0.00    -0.230 NA
ATOM     23  N   UNL     1      34.164 -13.307 -22.700  0.00  0.00    -0.343 N 
ATOM     24  C   UNL     1      35.172 -17.396 -23.149  0.00  0.00    -0.002 C 
ATOM     25  C   UNL     1      34.851 -16.056 -22.976  0.00  0.00    +0.000 C 
ATOM     26  C   UNL     1      34.889 -18.048 -24.340  0.00  0.00    -0.003 C 
ATOM     27  C   UNL     1      34.232 -15.344 -24.017  0.00  0.00    +0.031 C 
ATOM     28  C   UNL     1      33.939 -15.995 -25.234  0.00  0.00    +0.004 C 
ATOM     29  C   UNL     1      34.273 -17.352 -25.381  0.00  0.00    -0.000 C 
ATOM     30  C   UNL     1      33.885 -13.997 -23.908  0.00  0.00    +0.125 C 
ATOM     31  C   UNL     1      33.322 -15.269 -26.259  0.00  0.00    +0.021 C 
ATOM     32  C   UNL     1      33.023 -13.934 -26.035  0.00  0.00    +0.100 C 
ATOM     33  H   UNL     1      33.923 -12.357 -22.608  0.00  0.00    +0.144 HD
ATOM     34  H   UNL     1      34.597 -13.779 -21.952  0.00  0.00    +0.144 HD
ENDBRANCH  21  24
ENDBRANCH   2  21
TORSDOF 5
ENDMDL
MODEL 6
REMARK VINA RESULT:     -11.8      2.458     11.078
REMARK  Name = 445480
REMARK  5 active torsions:
REMARK  status: ('A' for Active; 'I' for Inactive)
REMARK    1  A    between atoms: N_2  and  C_21
REMARK    2  A    between atoms: C_3  and  N_7
REMARK    3  A    between atoms: N_7  and  S_9
REMARK    4  A    between atoms: S_9  and  C_14
REMARK    5  A    between atoms: C_21  and  C_24
REMARK                            x       y       z     vdW  Elec       q    Type
REMARK                         _______ _______ _______ _____ _____    ______ ____
ROOT
ATOM      1  O   UNL     1      32.399 -20.939 -20.319  0.00  0.00    -0.273 OA
ATOM      2  N   UNL     1      34.307 -21.874 -19.311  0.00  0.00    -0.274 N 
ATOM      3  C   UNL     1      34.642 -20.214 -20.911  0.00  0.00    +0.153 C 
ATOM      4  C   UNL     1      35.896 -20.359 -20.057  0.00  0.00    +0.048 C 
ATOM      5  C   UNL     1      35.739 -21.729 -19.425  0.00  0.00    +0.096 C 
ATOM      6  C   UNL     1      33.608 -21.019 -20.163  0.00  0.00    +0.242 C 
ENDROOT
BRANCH   3   7
ATOM      7  N   UNL     1      34.211 -18.813 -20.982  0.00  0.00    -0.171 NA
ATOM      8  H   UNL     1      33.474 -18.757 -21.686  0.00  0.00    +0.149 HD
BRANCH   7   9
ATOM      9  S   UNL     1      35.383 -17.626 -21.377  0.00  0.00    +0.066 S 
ATOM     10  O   UNL     1      36.581 -18.282 -21.868  0.00  0.00    -0.152 OA
ATOM     11  O   UNL     1      35.445 -16.647 -20.310  0.00  0.00    -0.152 OA
BRANCH   9  14
ATOM     12  S   UNL     1      34.336 -15.096 -22.388  0.00  0.00    -0.066 S 
ATOM     13  N   UNL     1      33.674 -15.956 -26.124  0.00  0.00    -0.243 NA
ATOM     14  C   UNL     1      34.743 -16.695 -22.769  0.00  0.00    +0.153 C 
ATOM     15  C   UNL     1      34.527 -17.032 -24.060  0.00  0.00    +0.046 C 
ATOM     16  C   UNL     1      33.997 -15.934 -24.801  0.00  0.00    +0.089 C 
ATOM     17  C   UNL     1      33.838 -14.798 -24.006  0.00  0.00    +0.048 C 
ATOM     18  C   UNL     1      33.328 -13.616 -24.564  0.00  0.00    +0.010 C 
ATOM     19  C   UNL     1      32.997 -13.633 -25.912  0.00  0.00    +0.021 C 
ATOM     20  C   UNL     1      33.187 -14.803 -26.625  0.00  0.00    +0.099 C 
ENDBRANCH   9  14
ENDBRANCH   7   9
ENDBRANCH   3   7
BRANCH   2  21
ATOM     21  C   UNL     1      33.713 -22.900 -18.481  0.00  0.00    +0.120 C 
BRANCH  21  24
ATOM     22  N   UNL     1      34.454 -24.391 -12.514  0.00  0.00    -0.230 NA
ATOM     23  N   UNL     1      32.587 -24.905 -13.853  0.00  0.00    -0.343 N 
ATOM     24  C   UNL     1      34.410 -22.970 -17.150  0.00  0.00    -0.002 C 
ATOM     25  C   UNL     1      33.791 -23.610 -16.085  0.00  0.00    +0.000 C 
ATOM     26  C   UNL     1      35.662 -22.391 -17.003  0.00  0.00    -0.003 C 
ATOM     27  C   UNL     1      34.434 -23.677 -14.839  0.00  0.00    +0.031 C 
ATOM     28  C   UNL     1      35.708 -23.093 -14.675  0.00  0.00    +0.004 C 
ATOM     29  C   UNL     1      36.311 -22.452 -15.769  0.00  0.00    -0.000 C 
ATOM     30  C   UNL     1      33.867 -24.306 -13.729  0.00  0.00    +0.125 C 
ATOM     31  C   UNL     1      36.333 -23.171 -13.425  0.00  0.00    +0.021 C 
ATOM     32  C   UNL     1      35.672 -23.822 -12.395  0.00  0.00    +0.100 C 
ATOM     33  H   UNL     1      32.174 -25.351 -13.079  0.00  0.00    +0.144 HD
ATOM     34  H   UNL     1      32.111 -24.874 -14.715  0.00  0.00    +0.144 HD
ENDBRANCH  21  24
ENDBRANCH   2  21
TORSDOF 5
ENDMDL
MODEL 7
REMARK VINA RESULT:     -11.7      3.918      6.378
REMARK  Name = 445480
REMARK  5 active torsions:
REMARK  status: ('A' for Active; 'I' for Inactive)
REMARK    1  A    between atoms: N_2  and  C_21
REMARK    2  A    between atoms: C_3  and  N_7
REMARK    3  A    between atoms: N_7  and  S_9
REMARK    4  A    between atoms: S_9  and  C_14
REMARK    5  A    between atoms: C_21  and  C_24
REMARK                            x       y       z     vdW  Elec       q    Type
REMARK                         _______ _______ _______ _____ _____    ______ ____
ROOT
ATOM      1  O   UNL     1      33.608 -15.681 -24.188  0.00  0.00    -0.273 OA
ATOM      2  N   UNL     1      32.703 -14.317 -22.499  0.00  0.00    -0.274 N 
ATOM      3  C   UNL     1      33.946 -16.172 -21.832  0.00  0.00    +0.153 C 
ATOM      4  C   UNL     1      33.848 -15.182 -20.677  0.00  0.00    +0.048 C 
ATOM      5  C   UNL     1      32.665 -14.311 -21.055  0.00  0.00    +0.096 C 
ATOM      6  C   UNL     1      33.432 -15.388 -23.014  0.00  0.00    +0.242 C 
ENDROOT
BRANCH   3   7
ATOM      7  N   UNL     1      35.339 -16.563 -22.075  0.00  0.00    -0.171 NA
ATOM      8  H   UNL     1      35.733 -15.890 -22.733  0.00  0.00    +0.149 HD
BRANCH   7   9
ATOM      9  S   UNL     1      35.640 -18.129 -22.705  0.00  0.00    +0.066 S 
ATOM     10  O   UNL     1      37.073 -18.339 -22.799  0.00  0.00    -0.152 OA
ATOM     11  O   UNL     1      34.769 -18.358 -23.841  0.00  0.00    -0.152 OA
BRANCH   9  14
ATOM     12  S   UNL     1      36.312 -20.077 -20.638  0.00  0.00    -0.066 S 
ATOM     13  N   UNL     1      32.786 -21.266 -19.503  0.00  0.00    -0.243 NA
ATOM     14  C   UNL     1      35.063 -19.309 -21.485  0.00  0.00    +0.153 C 
ATOM     15  C   UNL     1      33.821 -19.696 -21.118  0.00  0.00    +0.046 C 
ATOM     16  C   UNL     1      33.868 -20.679 -20.085  0.00  0.00    +0.089 C 
ATOM     17  C   UNL     1      35.179 -20.988 -19.720  0.00  0.00    +0.048 C 
ATOM     18  C   UNL     1      35.424 -21.936 -18.716  0.00  0.00    +0.010 C 
ATOM     19  C   UNL     1      34.324 -22.538 -18.119  0.00  0.00    +0.021 C 
ATOM     20  C   UNL     1      33.060 -22.173 -18.543  0.00  0.00    +0.099 C 
ENDBRANCH   9  14
ENDBRANCH   7   9
ENDBRANCH   3   7
BRANCH   2  21
ATOM     21  C   UNL     1      31.944 -13.365 -23.281  0.00  0.00    +0.120 C 
BRANCH  21  24
ATOM     22  N   UNL     1      33.597  -7.443 -22.523  0.00  0.00    -0.230 NA
ATOM     23  N   UNL     1      31.843  -8.550 -21.409  0.00  0.00    -0.343 N 
ATOM     24  C   UNL     1      32.745 -12.114 -23.511  0.00  0.00    -0.002 C 
ATOM     25  C   UNL     1      32.429 -10.959 -22.809  0.00  0.00    +0.000 C 
ATOM     26  C   UNL     1      33.789 -12.129 -24.424  0.00  0.00    -0.003 C 
ATOM     27  C   UNL     1      33.172  -9.785 -23.020  0.00  0.00    +0.031 C 
ATOM     28  C   UNL     1      34.237  -9.787 -23.946  0.00  0.00    +0.004 C 
ATOM     29  C   UNL     1      34.534 -10.970 -24.643  0.00  0.00    -0.000 C 
ATOM     30  C   UNL     1      32.906  -8.592 -22.348  0.00  0.00    +0.125 C 
ATOM     31  C   UNL     1      34.965  -8.608 -24.143  0.00  0.00    +0.021 C 
ATOM     32  C   UNL     1      34.609  -7.482 -23.417  0.00  0.00    +0.100 C 
ATOM     33  H   UNL     1      31.644  -7.714 -20.927  0.00  0.00    +0.144 HD
ATOM     34  H   UNL     1      31.305  -9.356 -21.239  0.00  0.00    +0.144 HD
ENDBRANCH  21  24
ENDBRANCH   2  21
TORSDOF 5
ENDMDL
MODEL 8
REMARK VINA RESULT:     -11.7      2.743     10.578
REMARK  Name = 445480
REMARK  5 active torsions:
REMARK  status: ('A' for Active; 'I' for Inactive)
REMARK    1  A    between atoms: N_2  and  C_21
REMARK    2  A    between atoms: C_3  and  N_7
REMARK    3  A    between atoms: N_7  and  S_9
REMARK    4  A    between atoms: S_9  and  C_14
REMARK    5  A    between atoms: C_21  and  C_24
REMARK                            x       y       z     vdW  Elec       q    Type
REMARK                         _______ _______ _______ _____ _____    ______ ____
ROOT
ATOM      1  O   UNL     1      32.532 -20.570 -19.987  0.00  0.00    -0.273 OA
ATOM      2  N   UNL     1      34.002 -22.022 -18.864  0.00  0.00    -0.274 N 
ATOM      3  C   UNL     1      34.909 -20.624 -20.493  0.00  0.00    +0.153 C 
ATOM      4  C   UNL     1      36.019 -21.126 -19.577  0.00  0.00    +0.048 C 
ATOM      5  C   UNL     1      35.408 -22.347 -18.915  0.00  0.00    +0.096 C 
ATOM      6  C   UNL     1      33.646 -21.025 -19.772  0.00  0.00    +0.242 C 
ENDROOT
BRANCH   3   7
ATOM      7  N   UNL     1      34.952 -19.163 -20.624  0.00  0.00    -0.171 NA
ATOM      8  H   UNL     1      34.047 -18.804 -20.320  0.00  0.00    +0.149 HD
BRANCH   7   9
ATOM      9  S   UNL     1      35.269 -18.500 -22.173  0.00  0.00    +0.066 S 
ATOM     10  O   UNL     1      34.597 -19.298 -23.181  0.00  0.00    -0.152 OA
ATOM     11  O   UNL     1      36.681 -18.190 -22.276  0.00  0.00    -0.152 OA
BRANCH   9  14
ATOM     12  S   UNL     1      34.827 -16.013 -23.635  0.00  0.00    -0.066 S 
ATOM     13  N   UNL     1      32.463 -14.089 -21.216  0.00  0.00    -0.243 NA
ATOM     14  C   UNL     1      34.478 -16.893 -22.230  0.00  0.00    +0.153 C 
ATOM     15  C   UNL     1      33.658 -16.256 -21.364  0.00  0.00    +0.046 C 
ATOM     16  C   UNL     1      33.280 -14.971 -21.856  0.00  0.00    +0.089 C 
ATOM     17  C   UNL     1      33.851 -14.702 -23.101  0.00  0.00    +0.048 C 
ATOM     18  C   UNL     1      33.591 -13.483 -23.744  0.00  0.00    +0.010 C 
ATOM     19  C   UNL     1      32.760 -12.579 -23.096  0.00  0.00    +0.021 C 
ATOM     20  C   UNL     1      32.237 -12.928 -21.864  0.00  0.00    +0.099 C 
ENDBRANCH   9  14
ENDBRANCH   7   9
ENDBRANCH   3   7
BRANCH   2  21
ATOM     21  C   UNL     1      33.082 -22.770 -18.034  0.00  0.00    +0.120 C 
BRANCH  21  24
ATOM     22  N   UNL     1      37.643 -23.480 -13.903  0.00  0.00    -0.230 NA
ATOM     23  N   UNL     1      37.898 -22.872 -16.163  0.00  0.00    -0.343 N 
ATOM     24  C   UNL     1      33.700 -23.066 -16.697  0.00  0.00    -0.002 C 
ATOM     25  C   UNL     1      35.079 -22.996 -16.548  0.00  0.00    +0.000 C 
ATOM     26  C   UNL     1      32.886 -23.409 -15.628  0.00  0.00    -0.003 C 
ATOM     27  C   UNL     1      35.664 -23.273 -15.302  0.00  0.00    +0.031 C 
ATOM     28  C   UNL     1      34.847 -23.623 -14.206  0.00  0.00    +0.004 C 
ATOM     29  C   UNL     1      33.455 -23.687 -14.385  0.00  0.00    -0.000 C 
ATOM     30  C   UNL     1      37.042 -23.220 -15.086  0.00  0.00    +0.125 C 
ATOM     31  C   UNL     1      35.449 -23.896 -12.972  0.00  0.00    +0.021 C 
ATOM     32  C   UNL     1      36.829 -23.811 -12.877  0.00  0.00    +0.100 C 
ATOM     33  H   UNL     1      38.871 -22.831 -16.025  0.00  0.00    +0.144 HD
ATOM     34  H   UNL     1      37.517 -22.672 -17.049  0.00  0.00    +0.144 HD
ENDBRANCH  21  24
ENDBRANCH   2  21
TORSDOF 5
ENDMDL
MODEL 9
REMARK VINA RESULT:     -11.6      7.328     10.927
REMARK  Name = 445480
REMARK  5 active torsions:
REMARK  status: ('A' for Active; 'I' for Inactive)
REMARK    1  A    between atoms: N_2  and  C_21
REMARK    2  A    between atoms: C_3  and  N_7
REMARK    3  A    between atoms: N_7  and  S_9
REMARK    4  A    between atoms: S_9  and  C_14
REMARK    5  A    between atoms: C_21  and  C_24
REMARK                            x       y       z     vdW  Elec       q    Type
REMARK                         _______ _______ _______ _____ _____    ______ ____
ROOT
ATOM      1  O   UNL     1      35.570 -10.067 -25.131  0.00  0.00    -0.273 OA
ATOM      2  N   UNL     1      34.129  -8.991 -23.617  0.00  0.00    -0.274 N 
ATOM      3  C   UNL     1      33.514 -11.111 -24.363  0.00  0.00    +0.153 C 
ATOM      4  C   UNL     1      32.753 -10.780 -23.085  0.00  0.00    +0.048 C 
ATOM      5  C   UNL     1      32.858  -9.270 -22.989  0.00  0.00    +0.096 C 
ATOM      6  C   UNL     1      34.562 -10.028 -24.442  0.00  0.00    +0.242 C 
ENDROOT
BRANCH   3   7
ATOM      7  N   UNL     1      34.170 -12.419 -24.264  0.00  0.00    -0.171 NA
ATOM      8  H   UNL     1      34.979 -12.401 -24.886  0.00  0.00    +0.149 HD
BRANCH   7   9
ATOM      9  S   UNL     1      33.255 -13.814 -24.659  0.00  0.00    +0.066 S 
ATOM     10  O   UNL     1      33.470 -14.147 -26.055  0.00  0.00    -0.152 OA
ATOM     11  O   UNL     1      31.919 -13.674 -24.115  0.00  0.00    -0.152 OA
BRANCH   9  14
ATOM     12  S   UNL     1      34.305 -16.538 -24.678  0.00  0.00    -0.066 S 
ATOM     13  N   UNL     1      35.178 -17.070 -20.924  0.00  0.00    -0.243 NA
ATOM     14  C   UNL     1      33.949 -15.181 -23.729  0.00  0.00    +0.153 C 
ATOM     15  C   UNL     1      34.239 -15.327 -22.417  0.00  0.00    +0.046 C 
ATOM     16  C   UNL     1      34.786 -16.618 -22.147  0.00  0.00    +0.089 C 
ATOM     17  C   UNL     1      34.880 -17.394 -23.303  0.00  0.00    +0.048 C 
ATOM     18  C   UNL     1      35.397 -18.696 -23.234  0.00  0.00    +0.010 C 
ATOM     19  C   UNL     1      35.798 -19.163 -21.989  0.00  0.00    +0.021 C 
ATOM     20  C   UNL     1      35.668 -18.326 -20.896  0.00  0.00    +0.099 C 
ENDBRANCH   9  14
ENDBRANCH   7   9
ENDBRANCH   3   7
BRANCH   2  21
ATOM     21  C   UNL     1      34.778  -7.706 -23.473  0.00  0.00    +0.120 C 
BRANCH  21  24
ATOM     22  N   UNL     1      30.434  -3.496 -24.808  0.00  0.00    -0.230 NA
ATOM     23  N   UNL     1      30.574  -4.771 -22.833  0.00  0.00    -0.343 N 
ATOM     24  C   UNL     1      34.071  -6.663 -24.292  0.00  0.00    -0.002 C 
ATOM     25  C   UNL     1      32.926  -6.058 -23.791  0.00  0.00    +0.000 C 
ATOM     26  C   UNL     1      34.569  -6.320 -25.540  0.00  0.00    -0.003 C 
ATOM     27  C   UNL     1      32.258  -5.084 -24.552  0.00  0.00    +0.031 C 
ATOM     28  C   UNL     1      32.755  -4.725 -25.823  0.00  0.00    +0.004 C 
ATOM     29  C   UNL     1      33.915  -5.354 -26.306  0.00  0.00    -0.000 C 
ATOM     30  C   UNL     1      31.104  -4.438 -24.106  0.00  0.00    +0.125 C 
ATOM     31  C   UNL     1      32.075  -3.752 -26.566  0.00  0.00    +0.021 C 
ATOM     32  C   UNL     1      30.938  -3.179 -26.019  0.00  0.00    +0.100 C 
ATOM     33  H   UNL     1      29.760  -4.324 -22.506  0.00  0.00    +0.144 HD
ATOM     34  H   UNL     1      31.020  -5.450 -22.277  0.00  0.00    +0.144 HD
ENDBRANCH  21  24
ENDBRANCH   2  21
TORSDOF 5
ENDMDL
