MODEL 1
REMARK VINA RESULT:     -10.1      0.000      0.000
REMARK  Name = 3229
REMARK  3 active torsions:
REMARK  status: ('A' for Active; 'I' for Inactive)
REMARK    1  A    between atoms: N_3  and  C_25
REMARK    2  A    between atoms: C_12  and  C_22
REMARK    3  A    between atoms: C_22  and  O_23
REMARK                            x       y       z     vdW  Elec       q    Type
REMARK                         _______ _______ _______ _____ _____    ______ ____
ROOT
ATOM      1  F   UNL     1      32.407 -15.634 -21.111  0.00  0.00    -0.200 F 
ATOM      2  O   UNL     1      30.963 -10.789 -21.039  0.00  0.00    -0.290 OA
ATOM      3  N   UNL     1      33.481 -11.174 -24.207  0.00  0.00    -0.264 N 
ATOM      4  N   UNL     1      33.789 -13.524 -23.725  0.00  0.00    -0.373 NA
ATOM      5  C   UNL     1      33.502 -14.591 -22.945  0.00  0.00    +0.212 C 
ATOM      6  C   UNL     1      33.218 -12.327 -23.425  0.00  0.00    +0.177 C 
ATOM      7  C   UNL     1      32.350 -12.211 -22.325  0.00  0.00    +0.153 C 
ATOM      8  C   UNL     1      32.659 -14.548 -21.852  0.00  0.00    +0.180 C 
ATOM      9  C   UNL     1      32.072 -13.332 -21.538  0.00  0.00    +0.023 C 
ATOM     10  C   UNL     1      31.723 -10.907 -21.991  0.00  0.00    +0.192 C 
ATOM     11  C   UNL     1      32.893  -9.967 -23.888  0.00  0.00    +0.076 C 
ATOM     12  C   UNL     1      32.055  -9.754 -22.866  0.00  0.00    +0.126 C 
ATOM     13  N   UNL     1      34.089 -15.823 -23.256  0.00  0.00    -0.286 N 
ATOM     14  N   UNL     1      35.496 -18.205 -23.961  0.00  0.00    +0.386 N 
ATOM     15  C   UNL     1      34.404 -16.103 -24.664  0.00  0.00    +0.070 C 
ATOM     16  C   UNL     1      34.944 -16.490 -22.269  0.00  0.00    +0.070 C 
ATOM     17  C   UNL     1      34.540 -17.608 -24.892  0.00  0.00    -0.060 C 
ATOM     18  C   UNL     1      35.063 -17.982 -22.583  0.00  0.00    -0.060 C 
ATOM     19  H   UNL     1      36.412 -17.778 -24.099  0.00  0.00    -0.084 HD
ATOM     20  H   UNL     1      35.551 -19.207 -24.136  0.00  0.00    -0.084 HD
ENDROOT
BRANCH  12  22
ATOM     21  O   UNL     1      30.881  -7.788 -23.502  0.00  0.00    -0.245 OA
ATOM     22  C   UNL     1      31.521  -8.406 -22.669  0.00  0.00    +0.342 C 
BRANCH  22  23
ATOM     23  O   UNL     1      31.846  -7.964 -21.436  0.00  0.00    -0.477 OA
ATOM     24  H   UNL     1      31.759  -7.054 -21.226  0.00  0.00    +0.295 HD
ENDBRANCH  22  23
ENDBRANCH  12  22
BRANCH   3  25
ATOM     25  C   UNL     1      34.388 -11.350 -25.335  0.00  0.00    +0.098 C 
ATOM     26  C   UNL     1      35.382 -10.212 -25.431  0.00  0.00    +0.024 C 
ENDBRANCH   3  25
TORSDOF 3
ENDMDL
MODEL 2
REMARK VINA RESULT:      -9.4     11.492     13.938
REMARK  Name = 3229
REMARK  3 active torsions:
REMARK  status: ('A' for Active; 'I' for Inactive)
REMARK    1  A    between atoms: N_3  and  C_25
REMARK    2  A    between atoms: C_12  and  C_22
REMARK    3  A    between atoms: C_22  and  O_23
REMARK                            x       y       z     vdW  Elec       q    Type
REMARK                         _______ _______ _______ _____ _____    ______ ____
ROOT
ATOM      1  F   UNL     1      34.766 -24.791 -11.873  0.00  0.00    -0.200 F 
ATOM      2  O   UNL     1      30.269 -23.414 -13.730  0.00  0.00    -0.290 OA
ATOM      3  N   UNL     1      32.892 -23.184 -16.827  0.00  0.00    -0.264 N 
ATOM      4  N   UNL     1      34.703 -23.907 -15.396  0.00  0.00    -0.373 NA
ATOM      5  C   UNL     1      35.123 -24.297 -14.170  0.00  0.00    +0.212 C 
ATOM      6  C   UNL     1      33.390 -23.597 -15.565  0.00  0.00    +0.177 C 
ATOM      7  C   UNL     1      32.496 -23.681 -14.483  0.00  0.00    +0.153 C 
ATOM      8  C   UNL     1      34.300 -24.401 -13.066  0.00  0.00    +0.180 C 
ATOM      9  C   UNL     1      32.960 -24.087 -13.229  0.00  0.00    +0.023 C 
ATOM     10  C   UNL     1      31.061 -23.344 -14.661  0.00  0.00    +0.192 C 
ATOM     11  C   UNL     1      31.556 -22.873 -16.980  0.00  0.00    +0.076 C 
ATOM     12  C   UNL     1      30.629 -22.921 -16.017  0.00  0.00    +0.126 C 
ATOM     13  N   UNL     1      36.474 -24.617 -13.998  0.00  0.00    -0.286 N 
ATOM     14  N   UNL     1      39.285 -25.083 -13.813  0.00  0.00    +0.386 N 
ATOM     15  C   UNL     1      37.208 -25.163 -15.149  0.00  0.00    +0.070 C 
ATOM     16  C   UNL     1      37.281 -23.869 -13.028  0.00  0.00    +0.070 C 
ATOM     17  C   UNL     1      38.453 -25.915 -14.681  0.00  0.00    -0.060 C 
ATOM     18  C   UNL     1      38.525 -24.666 -12.637  0.00  0.00    -0.060 C 
ATOM     19  H   UNL     1      39.587 -24.256 -14.329  0.00  0.00    -0.084 HD
ATOM     20  H   UNL     1      40.097 -25.621 -13.514  0.00  0.00    -0.084 HD
ENDROOT
BRANCH  12  22
ATOM     21  O   UNL     1      28.711 -22.804 -17.415  0.00  0.00    -0.245 OA
ATOM     22  C   UNL     1      29.253 -22.556 -16.352  0.00  0.00    +0.342 C 
BRANCH  22  23
ATOM     23  O   UNL     1      28.687 -21.911 -15.311  0.00  0.00    -0.477 OA
ATOM     24  H   UNL     1      28.410 -21.020 -15.406  0.00  0.00    +0.295 HD
ENDBRANCH  22  23
ENDBRANCH  12  22
BRANCH   3  25
ATOM     25  C   UNL     1      33.861 -23.114 -17.914  0.00  0.00    +0.098 C 
ATOM     26  C   UNL     1      33.487 -22.050 -18.924  0.00  0.00    +0.024 C 
ENDBRANCH   3  25
TORSDOF 3
ENDMDL
MODEL 3
REMARK VINA RESULT:      -9.3      9.477     12.678
REMARK  Name = 3229
REMARK  3 active torsions:
REMARK  status: ('A' for Active; 'I' for Inactive)
REMARK    1  A    between atoms: N_3  and  C_25
REMARK    2  A    between atoms: C_12  and  C_22
REMARK    3  A    between atoms: C_22  and  O_23
REMARK                            x       y       z     vdW  Elec       q    Type
REMARK                         _______ _______ _______ _____ _____    ______ ____
ROOT
ATOM      1  F   UNL     1      38.650 -22.825 -15.797  0.00  0.00    -0.200 F 
ATOM      2  O   UNL     1      36.282 -20.503 -19.614  0.00  0.00    -0.290 OA
ATOM      3  N   UNL     1      33.474 -22.783 -17.758  0.00  0.00    -0.264 N 
ATOM      4  N   UNL     1      35.112 -23.566 -16.160  0.00  0.00    -0.373 NA
ATOM      5  C   UNL     1      36.388 -23.550 -15.710  0.00  0.00    +0.212 C 
ATOM      6  C   UNL     1      34.795 -22.806 -17.242  0.00  0.00    +0.177 C 
ATOM      7  C   UNL     1      35.778 -22.024 -17.872  0.00  0.00    +0.153 C 
ATOM      8  C   UNL     1      37.402 -22.806 -16.281  0.00  0.00    +0.180 C 
ATOM      9  C   UNL     1      37.088 -22.028 -17.384  0.00  0.00    +0.023 C 
ATOM     10  C   UNL     1      35.439 -21.191 -19.054  0.00  0.00    +0.192 C 
ATOM     11  C   UNL     1      33.170 -22.005 -18.856  0.00  0.00    +0.076 C 
ATOM     12  C   UNL     1      34.031 -21.228 -19.525  0.00  0.00    +0.126 C 
ATOM     13  N   UNL     1      36.713 -24.332 -14.596  0.00  0.00    -0.286 N 
ATOM     14  N   UNL     1      37.210 -26.101 -12.411  0.00  0.00    +0.386 N 
ATOM     15  C   UNL     1      35.665 -24.578 -13.594  0.00  0.00    +0.070 C 
ATOM     16  C   UNL     1      37.737 -25.375 -14.713  0.00  0.00    +0.070 C 
ATOM     17  C   UNL     1      36.287 -24.977 -12.257  0.00  0.00    -0.060 C 
ATOM     18  C   UNL     1      38.284 -25.747 -13.335  0.00  0.00    -0.060 C 
ATOM     19  H   UNL     1      36.701 -26.906 -12.778  0.00  0.00    -0.084 HD
ATOM     20  H   UNL     1      37.611 -26.329 -11.502  0.00  0.00    -0.084 HD
ENDROOT
BRANCH  12  22
ATOM     21  O   UNL     1      32.366 -20.215 -20.885  0.00  0.00    -0.245 OA
ATOM     22  C   UNL     1      33.540 -20.467 -20.673  0.00  0.00    +0.342 C 
BRANCH  22  23
ATOM     23  O   UNL     1      34.579 -20.094 -21.450  0.00  0.00    -0.477 OA
ATOM     24  H   UNL     1      34.497 -20.113 -22.383  0.00  0.00    +0.295 HD
ENDBRANCH  22  23
ENDBRANCH  12  22
BRANCH   3  25
ATOM     25  C   UNL     1      32.494 -23.611 -17.066  0.00  0.00    +0.098 C 
ATOM     26  C   UNL     1      31.309 -22.793 -16.596  0.00  0.00    +0.024 C 
ENDBRANCH   3  25
TORSDOF 3
ENDMDL
MODEL 4
REMARK VINA RESULT:      -9.1      2.717      4.247
REMARK  Name = 3229
REMARK  3 active torsions:
REMARK  status: ('A' for Active; 'I' for Inactive)
REMARK    1  A    between atoms: N_3  and  C_25
REMARK    2  A    between atoms: C_12  and  C_22
REMARK    3  A    between atoms: C_22  and  O_23
REMARK                            x       y       z     vdW  Elec       q    Type
REMARK                         _______ _______ _______ _____ _____    ______ ____
ROOT
ATOM      1  F   UNL     1      34.954 -11.104 -25.933  0.00  0.00    -0.200 F 
ATOM      2  O   UNL     1      34.105  -7.090 -22.979  0.00  0.00    -0.290 OA
ATOM      3  N   UNL     1      31.901 -10.130 -21.420  0.00  0.00    -0.264 N 
ATOM      4  N   UNL     1      32.684 -11.633 -23.146  0.00  0.00    -0.373 NA
ATOM      5  C   UNL     1      33.444 -11.831 -24.248  0.00  0.00    +0.212 C 
ATOM      6  C   UNL     1      32.678 -10.398 -22.577  0.00  0.00    +0.177 C 
ATOM      7  C   UNL     1      33.445  -9.357 -23.129  0.00  0.00    +0.153 C 
ATOM      8  C   UNL     1      34.220 -10.856 -24.841  0.00  0.00    +0.180 C 
ATOM      9  C   UNL     1      34.219  -9.594 -24.268  0.00  0.00    +0.023 C 
ATOM     10  C   UNL     1      33.441  -8.006 -22.512  0.00  0.00    +0.192 C 
ATOM     11  C   UNL     1      31.907  -8.871 -20.856  0.00  0.00    +0.076 C 
ATOM     12  C   UNL     1      32.600  -7.818 -21.303  0.00  0.00    +0.126 C 
ATOM     13  N   UNL     1      33.451 -13.103 -24.833  0.00  0.00    -0.286 N 
ATOM     14  N   UNL     1      33.219 -15.715 -25.962  0.00  0.00    +0.386 N 
ATOM     15  C   UNL     1      33.241 -14.267 -23.960  0.00  0.00    +0.070 C 
ATOM     16  C   UNL     1      33.018 -13.266 -26.225  0.00  0.00    +0.070 C 
ATOM     17  C   UNL     1      33.777 -15.535 -24.622  0.00  0.00    -0.060 C 
ATOM     18  C   UNL     1      33.560 -14.572 -26.806  0.00  0.00    -0.060 C 
ATOM     19  H   UNL     1      32.204 -15.795 -25.896  0.00  0.00    -0.084 HD
ATOM     20  H   UNL     1      33.608 -16.563 -26.374  0.00  0.00    -0.084 HD
ENDROOT
BRANCH  12  22
ATOM     21  O   UNL     1      32.779  -6.394 -19.408  0.00  0.00    -0.245 OA
ATOM     22  C   UNL     1      32.489  -6.550 -20.582  0.00  0.00    +0.342 C 
BRANCH  22  23
ATOM     23  O   UNL     1      32.023  -5.594 -21.413  0.00  0.00    -0.477 OA
ATOM     24  H   UNL     1      32.467  -4.771 -21.477  0.00  0.00    +0.295 HD
ENDBRANCH  22  23
ENDBRANCH  12  22
BRANCH   3  25
ATOM     25  C   UNL     1      31.126 -11.244 -20.889  0.00  0.00    +0.098 C 
ATOM     26  C   UNL     1      31.578 -11.619 -19.493  0.00  0.00    +0.024 C 
ENDBRANCH   3  25
TORSDOF 3
ENDMDL
MODEL 5
REMARK VINA RESULT:      -8.8     13.156     14.890
REMARK  Name = 3229
REMARK  3 active torsions:
REMARK  status: ('A' for Active; 'I' for Inactive)
REMARK    1  A    between atoms: N_3  and  C_25
REMARK    2  A    between atoms: C_12  and  C_22
REMARK    3  A    between atoms: C_22  and  O_23
REMARK                            x       y       z     vdW  Elec       q    Type
REMARK                         _______ _______ _______ _____ _____    ______ ____
ROOT
ATOM      1  F   UNL     1      30.870 -24.934 -13.045  0.00  0.00    -0.200 F 
ATOM      2  O   UNL     1      35.707 -24.894 -11.574  0.00  0.00    -0.290 OA
ATOM      3  N   UNL     1      35.637 -23.228 -15.281  0.00  0.00    -0.264 N 
ATOM      4  N   UNL     1      33.239 -23.520 -15.409  0.00  0.00    -0.373 NA
ATOM      5  C   UNL     1      32.095 -23.948 -14.828  0.00  0.00    +0.212 C 
ATOM      6  C   UNL     1      34.406 -23.659 -14.724  0.00  0.00    +0.177 C 
ATOM      7  C   UNL     1      34.413 -24.238 -13.443  0.00  0.00    +0.153 C 
ATOM      8  C   UNL     1      32.029 -24.525 -13.575  0.00  0.00    +0.180 C 
ATOM      9  C   UNL     1      33.214 -24.671 -12.870  0.00  0.00    +0.023 C 
ATOM     10  C   UNL     1      35.683 -24.394 -12.691  0.00  0.00    +0.192 C 
ATOM     11  C   UNL     1      36.811 -23.377 -14.572  0.00  0.00    +0.076 C 
ATOM     12  C   UNL     1      36.923 -23.913 -13.351  0.00  0.00    +0.126 C 
ATOM     13  N   UNL     1      30.894 -23.803 -15.533  0.00  0.00    -0.286 N 
ATOM     14  N   UNL     1      28.578 -23.557 -17.184  0.00  0.00    +0.386 N 
ATOM     15  C   UNL     1      30.775 -22.678 -16.471  0.00  0.00    +0.070 C 
ATOM     16  C   UNL     1      30.093 -24.989 -15.857  0.00  0.00    +0.070 C 
ATOM     17  C   UNL     1      29.305 -22.365 -16.747  0.00  0.00    -0.060 C 
ATOM     18  C   UNL     1      28.647 -24.593 -16.156  0.00  0.00    -0.060 C 
ATOM     19  H   UNL     1      28.995 -23.908 -18.046  0.00  0.00    -0.084 HD
ATOM     20  H   UNL     1      27.602 -23.311 -17.346  0.00  0.00    -0.084 HD
ENDROOT
BRANCH  12  22
ATOM     21  O   UNL     1      39.164 -24.683 -13.167  0.00  0.00    -0.245 OA
ATOM     22  C   UNL     1      38.251 -23.996 -12.743  0.00  0.00    +0.342 C 
BRANCH  22  23
ATOM     23  O   UNL     1      38.302 -23.202 -11.653  0.00  0.00    -0.477 OA
ATOM     24  H   UNL     1      38.931 -22.508 -11.607  0.00  0.00    +0.295 HD
ENDBRANCH  22  23
ENDBRANCH  12  22
BRANCH   3  25
ATOM     25  C   UNL     1      35.573 -22.634 -16.611  0.00  0.00    +0.098 C 
ATOM     26  C   UNL     1      36.878 -21.961 -16.982  0.00  0.00    +0.024 C 
ENDBRANCH   3  25
TORSDOF 3
ENDMDL
MODEL 6
REMARK VINA RESULT:      -8.7      3.918      7.393
REMARK  Name = 3229
REMARK  3 active torsions:
REMARK  status: ('A' for Active; 'I' for Inactive)
REMARK    1  A    between atoms: N_3  and  C_25
REMARK    2  A    between atoms: C_12  and  C_22
REMARK    3  A    between atoms: C_22  and  O_23
REMARK                            x       y       z     vdW  Elec       q    Type
REMARK                         _______ _______ _______ _____ _____    ______ ____
ROOT
ATOM      1  F   UNL     1      33.342 -11.736 -26.053  0.00  0.00    -0.200 F 
ATOM      2  O   UNL     1      34.519 -16.651 -25.889  0.00  0.00    -0.290 OA
ATOM      3  N   UNL     1      34.115 -15.453 -22.025  0.00  0.00    -0.264 N 
ATOM      4  N   UNL     1      33.595 -13.201 -22.738  0.00  0.00    -0.373 NA
ATOM      5  C   UNL     1      33.413 -12.322 -23.751  0.00  0.00    +0.212 C 
ATOM      6  C   UNL     1      33.913 -14.487 -23.044  0.00  0.00    +0.177 C 
ATOM      7  C   UNL     1      34.050 -14.884 -24.385  0.00  0.00    +0.153 C 
ATOM      8  C   UNL     1      33.531 -12.645 -25.088  0.00  0.00    +0.180 C 
ATOM      9  C   UNL     1      33.856 -13.954 -25.409  0.00  0.00    +0.023 C 
ATOM     10  C   UNL     1      34.398 -16.288 -24.726  0.00  0.00    +0.192 C 
ATOM     11  C   UNL     1      34.437 -16.753 -22.354  0.00  0.00    +0.076 C 
ATOM     12  C   UNL     1      34.589 -17.230 -23.595  0.00  0.00    +0.126 C 
ATOM     13  N   UNL     1      33.084 -10.999 -23.435  0.00  0.00    -0.286 N 
ATOM     14  N   UNL     1      32.566  -8.322 -22.587  0.00  0.00    +0.386 N 
ATOM     15  C   UNL     1      32.320 -10.751 -22.204  0.00  0.00    +0.070 C 
ATOM     16  C   UNL     1      33.964  -9.908 -23.867  0.00  0.00    +0.070 C 
ATOM     17  C   UNL     1      31.622  -9.394 -22.272  0.00  0.00    -0.060 C 
ATOM     18  C   UNL     1      33.208  -8.579 -23.874  0.00  0.00    -0.060 C 
ATOM     19  H   UNL     1      33.279  -8.277 -21.859  0.00  0.00    -0.084 HD
ATOM     20  H   UNL     1      32.062  -7.438 -22.635  0.00  0.00    -0.084 HD
ENDROOT
BRANCH  12  22
ATOM     21  O   UNL     1      35.658 -19.271 -23.012  0.00  0.00    -0.245 OA
ATOM     22  C   UNL     1      34.935 -18.641 -23.765  0.00  0.00    +0.342 C 
BRANCH  22  23
ATOM     23  O   UNL     1      34.335 -19.126 -24.871  0.00  0.00    -0.477 OA
ATOM     24  H   UNL     1      34.162 -20.045 -24.947  0.00  0.00    +0.295 HD
ENDBRANCH  22  23
ENDBRANCH  12  22
BRANCH   3  25
ATOM     25  C   UNL     1      33.960 -14.987 -20.652  0.00  0.00    +0.098 C 
ATOM     26  C   UNL     1      32.539 -15.171 -20.161  0.00  0.00    +0.024 C 
ENDBRANCH   3  25
TORSDOF 3
ENDMDL
MODEL 7
REMARK VINA RESULT:      -8.7      1.784      2.375
REMARK  Name = 3229
REMARK  3 active torsions:
REMARK  status: ('A' for Active; 'I' for Inactive)
REMARK    1  A    between atoms: N_3  and  C_25
REMARK    2  A    between atoms: C_12  and  C_22
REMARK    3  A    between atoms: C_22  and  O_23
REMARK                            x       y       z     vdW  Elec       q    Type
REMARK                         _______ _______ _______ _____ _____    ______ ____
ROOT
ATOM      1  F   UNL     1      31.842 -14.278 -21.659  0.00  0.00    -0.200 F 
ATOM      2  O   UNL     1      31.331  -9.661 -19.663  0.00  0.00    -0.290 OA
ATOM      3  N   UNL     1      33.356  -9.168 -23.154  0.00  0.00    -0.264 N 
ATOM      4  N   UNL     1      33.280 -11.549 -23.577  0.00  0.00    -0.373 NA
ATOM      5  C   UNL     1      32.892 -12.782 -23.178  0.00  0.00    +0.212 C 
ATOM      6  C   UNL     1      32.976 -10.485 -22.787  0.00  0.00    +0.177 C 
ATOM      7  C   UNL     1      32.276 -10.673 -21.583  0.00  0.00    +0.153 C 
ATOM      8  C   UNL     1      32.202 -13.037 -22.009  0.00  0.00    +0.180 C 
ATOM      9  C   UNL     1      31.889 -11.959 -21.197  0.00  0.00    +0.023 C 
ATOM     10  C   UNL     1      31.942  -9.515 -20.714  0.00  0.00    +0.192 C 
ATOM     11  C   UNL     1      33.040  -8.101 -22.339  0.00  0.00    +0.076 C 
ATOM     12  C   UNL     1      32.378  -8.174 -21.178  0.00  0.00    +0.126 C 
ATOM     13  N   UNL     1      33.204 -13.876 -23.993  0.00  0.00    -0.286 N 
ATOM     14  N   UNL     1      34.059 -15.989 -25.713  0.00  0.00    +0.386 N 
ATOM     15  C   UNL     1      33.298 -13.653 -25.443  0.00  0.00    +0.070 C 
ATOM     16  C   UNL     1      34.029 -14.967 -23.463  0.00  0.00    +0.070 C 
ATOM     17  C   UNL     1      33.128 -14.971 -26.199  0.00  0.00    -0.060 C 
ATOM     18  C   UNL     1      33.835 -16.237 -24.290  0.00  0.00    -0.060 C 
ATOM     19  H   UNL     1      35.016 -15.664 -25.851  0.00  0.00    -0.084 HD
ATOM     20  H   UNL     1      33.908 -16.853 -26.231  0.00  0.00    -0.084 HD
ENDROOT
BRANCH  12  22
ATOM     21  O   UNL     1      31.360  -6.061 -20.795  0.00  0.00    -0.245 OA
ATOM     22  C   UNL     1      32.127  -6.938 -20.437  0.00  0.00    +0.342 C 
BRANCH  22  23
ATOM     23  O   UNL     1      32.869  -6.925 -19.310  0.00  0.00    -0.477 OA
ATOM     24  H   UNL     1      32.495  -7.212 -18.499  0.00  0.00    +0.295 HD
ENDBRANCH  22  23
ENDBRANCH  12  22
BRANCH   3  25
ATOM     25  C   UNL     1      34.079  -9.031 -24.412  0.00  0.00    +0.098 C 
ATOM     26  C   UNL     1      34.634  -7.632 -24.583  0.00  0.00    +0.024 C 
ENDBRANCH   3  25
TORSDOF 3
ENDMDL
MODEL 8
REMARK VINA RESULT:      -8.4      3.554      5.435
REMARK  Name = 3229
REMARK  3 active torsions:
REMARK  status: ('A' for Active; 'I' for Inactive)
REMARK    1  A    between atoms: N_3  and  C_25
REMARK    2  A    between atoms: C_12  and  C_22
REMARK    3  A    between atoms: C_22  and  O_23
REMARK                            x       y       z     vdW  Elec       q    Type
REMARK                         _______ _______ _______ _____ _____    ______ ____
ROOT
ATOM      1  F   UNL     1      34.942 -20.134 -24.151  0.00  0.00    -0.200 F 
ATOM      2  O   UNL     1      33.505 -15.995 -26.675  0.00  0.00    -0.290 OA
ATOM      3  N   UNL     1      34.227 -14.799 -22.857  0.00  0.00    -0.264 N 
ATOM      4  N   UNL     1      34.825 -17.056 -22.224  0.00  0.00    -0.373 NA
ATOM      5  C   UNL     1      34.989 -18.351 -22.579  0.00  0.00    +0.212 C 
ATOM      6  C   UNL     1      34.415 -16.170 -23.171  0.00  0.00    +0.177 C 
ATOM      7  C   UNL     1      34.170 -16.600 -24.486  0.00  0.00    +0.153 C 
ATOM      8  C   UNL     1      34.766 -18.841 -23.851  0.00  0.00    +0.180 C 
ATOM      9  C   UNL     1      34.348 -17.945 -24.822  0.00  0.00    +0.023 C 
ATOM     10  C   UNL     1      33.722 -15.638 -25.525  0.00  0.00    +0.192 C 
ATOM     11  C   UNL     1      33.811 -13.915 -23.831  0.00  0.00    +0.076 C 
ATOM     12  C   UNL     1      33.552 -14.223 -25.107  0.00  0.00    +0.126 C 
ATOM     13  N   UNL     1      35.411 -19.262 -21.604  0.00  0.00    -0.286 N 
ATOM     14  N   UNL     1      36.133 -20.988 -19.447  0.00  0.00    +0.386 N 
ATOM     15  C   UNL     1      36.267 -18.765 -20.517  0.00  0.00    +0.070 C 
ATOM     16  C   UNL     1      34.567 -20.415 -21.272  0.00  0.00    +0.070 C 
ATOM     17  C   UNL     1      37.034 -19.917 -19.870  0.00  0.00    -0.060 C 
ATOM     18  C   UNL     1      35.395 -21.508 -20.596  0.00  0.00    -0.060 C 
ATOM     19  H   UNL     1      35.473 -20.621 -18.761  0.00  0.00    -0.084 HD
ATOM     20  H   UNL     1      36.681 -21.740 -19.032  0.00  0.00    -0.084 HD
ENDROOT
BRANCH  12  22
ATOM     21  O   UNL     1      33.559 -12.022 -26.002  0.00  0.00    -0.245 OA
ATOM     22  C   UNL     1      33.118 -13.157 -26.010  0.00  0.00    +0.342 C 
BRANCH  22  23
ATOM     23  O   UNL     1      32.164 -13.627 -26.841  0.00  0.00    -0.477 OA
ATOM     24  H   UNL     1      32.001 -13.197 -27.658  0.00  0.00    +0.295 HD
ENDBRANCH  22  23
ENDBRANCH  12  22
BRANCH   3  25
ATOM     25  C   UNL     1      34.497 -14.408 -21.479  0.00  0.00    +0.098 C 
ATOM     26  C   UNL     1      33.223 -14.341 -20.662  0.00  0.00    +0.024 C 
ENDBRANCH   3  25
TORSDOF 3
ENDMDL
MODEL 9
REMARK VINA RESULT:      -8.4     12.717     14.355
REMARK  Name = 3229
REMARK  3 active torsions:
REMARK  status: ('A' for Active; 'I' for Inactive)
REMARK    1  A    between atoms: N_3  and  C_25
REMARK    2  A    between atoms: C_12  and  C_22
REMARK    3  A    between atoms: C_22  and  O_23
REMARK                            x       y       z     vdW  Elec       q    Type
REMARK                         _______ _______ _______ _____ _____    ______ ____
ROOT
ATOM      1  F   UNL     1      35.954 -23.272 -16.391  0.00  0.00    -0.200 F 
ATOM      2  O   UNL     1      31.256 -22.178 -17.906  0.00  0.00    -0.290 OA
ATOM      3  N   UNL     1      30.876 -24.155 -14.374  0.00  0.00    -0.264 N 
ATOM      4  N   UNL     1      33.278 -24.377 -14.197  0.00  0.00    -0.373 NA
ATOM      5  C   UNL     1      34.502 -24.141 -14.722  0.00  0.00    +0.212 C 
ATOM      6  C   UNL     1      32.185 -23.938 -14.876  0.00  0.00    +0.177 C 
ATOM      7  C   UNL     1      32.334 -23.257 -16.096  0.00  0.00    +0.153 C 
ATOM      8  C   UNL     1      34.721 -23.479 -15.914  0.00  0.00    +0.180 C 
ATOM      9  C   UNL     1      33.612 -23.028 -16.613  0.00  0.00    +0.023 C 
ATOM     10  C   UNL     1      31.144 -22.775 -16.843  0.00  0.00    +0.192 C 
ATOM     11  C   UNL     1      29.778 -23.702 -15.077  0.00  0.00    +0.076 C 
ATOM     12  C   UNL     1      29.814 -23.046 -16.242  0.00  0.00    +0.126 C 
ATOM     13  N   UNL     1      35.627 -24.593 -14.022  0.00  0.00    -0.286 N 
ATOM     14  N   UNL     1      37.782 -25.717 -12.524  0.00  0.00    +0.386 N 
ATOM     15  C   UNL     1      35.544 -24.671 -12.556  0.00  0.00    +0.070 C 
ATOM     16  C   UNL     1      36.547 -25.542 -14.657  0.00  0.00    +0.070 C 
ATOM     17  C   UNL     1      36.942 -24.671 -11.940  0.00  0.00    -0.060 C 
ATOM     18  C   UNL     1      37.910 -25.513 -13.965  0.00  0.00    -0.060 C 
ATOM     19  H   UNL     1      37.357 -26.627 -12.349  0.00  0.00    -0.084 HD
ATOM     20  H   UNL     1      38.707 -25.678 -12.097  0.00  0.00    -0.084 HD
ENDROOT
BRANCH  12  22
ATOM     21  O   UNL     1      27.893 -21.672 -16.505  0.00  0.00    -0.245 OA
ATOM     22  C   UNL     1      28.549 -22.638 -16.854  0.00  0.00    +0.342 C 
BRANCH  22  23
ATOM     23  O   UNL     1      28.231 -23.489 -17.851  0.00  0.00    -0.477 OA
ATOM     24  H   UNL     1      27.356 -23.511 -18.187  0.00  0.00    +0.295 HD
ENDBRANCH  22  23
ENDBRANCH  12  22
BRANCH   3  25
ATOM     25  C   UNL     1      30.779 -24.866 -13.105  0.00  0.00    +0.098 C 
ATOM     26  C   UNL     1      30.246 -23.970 -12.007  0.00  0.00    +0.024 C 
ENDBRANCH   3  25
TORSDOF 3
ENDMDL
