MODEL 1
REMARK VINA RESULT:      -8.4      0.000      0.000
REMARK  Name = 445995
REMARK  11 active torsions:
REMARK  status: ('A' for Active; 'I' for Inactive)
REMARK    1  A    between atoms: P_1  and  O_3
REMARK    2  A    between atoms: P_1  and  O_5
REMARK    3  A    between atoms: P_1  and  O_16
REMARK    4  A    between atoms: O_5  and  C_6
REMARK    5  A    between atoms: C_6  and  C_8
REMARK    6  A    between atoms: C_7  and  C_10
REMARK    7  A    between atoms: C_10  and  C_11
REMARK    8  A    between atoms: C_11  and  C_12
REMARK    9  A    between atoms: O_16  and  P_17
REMARK   10  A    between atoms: P_17  and  O_19
REMARK   11  A    between atoms: P_17  and  O_21
REMARK                            x       y       z     vdW  Elec       q    Type
REMARK                         _______ _______ _______ _____ _____    ______ ____
ROOT
ATOM      1  P   UNL     1      37.707 -24.740 -12.692  0.00  0.00    +0.484 P 
ATOM      2  O   UNL     1      37.680 -24.357 -11.240  0.00  0.00    -0.227 OA
ENDROOT
BRANCH   1   3
ATOM      3  O   UNL     1      36.579 -25.820 -13.117  0.00  0.00    -0.302 OA
ATOM      4  H   UNL     1      35.944 -25.926 -12.392  0.00  0.00    +0.222 HD
ENDBRANCH   1   3
BRANCH   1   5
ATOM      5  O   UNL     1      37.496 -23.510 -13.717  0.00  0.00    -0.268 OA
BRANCH   5   6
ATOM      6  C   UNL     1      36.414 -23.532 -14.638  0.00  0.00    +0.179 C 
BRANCH   6   8
ATOM      7  C   UNL     1      36.027 -22.412 -16.902  0.00  0.00    -0.045 C 
ATOM      8  C   UNL     1      36.794 -22.732 -15.842  0.00  0.00    -0.002 C 
ATOM      9  C   UNL     1      34.594 -22.878 -16.963  0.00  0.00    +0.026 C 
BRANCH   7  10
ATOM     10  C   UNL     1      36.498 -21.621 -18.105  0.00  0.00    +0.026 C 
BRANCH  10  11
ATOM     11  C   UNL     1      35.695 -21.899 -19.382  0.00  0.00    +0.030 C 
BRANCH  11  12
ATOM     12  C   UNL     1      35.558 -20.682 -20.256  0.00  0.00    -0.034 C 
ATOM     13  C   UNL     1      34.430 -20.052 -20.632  0.00  0.00    -0.048 C 
ATOM     14  C   UNL     1      34.497 -18.842 -21.526  0.00  0.00    +0.026 C 
ATOM     15  C   UNL     1      33.038 -20.440 -20.220  0.00  0.00    +0.026 C 
ENDBRANCH  11  12
ENDBRANCH  10  11
ENDBRANCH   7  10
ENDBRANCH   6   8
ENDBRANCH   5   6
ENDBRANCH   1   5
BRANCH   1  16
ATOM     16  O   UNL     1      39.086 -25.437 -13.167  0.00  0.00    -0.186 OA
BRANCH  16  17
ATOM     17  P   UNL     1      39.644 -25.783 -14.644  0.00  0.00    +0.481 P 
ATOM     18  O   UNL     1      40.904 -26.596 -14.661  0.00  0.00    -0.227 OA
BRANCH  17  19
ATOM     19  O   UNL     1      39.752 -24.331 -15.346  0.00  0.00    -0.302 OA
ATOM     20  H   UNL     1      38.860 -23.984 -15.508  0.00  0.00    +0.222 HD
ENDBRANCH  17  19
BRANCH  17  21
ATOM     21  O   UNL     1      38.372 -26.463 -15.374  0.00  0.00    -0.302 OA
ATOM     22  H   UNL     1      38.333 -26.167 -16.297  0.00  0.00    +0.222 HD
ENDBRANCH  17  21
ENDBRANCH  16  17
ENDBRANCH   1  16
TORSDOF 11
ENDMDL
MODEL 2
REMARK VINA RESULT:      -8.4      1.511      2.137
REMARK  Name = 445995
REMARK  11 active torsions:
REMARK  status: ('A' for Active; 'I' for Inactive)
REMARK    1  A    between atoms: P_1  and  O_3
REMARK    2  A    between atoms: P_1  and  O_5
REMARK    3  A    between atoms: P_1  and  O_16
REMARK    4  A    between atoms: O_5  and  C_6
REMARK    5  A    between atoms: C_6  and  C_8
REMARK    6  A    between atoms: C_7  and  C_10
REMARK    7  A    between atoms: C_10  and  C_11
REMARK    8  A    between atoms: C_11  and  C_12
REMARK    9  A    between atoms: O_16  and  P_17
REMARK   10  A    between atoms: P_17  and  O_19
REMARK   11  A    between atoms: P_17  and  O_21
REMARK                            x       y       z     vdW  Elec       q    Type
REMARK                         _______ _______ _______ _____ _____    ______ ____
ROOT
ATOM      1  P   UNL     1      37.221 -26.183 -14.301  0.00  0.00    +0.484 P 
ATOM      2  O   UNL     1      36.769 -25.971 -12.885  0.00  0.00    -0.227 OA
ENDROOT
BRANCH   1   3
ATOM      3  O   UNL     1      36.331 -27.248 -15.133  0.00  0.00    -0.302 OA
ATOM      4  H   UNL     1      36.614 -28.149 -14.910  0.00  0.00    +0.222 HD
ENDBRANCH   1   3
BRANCH   1   5
ATOM      5  O   UNL     1      37.219 -24.851 -15.216  0.00  0.00    -0.268 OA
BRANCH   5   6
ATOM      6  C   UNL     1      36.471 -23.714 -14.807  0.00  0.00    +0.179 C 
BRANCH   6   8
ATOM      7  C   UNL     1      34.149 -23.434 -15.839  0.00  0.00    -0.045 C 
ATOM      8  C   UNL     1      35.494 -23.372 -15.887  0.00  0.00    -0.002 C 
ATOM      9  C   UNL     1      33.460 -23.895 -14.579  0.00  0.00    +0.026 C 
BRANCH   7  10
ATOM     10  C   UNL     1      33.225 -23.101 -16.992  0.00  0.00    +0.026 C 
BRANCH  10  11
ATOM     11  C   UNL     1      33.958 -22.789 -18.303  0.00  0.00    +0.030 C 
BRANCH  11  12
ATOM     12  C   UNL     1      33.231 -21.777 -19.145  0.00  0.00    -0.034 C 
ATOM     13  C   UNL     1      33.756 -20.841 -19.958  0.00  0.00    -0.048 C 
ATOM     14  C   UNL     1      32.856 -19.905 -20.720  0.00  0.00    +0.026 C 
ATOM     15  C   UNL     1      35.222 -20.632 -20.210  0.00  0.00    +0.026 C 
ENDBRANCH  11  12
ENDBRANCH  10  11
ENDBRANCH   7  10
ENDBRANCH   6   8
ENDBRANCH   5   6
ENDBRANCH   1   5
BRANCH   1  16
ATOM     16  O   UNL     1      38.722 -26.768 -14.436  0.00  0.00    -0.186 OA
BRANCH  16  17
ATOM     17  P   UNL     1      40.148 -26.016 -14.540  0.00  0.00    +0.481 P 
ATOM     18  O   UNL     1      41.312 -26.810 -14.028  0.00  0.00    -0.227 OA
BRANCH  17  19
ATOM     19  O   UNL     1      39.880 -24.615 -13.777  0.00  0.00    -0.302 OA
ATOM     20  H   UNL     1      40.674 -24.363 -13.278  0.00  0.00    +0.222 HD
ENDBRANCH  17  19
BRANCH  17  21
ATOM     21  O   UNL     1      40.233 -25.588 -16.096  0.00  0.00    -0.302 OA
ATOM     22  H   UNL     1      40.009 -24.648 -16.186  0.00  0.00    +0.222 HD
ENDBRANCH  17  21
ENDBRANCH  16  17
ENDBRANCH   1  16
TORSDOF 11
ENDMDL
MODEL 3
REMARK VINA RESULT:      -8.2      1.460      2.144
REMARK  Name = 445995
REMARK  11 active torsions:
REMARK  status: ('A' for Active; 'I' for Inactive)
REMARK    1  A    between atoms: P_1  and  O_3
REMARK    2  A    between atoms: P_1  and  O_5
REMARK    3  A    between atoms: P_1  and  O_16
REMARK    4  A    between atoms: O_5  and  C_6
REMARK    5  A    between atoms: C_6  and  C_8
REMARK    6  A    between atoms: C_7  and  C_10
REMARK    7  A    between atoms: C_10  and  C_11
REMARK    8  A    between atoms: C_11  and  C_12
REMARK    9  A    between atoms: O_16  and  P_17
REMARK   10  A    between atoms: P_17  and  O_19
REMARK   11  A    between atoms: P_17  and  O_21
REMARK                            x       y       z     vdW  Elec       q    Type
REMARK                         _______ _______ _______ _____ _____    ______ ____
ROOT
ATOM      1  P   UNL     1      37.364 -25.045 -12.617  0.00  0.00    +0.484 P 
ATOM      2  O   UNL     1      37.259 -24.427 -11.253  0.00  0.00    -0.227 OA
ENDROOT
BRANCH   1   3
ATOM      3  O   UNL     1      36.819 -26.566 -12.703  0.00  0.00    -0.302 OA
ATOM      4  H   UNL     1      35.872 -26.582 -12.498  0.00  0.00    +0.222 HD
ENDBRANCH   1   3
BRANCH   1   5
ATOM      5  O   UNL     1      36.558 -24.260 -13.776  0.00  0.00    -0.268 OA
BRANCH   5   6
ATOM      6  C   UNL     1      35.163 -24.027 -13.636  0.00  0.00    +0.179 C 
BRANCH   6   8
ATOM      7  C   UNL     1      33.304 -23.514 -15.313  0.00  0.00    -0.045 C 
ATOM      8  C   UNL     1      34.567 -23.860 -14.997  0.00  0.00    -0.002 C 
ATOM      9  C   UNL     1      32.301 -23.244 -14.220  0.00  0.00    +0.026 C 
BRANCH   7  10
ATOM     10  C   UNL     1      32.766 -23.397 -16.723  0.00  0.00    +0.026 C 
BRANCH  10  11
ATOM     11  C   UNL     1      33.830 -23.022 -17.763  0.00  0.00    +0.030 C 
BRANCH  11  12
ATOM     12  C   UNL     1      33.323 -22.034 -18.778  0.00  0.00    -0.034 C 
ATOM     13  C   UNL     1      34.040 -21.268 -19.621  0.00  0.00    -0.048 C 
ATOM     14  C   UNL     1      33.346 -20.324 -20.567  0.00  0.00    +0.026 C 
ATOM     15  C   UNL     1      35.538 -21.266 -19.734  0.00  0.00    +0.026 C 
ENDBRANCH  11  12
ENDBRANCH  10  11
ENDBRANCH   7  10
ENDBRANCH   6   8
ENDBRANCH   5   6
ENDBRANCH   1   5
BRANCH   1  16
ATOM     16  O   UNL     1      38.876 -25.161 -13.177  0.00  0.00    -0.186 OA
BRANCH  16  17
ATOM     17  P   UNL     1      39.437 -25.416 -14.671  0.00  0.00    +0.481 P 
ATOM     18  O   UNL     1      40.853 -25.905 -14.732  0.00  0.00    -0.227 OA
BRANCH  17  19
ATOM     19  O   UNL     1      39.162 -24.005 -15.412  0.00  0.00    -0.302 OA
ATOM     20  H   UNL     1      38.983 -24.165 -16.353  0.00  0.00    +0.222 HD
ENDBRANCH  17  19
BRANCH  17  21
ATOM     21  O   UNL     1      38.335 -26.405 -15.320  0.00  0.00    -0.302 OA
ATOM     22  H   UNL     1      37.493 -25.933 -15.416  0.00  0.00    +0.222 HD
ENDBRANCH  17  21
ENDBRANCH  16  17
ENDBRANCH   1  16
TORSDOF 11
ENDMDL
MODEL 4
REMARK VINA RESULT:      -8.0      1.505      2.462
REMARK  Name = 445995
REMARK  11 active torsions:
REMARK  status: ('A' for Active; 'I' for Inactive)
REMARK    1  A    between atoms: P_1  and  O_3
REMARK    2  A    between atoms: P_1  and  O_5
REMARK    3  A    between atoms: P_1  and  O_16
REMARK    4  A    between atoms: O_5  and  C_6
REMARK    5  A    between atoms: C_6  and  C_8
REMARK    6  A    between atoms: C_7  and  C_10
REMARK    7  A    between atoms: C_10  and  C_11
REMARK    8  A    between atoms: C_11  and  C_12
REMARK    9  A    between atoms: O_16  and  P_17
REMARK   10  A    between atoms: P_17  and  O_19
REMARK   11  A    between atoms: P_17  and  O_21
REMARK                            x       y       z     vdW  Elec       q    Type
REMARK                         _______ _______ _______ _____ _____    ______ ____
ROOT
ATOM      1  P   UNL     1      37.452 -23.882 -14.816  0.00  0.00    +0.484 P 
ATOM      2  O   UNL     1      36.834 -23.575 -13.482  0.00  0.00    -0.227 OA
ENDROOT
BRANCH   1   3
ATOM      3  O   UNL     1      36.765 -25.121 -15.599  0.00  0.00    -0.302 OA
ATOM      4  H   UNL     1      37.446 -25.768 -15.839  0.00  0.00    +0.222 HD
ENDBRANCH   1   3
BRANCH   1   5
ATOM      5  O   UNL     1      37.413 -22.662 -15.874  0.00  0.00    -0.268 OA
BRANCH   5   6
ATOM      6  C   UNL     1      36.249 -22.443 -16.659  0.00  0.00    +0.179 C 
BRANCH   6   8
ATOM      7  C   UNL     1      35.914 -21.431 -18.982  0.00  0.00    -0.045 C 
ATOM      8  C   UNL     1      36.627 -21.630 -17.856  0.00  0.00    -0.002 C 
ATOM      9  C   UNL     1      34.557 -22.069 -19.138  0.00  0.00    +0.026 C 
BRANCH   7  10
ATOM     10  C   UNL     1      36.382 -20.617 -20.170  0.00  0.00    +0.026 C 
BRANCH  10  11
ATOM     11  C   UNL     1      35.247 -20.166 -21.098  0.00  0.00    +0.030 C 
BRANCH  11  12
ATOM     12  C   UNL     1      35.126 -18.669 -21.179  0.00  0.00    -0.034 C 
ATOM     13  C   UNL     1      35.067 -17.899 -22.281  0.00  0.00    -0.048 C 
ATOM     14  C   UNL     1      34.954 -16.402 -22.158  0.00  0.00    +0.026 C 
ATOM     15  C   UNL     1      35.088 -18.402 -23.696  0.00  0.00    +0.026 C 
ENDBRANCH  11  12
ENDBRANCH  10  11
ENDBRANCH   7  10
ENDBRANCH   6   8
ENDBRANCH   5   6
ENDBRANCH   1   5
BRANCH   1  16
ATOM     16  O   UNL     1      39.009 -24.309 -14.740  0.00  0.00    -0.186 OA
BRANCH  16  17
ATOM     17  P   UNL     1      39.711 -25.764 -14.755  0.00  0.00    +0.481 P 
ATOM     18  O   UNL     1      38.807 -26.899 -14.376  0.00  0.00    -0.227 OA
BRANCH  17  19
ATOM     19  O   UNL     1      40.998 -25.560 -13.796  0.00  0.00    -0.302 OA
ATOM     20  H   UNL     1      41.168 -24.612 -13.682  0.00  0.00    +0.222 HD
ENDBRANCH  17  19
BRANCH  17  21
ATOM     21  O   UNL     1      40.353 -25.855 -16.235  0.00  0.00    -0.302 OA
ATOM     22  H   UNL     1      41.072 -26.507 -16.237  0.00  0.00    +0.222 HD
ENDBRANCH  17  21
ENDBRANCH  16  17
ENDBRANCH   1  16
TORSDOF 11
ENDMDL
MODEL 5
REMARK VINA RESULT:      -8.0      3.228      4.448
REMARK  Name = 445995
REMARK  11 active torsions:
REMARK  status: ('A' for Active; 'I' for Inactive)
REMARK    1  A    between atoms: P_1  and  O_3
REMARK    2  A    between atoms: P_1  and  O_5
REMARK    3  A    between atoms: P_1  and  O_16
REMARK    4  A    between atoms: O_5  and  C_6
REMARK    5  A    between atoms: C_6  and  C_8
REMARK    6  A    between atoms: C_7  and  C_10
REMARK    7  A    between atoms: C_10  and  C_11
REMARK    8  A    between atoms: C_11  and  C_12
REMARK    9  A    between atoms: O_16  and  P_17
REMARK   10  A    between atoms: P_17  and  O_19
REMARK   11  A    between atoms: P_17  and  O_21
REMARK                            x       y       z     vdW  Elec       q    Type
REMARK                         _______ _______ _______ _____ _____    ______ ____
ROOT
ATOM      1  P   UNL     1      37.205 -26.126 -14.334  0.00  0.00    +0.484 P 
ATOM      2  O   UNL     1      36.923 -25.822 -12.890  0.00  0.00    -0.227 OA
ENDROOT
BRANCH   1   3
ATOM      3  O   UNL     1      36.209 -27.218 -14.992  0.00  0.00    -0.302 OA
ATOM      4  H   UNL     1      35.301 -27.044 -14.700  0.00  0.00    +0.222 HD
ENDBRANCH   1   3
BRANCH   1   5
ATOM      5  O   UNL     1      37.118 -24.851 -15.320  0.00  0.00    -0.268 OA
BRANCH   5   6
ATOM      6  C   UNL     1      36.552 -23.633 -14.855  0.00  0.00    +0.179 C 
BRANCH   6   8
ATOM      7  C   UNL     1      34.023 -23.624 -15.224  0.00  0.00    -0.045 C 
ATOM      8  C   UNL     1      35.289 -23.373 -15.611  0.00  0.00    -0.002 C 
ATOM      9  C   UNL     1      33.757 -24.243 -13.875  0.00  0.00    +0.026 C 
BRANCH   7  10
ATOM     10  C   UNL     1      32.792 -23.361 -16.065  0.00  0.00    +0.026 C 
BRANCH  10  11
ATOM     11  C   UNL     1      31.586 -22.861 -15.259  0.00  0.00    +0.030 C 
BRANCH  11  12
ATOM     12  C   UNL     1      30.291 -22.991 -16.014  0.00  0.00    -0.034 C 
ATOM     13  C   UNL     1      29.390 -23.988 -15.952  0.00  0.00    -0.048 C 
ATOM     14  C   UNL     1      28.146 -23.943 -16.799  0.00  0.00    +0.026 C 
ATOM     15  C   UNL     1      29.492 -25.198 -15.067  0.00  0.00    +0.026 C 
ENDBRANCH  11  12
ENDBRANCH  10  11
ENDBRANCH   7  10
ENDBRANCH   6   8
ENDBRANCH   5   6
ENDBRANCH   1   5
BRANCH   1  16
ATOM     16  O   UNL     1      38.671 -26.752 -14.603  0.00  0.00    -0.186 OA
BRANCH  16  17
ATOM     17  P   UNL     1      40.134 -26.067 -14.593  0.00  0.00    +0.481 P 
ATOM     18  O   UNL     1      41.191 -26.860 -13.884  0.00  0.00    -0.227 OA
BRANCH  17  19
ATOM     19  O   UNL     1      39.848 -24.598 -13.980  0.00  0.00    -0.302 OA
ATOM     20  H   UNL     1      40.683 -24.107 -13.915  0.00  0.00    +0.222 HD
ENDBRANCH  17  19
BRANCH  17  21
ATOM     21  O   UNL     1      40.421 -25.774 -16.157  0.00  0.00    -0.302 OA
ATOM     22  H   UNL     1      40.304 -24.828 -16.336  0.00  0.00    +0.222 HD
ENDBRANCH  17  21
ENDBRANCH  16  17
ENDBRANCH   1  16
TORSDOF 11
ENDMDL
MODEL 6
REMARK VINA RESULT:      -7.9      1.392      2.974
REMARK  Name = 445995
REMARK  11 active torsions:
REMARK  status: ('A' for Active; 'I' for Inactive)
REMARK    1  A    between atoms: P_1  and  O_3
REMARK    2  A    between atoms: P_1  and  O_5
REMARK    3  A    between atoms: P_1  and  O_16
REMARK    4  A    between atoms: O_5  and  C_6
REMARK    5  A    between atoms: C_6  and  C_8
REMARK    6  A    between atoms: C_7  and  C_10
REMARK    7  A    between atoms: C_10  and  C_11
REMARK    8  A    between atoms: C_11  and  C_12
REMARK    9  A    between atoms: O_16  and  P_17
REMARK   10  A    between atoms: P_17  and  O_19
REMARK   11  A    between atoms: P_17  and  O_21
REMARK                            x       y       z     vdW  Elec       q    Type
REMARK                         _______ _______ _______ _____ _____    ______ ____
ROOT
ATOM      1  P   UNL     1      37.200 -25.109 -14.686  0.00  0.00    +0.484 P 
ATOM      2  O   UNL     1      37.731 -26.445 -15.119  0.00  0.00    -0.227 OA
ENDROOT
BRANCH   1   3
ATOM      3  O   UNL     1      38.344 -24.020 -14.334  0.00  0.00    -0.302 OA
ATOM      4  H   UNL     1      38.540 -23.492 -15.123  0.00  0.00    +0.222 HD
ENDBRANCH   1   3
BRANCH   1   5
ATOM      5  O   UNL     1      36.259 -24.373 -15.773  0.00  0.00    -0.268 OA
BRANCH   5   6
ATOM      6  C   UNL     1      35.964 -22.990 -15.633  0.00  0.00    +0.179 C 
BRANCH   6   8
ATOM      7  C   UNL     1      35.976 -22.000 -17.989  0.00  0.00    -0.045 C 
ATOM      8  C   UNL     1      36.549 -22.256 -16.797  0.00  0.00    -0.002 C 
ATOM      9  C   UNL     1      34.573 -22.476 -18.269  0.00  0.00    +0.026 C 
BRANCH   7  10
ATOM     10  C   UNL     1      36.649 -21.275 -19.136  0.00  0.00    +0.026 C 
BRANCH  10  11
ATOM     11  C   UNL     1      35.803 -21.217 -20.414  0.00  0.00    +0.030 C 
BRANCH  11  12
ATOM     12  C   UNL     1      35.449 -19.809 -20.809  0.00  0.00    -0.034 C 
ATOM     13  C   UNL     1      34.226 -19.259 -20.918  0.00  0.00    -0.048 C 
ATOM     14  C   UNL     1      34.073 -17.821 -21.339  0.00  0.00    +0.026 C 
ATOM     15  C   UNL     1      32.928 -19.961 -20.634  0.00  0.00    +0.026 C 
ENDBRANCH  11  12
ENDBRANCH  10  11
ENDBRANCH   7  10
ENDBRANCH   6   8
ENDBRANCH   5   6
ENDBRANCH   1   5
BRANCH   1  16
ATOM     16  O   UNL     1      36.308 -25.157 -13.339  0.00  0.00    -0.186 OA
BRANCH  16  17
ATOM     17  P   UNL     1      36.535 -24.477 -11.891  0.00  0.00    +0.481 P 
ATOM     18  O   UNL     1      37.909 -24.666 -11.321  0.00  0.00    -0.227 OA
BRANCH  17  19
ATOM     19  O   UNL     1      35.331 -25.090 -11.003  0.00  0.00    -0.302 OA
ATOM     20  H   UNL     1      34.657 -24.407 -10.859  0.00  0.00    +0.222 HD
ENDBRANCH  17  19
BRANCH  17  21
ATOM     21  O   UNL     1      36.089 -22.941 -12.125  0.00  0.00    -0.302 OA
ATOM     22  H   UNL     1      36.205 -22.441 -11.302  0.00  0.00    +0.222 HD
ENDBRANCH  17  21
ENDBRANCH  16  17
ENDBRANCH   1  16
TORSDOF 11
ENDMDL
MODEL 7
REMARK VINA RESULT:      -7.8      2.390      3.886
REMARK  Name = 445995
REMARK  11 active torsions:
REMARK  status: ('A' for Active; 'I' for Inactive)
REMARK    1  A    between atoms: P_1  and  O_3
REMARK    2  A    between atoms: P_1  and  O_5
REMARK    3  A    between atoms: P_1  and  O_16
REMARK    4  A    between atoms: O_5  and  C_6
REMARK    5  A    between atoms: C_6  and  C_8
REMARK    6  A    between atoms: C_7  and  C_10
REMARK    7  A    between atoms: C_10  and  C_11
REMARK    8  A    between atoms: C_11  and  C_12
REMARK    9  A    between atoms: O_16  and  P_17
REMARK   10  A    between atoms: P_17  and  O_19
REMARK   11  A    between atoms: P_17  and  O_21
REMARK                            x       y       z     vdW  Elec       q    Type
REMARK                         _______ _______ _______ _____ _____    ______ ____
ROOT
ATOM      1  P   UNL     1      35.371 -23.202 -15.756  0.00  0.00    +0.484 P 
ATOM      2  O   UNL     1      36.574 -22.495 -16.309  0.00  0.00    -0.227 OA
ENDROOT
BRANCH   1   3
ATOM      3  O   UNL     1      35.093 -22.916 -14.188  0.00  0.00    -0.302 OA
ATOM      4  H   UNL     1      35.115 -23.753 -13.698  0.00  0.00    +0.222 HD
ENDBRANCH   1   3
BRANCH   1   5
ATOM      5  O   UNL     1      33.979 -22.836 -16.488  0.00  0.00    -0.268 OA
BRANCH   5   6
ATOM      6  C   UNL     1      33.700 -23.357 -17.781  0.00  0.00    +0.179 C 
BRANCH   6   8
ATOM      7  C   UNL     1      34.026 -21.476 -19.480  0.00  0.00    -0.045 C 
ATOM      8  C   UNL     1      33.265 -22.233 -18.665  0.00  0.00    -0.002 C 
ATOM      9  C   UNL     1      35.510 -21.725 -19.571  0.00  0.00    +0.026 C 
BRANCH   7  10
ATOM     10  C   UNL     1      33.514 -20.328 -20.324  0.00  0.00    +0.026 C 
BRANCH  10  11
ATOM     11  C   UNL     1      34.625 -19.474 -20.949  0.00  0.00    +0.030 C 
BRANCH  11  12
ATOM     12  C   UNL     1      34.512 -19.384 -22.446  0.00  0.00    -0.034 C 
ATOM     13  C   UNL     1      34.775 -18.328 -23.238  0.00  0.00    -0.048 C 
ATOM     14  C   UNL     1      34.592 -18.430 -24.729  0.00  0.00    +0.026 C 
ATOM     15  C   UNL     1      35.274 -16.992 -22.766  0.00  0.00    +0.026 C 
ENDBRANCH  11  12
ENDBRANCH  10  11
ENDBRANCH   7  10
ENDBRANCH   6   8
ENDBRANCH   5   6
ENDBRANCH   1   5
BRANCH   1  16
ATOM     16  O   UNL     1      35.460 -24.814 -15.829  0.00  0.00    -0.186 OA
BRANCH  16  17
ATOM     17  P   UNL     1      36.505 -25.850 -15.160  0.00  0.00    +0.481 P 
ATOM     18  O   UNL     1      36.513 -27.216 -15.778  0.00  0.00    -0.227 OA
BRANCH  17  19
ATOM     19  O   UNL     1      36.113 -25.806 -13.592  0.00  0.00    -0.302 OA
ATOM     20  H   UNL     1      35.997 -24.883 -13.314  0.00  0.00    +0.222 HD
ENDBRANCH  17  19
BRANCH  17  21
ATOM     21  O   UNL     1      37.910 -25.054 -15.221  0.00  0.00    -0.302 OA
ATOM     22  H   UNL     1      38.129 -24.853 -16.144  0.00  0.00    +0.222 HD
ENDBRANCH  17  21
ENDBRANCH  16  17
ENDBRANCH   1  16
TORSDOF 11
ENDMDL
MODEL 8
REMARK VINA RESULT:      -7.7      6.221      7.387
REMARK  Name = 445995
REMARK  11 active torsions:
REMARK  status: ('A' for Active; 'I' for Inactive)
REMARK    1  A    between atoms: P_1  and  O_3
REMARK    2  A    between atoms: P_1  and  O_5
REMARK    3  A    between atoms: P_1  and  O_16
REMARK    4  A    between atoms: O_5  and  C_6
REMARK    5  A    between atoms: C_6  and  C_8
REMARK    6  A    between atoms: C_7  and  C_10
REMARK    7  A    between atoms: C_10  and  C_11
REMARK    8  A    between atoms: C_11  and  C_12
REMARK    9  A    between atoms: O_16  and  P_17
REMARK   10  A    between atoms: P_17  and  O_19
REMARK   11  A    between atoms: P_17  and  O_21
REMARK                            x       y       z     vdW  Elec       q    Type
REMARK                         _______ _______ _______ _____ _____    ______ ____
ROOT
ATOM      1  P   UNL     1      30.645 -23.128 -16.133  0.00  0.00    +0.484 P 
ATOM      2  O   UNL     1      30.546 -24.625 -16.068  0.00  0.00    -0.227 OA
ENDROOT
BRANCH   1   3
ATOM      3  O   UNL     1      30.656 -22.398 -14.690  0.00  0.00    -0.302 OA
ATOM      4  H   UNL     1      30.890 -21.463 -14.802  0.00  0.00    +0.222 HD
ENDBRANCH   1   3
BRANCH   1   5
ATOM      5  O   UNL     1      31.966 -22.572 -16.879  0.00  0.00    -0.268 OA
BRANCH   5   6
ATOM      6  C   UNL     1      33.011 -23.469 -17.229  0.00  0.00    +0.179 C 
BRANCH   6   8
ATOM      7  C   UNL     1      35.272 -22.365 -17.680  0.00  0.00    -0.045 C 
ATOM      8  C   UNL     1      34.026 -22.727 -18.040  0.00  0.00    -0.002 C 
ATOM      9  C   UNL     1      35.790 -22.711 -16.307  0.00  0.00    +0.026 C 
BRANCH   7  10
ATOM     10  C   UNL     1      36.232 -21.582 -18.551  0.00  0.00    +0.026 C 
BRANCH  10  11
ATOM     11  C   UNL     1      35.880 -21.613 -20.044  0.00  0.00    +0.030 C 
BRANCH  11  12
ATOM     12  C   UNL     1      35.581 -20.245 -20.595  0.00  0.00    -0.034 C 
ATOM     13  C   UNL     1      34.379 -19.664 -20.771  0.00  0.00    -0.048 C 
ATOM     14  C   UNL     1      34.282 -18.278 -21.350  0.00  0.00    +0.026 C 
ATOM     15  C   UNL     1      33.056 -20.281 -20.417  0.00  0.00    +0.026 C 
ENDBRANCH  11  12
ENDBRANCH  10  11
ENDBRANCH   7  10
ENDBRANCH   6   8
ENDBRANCH   5   6
ENDBRANCH   1   5
BRANCH   1  16
ATOM     16  O   UNL     1      29.413 -22.416 -16.900  0.00  0.00    -0.186 OA
BRANCH  16  17
ATOM     17  P   UNL     1      27.832 -22.750 -16.904  0.00  0.00    +0.481 P 
ATOM     18  O   UNL     1      27.459 -24.003 -17.638  0.00  0.00    -0.227 OA
BRANCH  17  19
ATOM     19  O   UNL     1      27.171 -21.391 -17.481  0.00  0.00    -0.302 OA
ATOM     20  H   UNL     1      26.742 -20.908 -16.756  0.00  0.00    +0.222 HD
ENDBRANCH  17  19
BRANCH  17  21
ATOM     21  O   UNL     1      27.440 -22.724 -15.336  0.00  0.00    -0.302 OA
ATOM     22  H   UNL     1      26.479 -22.632 -15.244  0.00  0.00    +0.222 HD
ENDBRANCH  17  21
ENDBRANCH  16  17
ENDBRANCH   1  16
TORSDOF 11
ENDMDL
MODEL 9
REMARK VINA RESULT:      -7.6      1.861      2.530
REMARK  Name = 445995
REMARK  11 active torsions:
REMARK  status: ('A' for Active; 'I' for Inactive)
REMARK    1  A    between atoms: P_1  and  O_3
REMARK    2  A    between atoms: P_1  and  O_5
REMARK    3  A    between atoms: P_1  and  O_16
REMARK    4  A    between atoms: O_5  and  C_6
REMARK    5  A    between atoms: C_6  and  C_8
REMARK    6  A    between atoms: C_7  and  C_10
REMARK    7  A    between atoms: C_10  and  C_11
REMARK    8  A    between atoms: C_11  and  C_12
REMARK    9  A    between atoms: O_16  and  P_17
REMARK   10  A    between atoms: P_17  and  O_19
REMARK   11  A    between atoms: P_17  and  O_21
REMARK                            x       y       z     vdW  Elec       q    Type
REMARK                         _______ _______ _______ _____ _____    ______ ____
ROOT
ATOM      1  P   UNL     1      35.314 -24.086 -13.810  0.00  0.00    +0.484 P 
ATOM      2  O   UNL     1      36.577 -23.287 -13.665  0.00  0.00    -0.227 OA
ENDROOT
BRANCH   1   3
ATOM      3  O   UNL     1      34.665 -24.565 -12.407  0.00  0.00    -0.302 OA
ATOM      4  H   UNL     1      33.703 -24.639 -12.505  0.00  0.00    +0.222 HD
ENDBRANCH   1   3
BRANCH   1   5
ATOM      5  O   UNL     1      34.114 -23.319 -14.571  0.00  0.00    -0.268 OA
BRANCH   5   6
ATOM      6  C   UNL     1      33.940 -23.489 -15.971  0.00  0.00    +0.179 C 
BRANCH   6   8
ATOM      7  C   UNL     1      35.051 -22.336 -17.963  0.00  0.00    -0.045 C 
ATOM      8  C   UNL     1      35.029 -22.751 -16.681  0.00  0.00    -0.002 C 
ATOM      9  C   UNL     1      33.874 -22.608 -18.864  0.00  0.00    +0.026 C 
BRANCH   7  10
ATOM     10  C   UNL     1      36.212 -21.618 -18.621  0.00  0.00    +0.026 C 
BRANCH  10  11
ATOM     11  C   UNL     1      36.050 -21.438 -20.136  0.00  0.00    +0.030 C 
BRANCH  11  12
ATOM     12  C   UNL     1      36.108 -19.994 -20.556  0.00  0.00    -0.034 C 
ATOM     13  C   UNL     1      35.088 -19.190 -20.908  0.00  0.00    -0.048 C 
ATOM     14  C   UNL     1      35.349 -17.763 -21.310  0.00  0.00    +0.026 C 
ATOM     15  C   UNL     1      33.638 -19.583 -20.930  0.00  0.00    +0.026 C 
ENDBRANCH  11  12
ENDBRANCH  10  11
ENDBRANCH   7  10
ENDBRANCH   6   8
ENDBRANCH   5   6
ENDBRANCH   1   5
BRANCH   1  16
ATOM     16  O   UNL     1      35.497 -25.470 -14.625  0.00  0.00    -0.186 OA
BRANCH  16  17
ATOM     17  P   UNL     1      36.819 -26.335 -14.962  0.00  0.00    +0.481 P 
ATOM     18  O   UNL     1      36.684 -27.249 -16.144  0.00  0.00    -0.227 OA
BRANCH  17  19
ATOM     19  O   UNL     1      37.146 -27.068 -13.558  0.00  0.00    -0.302 OA
ATOM     20  H   UNL     1      37.427 -26.406 -12.906  0.00  0.00    +0.222 HD
ENDBRANCH  17  19
BRANCH  17  21
ATOM     21  O   UNL     1      37.978 -25.215 -15.083  0.00  0.00    -0.302 OA
ATOM     22  H   UNL     1      38.590 -25.458 -15.795  0.00  0.00    +0.222 HD
ENDBRANCH  17  21
ENDBRANCH  16  17
ENDBRANCH   1  16
TORSDOF 11
ENDMDL
