MODEL 1
REMARK VINA RESULT:      -7.9      0.000      0.000
REMARK  Name = 439693
REMARK  5 active torsions:
REMARK  status: ('A' for Active; 'I' for Inactive)
REMARK    1  A    between atoms: N_1  and  C1*_13
REMARK    2  A    between atoms: C_8  and  O_22
REMARK    3  A    between atoms: C3*_15  and  O3*_17
REMARK    4  A    between atoms: C4*_16  and  C5*_19
REMARK    5  A    between atoms: C5*_19  and  O5*_20
REMARK                            x       y       z     vdW  Elec       q    Type
REMARK                         _______ _______ _______ _____ _____    ______ ____
ROOT
ATOM      1  N   UNL     1      35.322 -23.056 -15.707  0.00  0.00    -0.210 NA
ATOM      2  N   UNL     1      33.309 -23.482 -16.556  0.00  0.00    -0.255 NA
ATOM      3  N   UNL     1      36.434 -22.054 -17.559  0.00  0.00    -0.301 N 
ATOM      4  N   UNL     1      35.615 -21.287 -19.745  0.00  0.00    -0.251 NA
ATOM      5  C   UNL     1      35.347 -22.609 -16.994  0.00  0.00    +0.175 C 
ATOM      6  C   UNL     1      34.101 -22.882 -17.505  0.00  0.00    +0.095 C 
ATOM      7  C   UNL     1      34.073 -23.573 -15.488  0.00  0.00    +0.204 C 
ATOM      8  C   UNL     1      33.623 -22.594 -18.880  0.00  0.00    +0.173 C 
ATOM      9  C   UNL     1      34.181 -21.277 -19.426  0.00  0.00    +0.162 C 
ATOM     10  C   UNL     1      36.493 -21.591 -18.858  0.00  0.00    +0.157 C 
ATOM     11  H   UNL     1      37.245 -21.972 -17.007  0.00  0.00    +0.150 HD
ENDROOT
BRANCH   1  13
ATOM     12  O4* UNL     1      37.512 -23.801 -15.180  0.00  0.00    -0.338 OA
ATOM     13  C1* UNL     1      36.400 -23.011 -14.725  0.00  0.00    +0.182 C 
ATOM     14  C2* UNL     1      36.017 -23.543 -13.351  0.00  0.00    +0.079 C 
ATOM     15  C3* UNL     1      37.360 -23.976 -12.807  0.00  0.00    +0.144 C 
ATOM     16  C4* UNL     1      38.089 -24.484 -14.047  0.00  0.00    +0.173 C 
BRANCH  15  17
ATOM     17  O3* UNL     1      38.031 -22.827 -12.296  0.00  0.00    -0.382 OA
ATOM     18  H3* UNL     1      37.386 -22.235 -11.877  0.00  0.00    +0.210 HD
ENDBRANCH  15  17
BRANCH  16  19
ATOM     19  C5* UNL     1      37.913 -25.982 -14.259  0.00  0.00    +0.169 C 
BRANCH  19  20
ATOM     20  O5* UNL     1      37.589 -26.211 -15.619  0.00  0.00    -0.379 OA
ATOM     21  H5* UNL     1      38.381 -26.509 -16.094  0.00  0.00    +0.211 HD
ENDBRANCH  19  20
ENDBRANCH  16  19
ENDBRANCH   1  13
BRANCH   8  22
ATOM     22  O   UNL     1      33.941 -23.647 -19.789  0.00  0.00    -0.377 OA
ATOM     23  H   UNL     1      34.277 -24.410 -19.293  0.00  0.00    +0.211 HD
ENDBRANCH   8  22
TORSDOF 5
ENDMDL
MODEL 2
REMARK VINA RESULT:      -7.8      2.717      4.411
REMARK  Name = 439693
REMARK  5 active torsions:
REMARK  status: ('A' for Active; 'I' for Inactive)
REMARK    1  A    between atoms: N_1  and  C1*_13
REMARK    2  A    between atoms: C_8  and  O_22
REMARK    3  A    between atoms: C3*_15  and  O3*_17
REMARK    4  A    between atoms: C4*_16  and  C5*_19
REMARK    5  A    between atoms: C5*_19  and  O5*_20
REMARK                            x       y       z     vdW  Elec       q    Type
REMARK                         _______ _______ _______ _____ _____    ______ ____
ROOT
ATOM      1  N   UNL     1      34.746 -24.294 -14.864  0.00  0.00    -0.210 NA
ATOM      2  N   UNL     1      33.792 -23.005 -16.408  0.00  0.00    -0.255 NA
ATOM      3  N   UNL     1      32.856 -25.108 -13.667  0.00  0.00    -0.301 N 
ATOM      4  N   UNL     1      30.444 -24.966 -14.115  0.00  0.00    -0.251 NA
ATOM      5  C   UNL     1      33.402 -24.379 -14.657  0.00  0.00    +0.175 C 
ATOM      6  C   UNL     1      32.827 -23.577 -15.613  0.00  0.00    +0.095 C 
ATOM      7  C   UNL     1      34.933 -23.456 -15.932  0.00  0.00    +0.204 C 
ATOM      8  C   UNL     1      31.378 -23.324 -15.806  0.00  0.00    +0.173 C 
ATOM      9  C   UNL     1      30.528 -24.567 -15.527  0.00  0.00    +0.162 C 
ATOM     10  C   UNL     1      31.500 -25.216 -13.429  0.00  0.00    +0.157 C 
ATOM     11  H   UNL     1      33.466 -25.599 -13.071  0.00  0.00    +0.150 HD
ENDROOT
BRANCH   1  13
ATOM     12  O4* UNL     1      35.661 -24.680 -12.710  0.00  0.00    -0.338 OA
ATOM     13  C1* UNL     1      35.810 -24.953 -14.114  0.00  0.00    +0.182 C 
ATOM     14  C2* UNL     1      37.214 -24.511 -14.500  0.00  0.00    +0.079 C 
ATOM     15  C3* UNL     1      37.984 -24.800 -13.231  0.00  0.00    +0.144 C 
ATOM     16  C4* UNL     1      36.971 -24.494 -12.133  0.00  0.00    +0.173 C 
BRANCH  15  17
ATOM     17  O3* UNL     1      38.308 -26.188 -13.208  0.00  0.00    -0.382 OA
ATOM     18  H3* UNL     1      37.927 -26.597 -12.415  0.00  0.00    +0.210 HD
ENDBRANCH  15  17
BRANCH  16  19
ATOM     19  C5* UNL     1      37.066 -23.060 -11.630  0.00  0.00    +0.169 C 
BRANCH  19  20
ATOM     20  O5* UNL     1      38.429 -22.675 -11.610  0.00  0.00    -0.379 OA
ATOM     21  H5* UNL     1      38.687 -22.448 -10.702  0.00  0.00    +0.211 HD
ENDBRANCH  19  20
ENDBRANCH  16  19
ENDBRANCH   1  13
BRANCH   8  22
ATOM     22  O   UNL     1      30.910 -22.248 -14.994  0.00  0.00    -0.377 OA
ATOM     23  H   UNL     1      30.046 -21.950 -15.323  0.00  0.00    +0.211 HD
ENDBRANCH   8  22
TORSDOF 5
ENDMDL
MODEL 3
REMARK VINA RESULT:      -7.7      2.755      3.670
REMARK  Name = 439693
REMARK  5 active torsions:
REMARK  status: ('A' for Active; 'I' for Inactive)
REMARK    1  A    between atoms: N_1  and  C1*_13
REMARK    2  A    between atoms: C_8  and  O_22
REMARK    3  A    between atoms: C3*_15  and  O3*_17
REMARK    4  A    between atoms: C4*_16  and  C5*_19
REMARK    5  A    between atoms: C5*_19  and  O5*_20
REMARK                            x       y       z     vdW  Elec       q    Type
REMARK                         _______ _______ _______ _____ _____    ______ ____
ROOT
ATOM      1  N   UNL     1      33.673 -24.129 -14.242  0.00  0.00    -0.210 NA
ATOM      2  N   UNL     1      31.803 -24.835 -13.262  0.00  0.00    -0.255 NA
ATOM      3  N   UNL     1      32.838 -23.159 -16.250  0.00  0.00    -0.301 N 
ATOM      4  N   UNL     1      30.554 -22.656 -17.004  0.00  0.00    -0.251 NA
ATOM      5  C   UNL     1      32.650 -23.783 -15.074  0.00  0.00    +0.175 C 
ATOM      6  C   UNL     1      31.505 -24.227 -14.459  0.00  0.00    +0.095 C 
ATOM      7  C   UNL     1      33.113 -24.760 -13.163  0.00  0.00    +0.204 C 
ATOM      8  C   UNL     1      30.117 -24.100 -14.967  0.00  0.00    +0.173 C 
ATOM      9  C   UNL     1      29.886 -22.776 -15.701  0.00  0.00    +0.162 C 
ATOM     10  C   UNL     1      31.826 -22.794 -17.115  0.00  0.00    +0.157 C 
ATOM     11  H   UNL     1      33.763 -22.947 -16.513  0.00  0.00    +0.150 HD
ENDROOT
BRANCH   1  13
ATOM     12  O4* UNL     1      35.596 -24.721 -15.499  0.00  0.00    -0.338 OA
ATOM     13  C1* UNL     1      35.100 -23.892 -14.434  0.00  0.00    +0.182 C 
ATOM     14  C2* UNL     1      35.954 -24.193 -13.211  0.00  0.00    +0.079 C 
ATOM     15  C3* UNL     1      37.294 -24.495 -13.842  0.00  0.00    +0.144 C 
ATOM     16  C4* UNL     1      36.915 -25.188 -15.146  0.00  0.00    +0.173 C 
BRANCH  15  17
ATOM     17  O3* UNL     1      37.945 -23.260 -14.129  0.00  0.00    -0.382 OA
ATOM     18  H3* UNL     1      38.851 -23.283 -13.783  0.00  0.00    +0.210 HD
ENDBRANCH  15  17
BRANCH  16  19
ATOM     19  C5* UNL     1      36.858 -26.704 -15.011  0.00  0.00    +0.169 C 
BRANCH  19  20
ATOM     20  O5* UNL     1      36.816 -27.273 -16.307  0.00  0.00    -0.379 OA
ATOM     21  H5* UNL     1      37.586 -26.975 -16.817  0.00  0.00    +0.211 HD
ENDBRANCH  19  20
ENDBRANCH  16  19
ENDBRANCH   1  13
BRANCH   8  22
ATOM     22  O   UNL     1      29.761 -25.179 -15.829  0.00  0.00    -0.377 OA
ATOM     23  H   UNL     1      30.534 -25.439 -16.356  0.00  0.00    +0.211 HD
ENDBRANCH   8  22
TORSDOF 5
ENDMDL
MODEL 4
REMARK VINA RESULT:      -7.7      2.954      4.588
REMARK  Name = 439693
REMARK  5 active torsions:
REMARK  status: ('A' for Active; 'I' for Inactive)
REMARK    1  A    between atoms: N_1  and  C1*_13
REMARK    2  A    between atoms: C_8  and  O_22
REMARK    3  A    between atoms: C3*_15  and  O3*_17
REMARK    4  A    between atoms: C4*_16  and  C5*_19
REMARK    5  A    between atoms: C5*_19  and  O5*_20
REMARK                            x       y       z     vdW  Elec       q    Type
REMARK                         _______ _______ _______ _____ _____    ______ ____
ROOT
ATOM      1  N   UNL     1      33.547 -23.554 -16.216  0.00  0.00    -0.210 NA
ATOM      2  N   UNL     1      31.826 -22.734 -17.366  0.00  0.00    -0.255 NA
ATOM      3  N   UNL     1      32.461 -24.510 -14.324  0.00  0.00    -0.301 N 
ATOM      4  N   UNL     1      30.089 -24.902 -13.818  0.00  0.00    -0.251 NA
ATOM      5  C   UNL     1      32.427 -23.858 -15.500  0.00  0.00    +0.175 C 
ATOM      6  C   UNL     1      31.376 -23.343 -16.219  0.00  0.00    +0.095 C 
ATOM      7  C   UNL     1      33.134 -22.877 -17.333  0.00  0.00    +0.204 C 
ATOM      8  C   UNL     1      29.938 -23.404 -15.858  0.00  0.00    +0.173 C 
ATOM      9  C   UNL     1      29.565 -24.726 -15.179  0.00  0.00    +0.162 C 
ATOM     10  C   UNL     1      31.348 -24.833 -13.575  0.00  0.00    +0.157 C 
ATOM     11  H   UNL     1      33.342 -24.774 -13.973  0.00  0.00    +0.150 HD
ENDROOT
BRANCH   1  13
ATOM     12  O4* UNL     1      34.976 -24.768 -14.763  0.00  0.00    -0.338 OA
ATOM     13  C1* UNL     1      34.932 -23.869 -15.885  0.00  0.00    +0.182 C 
ATOM     14  C2* UNL     1      35.777 -22.660 -15.511  0.00  0.00    +0.079 C 
ATOM     15  C3* UNL     1      36.842 -23.289 -14.642  0.00  0.00    +0.144 C 
ATOM     16  C4* UNL     1      36.088 -24.400 -13.920  0.00  0.00    +0.173 C 
BRANCH  15  17
ATOM     17  O3* UNL     1      37.836 -23.860 -15.490  0.00  0.00    -0.382 OA
ATOM     18  H3* UNL     1      38.700 -23.817 -15.050  0.00  0.00    +0.210 HD
ENDBRANCH  15  17
BRANCH  16  19
ATOM     19  C5* UNL     1      35.532 -23.954 -12.574  0.00  0.00    +0.169 C 
BRANCH  19  20
ATOM     20  O5* UNL     1      34.601 -24.922 -12.124  0.00  0.00    -0.379 OA
ATOM     21  H5* UNL     1      34.874 -25.801 -12.434  0.00  0.00    +0.211 HD
ENDBRANCH  19  20
ENDBRANCH  16  19
ENDBRANCH   1  13
BRANCH   8  22
ATOM     22  O   UNL     1      29.552 -22.322 -15.013  0.00  0.00    -0.377 OA
ATOM     23  H   UNL     1      29.744 -22.550 -14.089  0.00  0.00    +0.211 HD
ENDBRANCH   8  22
TORSDOF 5
ENDMDL
MODEL 5
REMARK VINA RESULT:      -7.7      3.571      6.062
REMARK  Name = 439693
REMARK  5 active torsions:
REMARK  status: ('A' for Active; 'I' for Inactive)
REMARK    1  A    between atoms: N_1  and  C1*_13
REMARK    2  A    between atoms: C_8  and  O_22
REMARK    3  A    between atoms: C3*_15  and  O3*_17
REMARK    4  A    between atoms: C4*_16  and  C5*_19
REMARK    5  A    between atoms: C5*_19  and  O5*_20
REMARK                            x       y       z     vdW  Elec       q    Type
REMARK                         _______ _______ _______ _____ _____    ______ ____
ROOT
ATOM      1  N   UNL     1      34.168 -24.277 -14.416  0.00  0.00    -0.210 NA
ATOM      2  N   UNL     1      35.570 -23.939 -16.112  0.00  0.00    -0.255 NA
ATOM      3  N   UNL     1      35.610 -25.210 -12.767  0.00  0.00    -0.301 N 
ATOM      4  N   UNL     1      38.054 -25.447 -12.668  0.00  0.00    -0.251 NA
ATOM      5  C   UNL     1      35.395 -24.690 -13.988  0.00  0.00    +0.175 C 
ATOM      6  C   UNL     1      36.247 -24.479 -15.045  0.00  0.00    +0.095 C 
ATOM      7  C   UNL     1      34.324 -23.832 -15.702  0.00  0.00    +0.204 C 
ATOM      8  C   UNL     1      37.700 -24.775 -15.086  0.00  0.00    +0.173 C 
ATOM      9  C   UNL     1      38.387 -24.504 -13.744  0.00  0.00    +0.162 C 
ATOM     10  C   UNL     1      36.838 -25.637 -12.302  0.00  0.00    +0.157 C 
ATOM     11  H   UNL     1      34.838 -25.292 -12.162  0.00  0.00    +0.150 HD
ENDROOT
BRANCH   1  13
ATOM     12  O4* UNL     1      32.140 -25.451 -14.045  0.00  0.00    -0.338 OA
ATOM     13  C1* UNL     1      32.911 -24.295 -13.676  0.00  0.00    +0.182 C 
ATOM     14  C2* UNL     1      32.025 -23.082 -13.920  0.00  0.00    +0.079 C 
ATOM     15  C3* UNL     1      30.654 -23.639 -13.611  0.00  0.00    +0.144 C 
ATOM     16  C4* UNL     1      30.747 -25.080 -14.101  0.00  0.00    +0.173 C 
BRANCH  15  17
ATOM     17  O3* UNL     1      30.471 -23.626 -12.198  0.00  0.00    -0.382 OA
ATOM     18  H3* UNL     1      30.389 -22.710 -11.890  0.00  0.00    +0.210 HD
ENDBRANCH  15  17
BRANCH  16  19
ATOM     19  C5* UNL     1      30.274 -25.243 -15.540  0.00  0.00    +0.169 C 
BRANCH  19  20
ATOM     20  O5* UNL     1      29.068 -24.518 -15.705  0.00  0.00    -0.379 OA
ATOM     21  H5* UNL     1      28.982 -23.866 -14.992  0.00  0.00    +0.211 HD
ENDBRANCH  19  20
ENDBRANCH  16  19
ENDBRANCH   1  13
BRANCH   8  22
ATOM     22  O   UNL     1      37.962 -26.120 -15.481  0.00  0.00    -0.377 OA
ATOM     23  H   UNL     1      37.653 -26.255 -16.391  0.00  0.00    +0.211 HD
ENDBRANCH   8  22
TORSDOF 5
ENDMDL
MODEL 6
REMARK VINA RESULT:      -7.6      3.837      6.318
REMARK  Name = 439693
REMARK  5 active torsions:
REMARK  status: ('A' for Active; 'I' for Inactive)
REMARK    1  A    between atoms: N_1  and  C1*_13
REMARK    2  A    between atoms: C_8  and  O_22
REMARK    3  A    between atoms: C3*_15  and  O3*_17
REMARK    4  A    between atoms: C4*_16  and  C5*_19
REMARK    5  A    between atoms: C5*_19  and  O5*_20
REMARK                            x       y       z     vdW  Elec       q    Type
REMARK                         _______ _______ _______ _____ _____    ______ ____
ROOT
ATOM      1  N   UNL     1      32.473 -23.168 -15.809  0.00  0.00    -0.210 NA
ATOM      2  N   UNL     1      34.196 -23.564 -17.162  0.00  0.00    -0.255 NA
ATOM      3  N   UNL     1      33.407 -23.645 -13.671  0.00  0.00    -0.301 N 
ATOM      4  N   UNL     1      35.713 -24.093 -12.951  0.00  0.00    -0.251 NA
ATOM      5  C   UNL     1      33.510 -23.541 -15.008  0.00  0.00    +0.175 C 
ATOM      6  C   UNL     1      34.563 -23.786 -15.856  0.00  0.00    +0.095 C 
ATOM      7  C   UNL     1      32.934 -23.195 -17.098  0.00  0.00    +0.204 C 
ATOM      8  C   UNL     1      35.926 -24.231 -15.474  0.00  0.00    +0.173 C 
ATOM      9  C   UNL     1      36.395 -23.604 -14.157  0.00  0.00    +0.162 C 
ATOM     10  C   UNL     1      34.436 -24.020 -12.832  0.00  0.00    +0.157 C 
ATOM     11  H   UNL     1      32.535 -23.438 -13.263  0.00  0.00    +0.150 HD
ENDROOT
BRANCH   1  13
ATOM     12  O4* UNL     1      30.640 -23.723 -14.408  0.00  0.00    -0.338 OA
ATOM     13  C1* UNL     1      31.119 -22.804 -15.405  0.00  0.00    +0.182 C 
ATOM     14  C2* UNL     1      30.103 -22.819 -16.539  0.00  0.00    +0.079 C 
ATOM     15  C3* UNL     1      28.813 -23.061 -15.788  0.00  0.00    +0.144 C 
ATOM     16  C4* UNL     1      29.241 -23.981 -14.650  0.00  0.00    +0.173 C 
BRANCH  15  17
ATOM     17  O3* UNL     1      28.363 -21.818 -15.254  0.00  0.00    -0.382 OA
ATOM     18  H3* UNL     1      27.409 -21.866 -15.081  0.00  0.00    +0.210 HD
ENDBRANCH  15  17
BRANCH  16  19
ATOM     19  C5* UNL     1      29.086 -25.456 -14.997  0.00  0.00    +0.169 C 
BRANCH  19  20
ATOM     20  O5* UNL     1      30.254 -26.143 -14.587  0.00  0.00    -0.379 OA
ATOM     21  H5* UNL     1      30.910 -26.122 -15.302  0.00  0.00    +0.211 HD
ENDBRANCH  19  20
ENDBRANCH  16  19
ENDBRANCH   1  13
BRANCH   8  22
ATOM     22  O   UNL     1      36.017 -25.651 -15.371  0.00  0.00    -0.377 OA
ATOM     23  H   UNL     1      36.443 -25.887 -14.531  0.00  0.00    +0.211 HD
ENDBRANCH   8  22
TORSDOF 5
ENDMDL
MODEL 7
REMARK VINA RESULT:      -7.5      7.844     10.364
REMARK  Name = 439693
REMARK  5 active torsions:
REMARK  status: ('A' for Active; 'I' for Inactive)
REMARK    1  A    between atoms: N_1  and  C1*_13
REMARK    2  A    between atoms: C_8  and  O_22
REMARK    3  A    between atoms: C3*_15  and  O3*_17
REMARK    4  A    between atoms: C4*_16  and  C5*_19
REMARK    5  A    between atoms: C5*_19  and  O5*_20
REMARK                            x       y       z     vdW  Elec       q    Type
REMARK                         _______ _______ _______ _____ _____    ______ ____
ROOT
ATOM      1  N   UNL     1      34.539 -15.986 -21.670  0.00  0.00    -0.210 NA
ATOM      2  N   UNL     1      33.928 -14.034 -20.792  0.00  0.00    -0.255 NA
ATOM      3  N   UNL     1      33.936 -15.706 -23.956  0.00  0.00    -0.301 N 
ATOM      4  N   UNL     1      33.191 -13.740 -25.228  0.00  0.00    -0.251 NA
ATOM      5  C   UNL     1      34.031 -15.247 -22.696  0.00  0.00    +0.175 C 
ATOM      6  C   UNL     1      33.655 -14.048 -22.139  0.00  0.00    +0.095 C 
ATOM      7  C   UNL     1      34.457 -15.213 -20.542  0.00  0.00    +0.204 C 
ATOM      8  C   UNL     1      33.036 -12.898 -22.842  0.00  0.00    +0.173 C 
ATOM      9  C   UNL     1      33.593 -12.713 -24.257  0.00  0.00    +0.162 C 
ATOM     10  C   UNL     1      33.428 -14.985 -25.017  0.00  0.00    +0.157 C 
ATOM     11  H   UNL     1      34.252 -16.621 -24.135  0.00  0.00    +0.150 HD
ENDROOT
BRANCH   1  13
ATOM     12  O4* UNL     1      35.579 -17.618 -23.042  0.00  0.00    -0.338 OA
ATOM     13  C1* UNL     1      35.073 -17.343 -21.725  0.00  0.00    +0.182 C 
ATOM     14  C2* UNL     1      34.054 -18.429 -21.412  0.00  0.00    +0.079 C 
ATOM     15  C3* UNL     1      34.639 -19.616 -22.144  0.00  0.00    +0.144 C 
ATOM     16  C4* UNL     1      35.264 -18.984 -23.383  0.00  0.00    +0.173 C 
BRANCH  15  17
ATOM     17  O3* UNL     1      35.661 -20.187 -21.332  0.00  0.00    -0.382 OA
ATOM     18  H3* UNL     1      36.301 -19.500 -21.086  0.00  0.00    +0.210 HD
ENDBRANCH  15  17
BRANCH  16  19
ATOM     19  C5* UNL     1      34.315 -18.965 -24.575  0.00  0.00    +0.169 C 
BRANCH  19  20
ATOM     20  O5* UNL     1      34.771 -17.997 -25.502  0.00  0.00    -0.379 OA
ATOM     21  H5* UNL     1      34.017 -17.651 -26.006  0.00  0.00    +0.211 HD
ENDBRANCH  19  20
ENDBRANCH  16  19
ENDBRANCH   1  13
BRANCH   8  22
ATOM     22  O   UNL     1      31.616 -13.013 -22.911  0.00  0.00    -0.377 OA
ATOM     23  H   UNL     1      31.353 -13.911 -22.654  0.00  0.00    +0.211 HD
ENDBRANCH   8  22
TORSDOF 5
ENDMDL
MODEL 8
REMARK VINA RESULT:      -7.5      2.334      5.970
REMARK  Name = 439693
REMARK  5 active torsions:
REMARK  status: ('A' for Active; 'I' for Inactive)
REMARK    1  A    between atoms: N_1  and  C1*_13
REMARK    2  A    between atoms: C_8  and  O_22
REMARK    3  A    between atoms: C3*_15  and  O3*_17
REMARK    4  A    between atoms: C4*_16  and  C5*_19
REMARK    5  A    between atoms: C5*_19  and  O5*_20
REMARK                            x       y       z     vdW  Elec       q    Type
REMARK                         _______ _______ _______ _____ _____    ______ ____
ROOT
ATOM      1  N   UNL     1      35.752 -23.803 -15.804  0.00  0.00    -0.210 NA
ATOM      2  N   UNL     1      37.755 -22.831 -15.771  0.00  0.00    -0.255 NA
ATOM      3  N   UNL     1      36.209 -25.903 -14.778  0.00  0.00    -0.301 N 
ATOM      4  N   UNL     1      38.194 -26.763 -13.613  0.00  0.00    -0.251 NA
ATOM      5  C   UNL     1      36.599 -24.689 -15.207  0.00  0.00    +0.175 C 
ATOM      6  C   UNL     1      37.829 -24.078 -15.198  0.00  0.00    +0.095 C 
ATOM      7  C   UNL     1      36.494 -22.697 -16.125  0.00  0.00    +0.204 C 
ATOM      8  C   UNL     1      39.094 -24.638 -14.662  0.00  0.00    +0.173 C 
ATOM      9  C   UNL     1      38.871 -25.476 -13.400  0.00  0.00    +0.162 C 
ATOM     10  C   UNL     1      37.039 -26.823 -14.171  0.00  0.00    +0.157 C 
ATOM     11  H   UNL     1      35.265 -26.151 -14.905  0.00  0.00    +0.150 HD
ENDROOT
BRANCH   1  13
ATOM     12  O4* UNL     1      34.081 -23.928 -17.483  0.00  0.00    -0.338 OA
ATOM     13  C1* UNL     1      34.327 -23.967 -16.067  0.00  0.00    +0.182 C 
ATOM     14  C2* UNL     1      33.447 -22.894 -15.440  0.00  0.00    +0.079 C 
ATOM     15  C3* UNL     1      32.242 -22.917 -16.353  0.00  0.00    +0.144 C 
ATOM     16  C4* UNL     1      32.848 -23.217 -17.719  0.00  0.00    +0.173 C 
BRANCH  15  17
ATOM     17  O3* UNL     1      31.398 -23.995 -15.957  0.00  0.00    -0.382 OA
ATOM     18  H3* UNL     1      30.537 -23.646 -15.678  0.00  0.00    +0.210 HD
ENDBRANCH  15  17
BRANCH  16  19
ATOM     19  C5* UNL     1      33.175 -21.955 -18.507  0.00  0.00    +0.169 C 
BRANCH  19  20
ATOM     20  O5* UNL     1      32.883 -22.185 -19.873  0.00  0.00    -0.379 OA
ATOM     21  H5* UNL     1      33.012 -21.364 -20.375  0.00  0.00    +0.211 HD
ENDBRANCH  19  20
ENDBRANCH  16  19
ENDBRANCH   1  13
BRANCH   8  22
ATOM     22  O   UNL     1      39.783 -25.428 -15.629  0.00  0.00    -0.377 OA
ATOM     23  H   UNL     1      39.327 -25.361 -16.484  0.00  0.00    +0.211 HD
ENDBRANCH   8  22
TORSDOF 5
ENDMDL
MODEL 9
REMARK VINA RESULT:      -7.4      7.444     11.577
REMARK  Name = 439693
REMARK  5 active torsions:
REMARK  status: ('A' for Active; 'I' for Inactive)
REMARK    1  A    between atoms: N_1  and  C1*_13
REMARK    2  A    between atoms: C_8  and  O_22
REMARK    3  A    between atoms: C3*_15  and  O3*_17
REMARK    4  A    between atoms: C4*_16  and  C5*_19
REMARK    5  A    between atoms: C5*_19  and  O5*_20
REMARK                            x       y       z     vdW  Elec       q    Type
REMARK                         _______ _______ _______ _____ _____    ______ ____
ROOT
ATOM      1  N   UNL     1      34.434 -16.990 -24.712  0.00  0.00    -0.210 NA
ATOM      2  N   UNL     1      34.550 -19.210 -24.595  0.00  0.00    -0.255 NA
ATOM      3  N   UNL     1      34.775 -16.360 -22.441  0.00  0.00    -0.301 N 
ATOM      4  N   UNL     1      35.456 -17.651 -20.464  0.00  0.00    -0.251 NA
ATOM      5  C   UNL     1      34.672 -17.293 -23.405  0.00  0.00    +0.175 C 
ATOM      6  C   UNL     1      34.737 -18.664 -23.347  0.00  0.00    +0.095 C 
ATOM      7  C   UNL     1      34.371 -18.178 -25.391  0.00  0.00    +0.204 C 
ATOM      8  C   UNL     1      34.970 -19.492 -22.138  0.00  0.00    +0.173 C 
ATOM      9  C   UNL     1      35.959 -18.839 -21.168  0.00  0.00    +0.162 C 
ATOM     10  C   UNL     1      35.015 -16.632 -21.109  0.00  0.00    +0.157 C 
ATOM     11  H   UNL     1      34.673 -15.417 -22.705  0.00  0.00    +0.150 HD
ENDROOT
BRANCH   1  13
ATOM     12  O4* UNL     1      34.353 -14.657 -24.289  0.00  0.00    -0.338 OA
ATOM     13  C1* UNL     1      34.272 -15.668 -25.308  0.00  0.00    +0.182 C 
ATOM     14  C2* UNL     1      32.944 -15.463 -26.023  0.00  0.00    +0.079 C 
ATOM     15  C3* UNL     1      32.783 -13.962 -25.942  0.00  0.00    +0.144 C 
ATOM     16  C4* UNL     1      33.394 -13.621 -24.588  0.00  0.00    +0.173 C 
BRANCH  15  17
ATOM     17  O3* UNL     1      33.559 -13.369 -26.980  0.00  0.00    -0.382 OA
ATOM     18  H3* UNL     1      33.443 -12.406 -26.961  0.00  0.00    +0.210 HD
ENDBRANCH  15  17
BRANCH  16  19
ATOM     19  C5* UNL     1      32.363 -13.595 -23.467  0.00  0.00    +0.169 C 
BRANCH  19  20
ATOM     20  O5* UNL     1      33.008 -13.922 -22.250  0.00  0.00    -0.379 OA
ATOM     21  H5* UNL     1      33.966 -13.800 -22.348  0.00  0.00    +0.211 HD
ENDBRANCH  19  20
ENDBRANCH  16  19
ENDBRANCH   1  13
BRANCH   8  22
ATOM     22  O   UNL     1      33.758 -19.780 -21.444  0.00  0.00    -0.377 OA
ATOM     23  H   UNL     1      33.961 -20.008 -20.523  0.00  0.00    +0.211 HD
ENDBRANCH   8  22
TORSDOF 5
ENDMDL
