MODEL 1
REMARK VINA RESULT:      -6.8      0.000      0.000
REMARK  Name = 65632
REMARK  6 active torsions:
REMARK  status: ('A' for Active; 'I' for Inactive)
REMARK    1  A    between atoms: N_2  and  C_7
REMARK    2  A    between atoms: C_3  and  C_11
REMARK    3  A    between atoms: C_11  and  S_12
REMARK    4  A    between atoms: S_12  and  C_13
REMARK    5  A    between atoms: C_13  and  C_15
REMARK    6  A    between atoms: C_15  and  O_16
REMARK                            x       y       z     vdW  Elec       q    Type
REMARK                         _______ _______ _______ _____ _____    ______ ____
ROOT
ATOM      1  O   UNL     1      36.314 -23.213 -13.486  0.00  0.00    -0.274 OA
ATOM      2  N   UNL     1      34.623 -24.781 -13.789  0.00  0.00    -0.298 N 
ATOM      3  C   UNL     1      35.900 -24.369 -13.420  0.00  0.00    +0.234 C 
ATOM      4  H   UNL     1      34.397 -25.735 -13.695  0.00  0.00    +0.150 HD
ENDROOT
BRANCH   2   7
ATOM      5  S   UNL     1      31.185 -24.141 -15.429  0.00  0.00    -0.075 S 
ATOM      6  O   UNL     1      31.894 -25.116 -13.084  0.00  0.00    -0.283 OA
ATOM      7  C   UNL     1      33.620 -23.892 -14.298  0.00  0.00    +0.141 C 
ATOM      8  C   UNL     1      33.743 -23.685 -15.804  0.00  0.00    +0.040 C 
ATOM      9  C   UNL     1      32.418 -23.128 -16.292  0.00  0.00    +0.067 C 
ATOM     10  C   UNL     1      32.256 -24.501 -14.074  0.00  0.00    +0.216 C 
ENDBRANCH   2   7
BRANCH   3  11
ATOM     11  C   UNL     1      36.777 -25.499 -12.931  0.00  0.00    +0.143 C 
BRANCH  11  12
ATOM     12  S   UNL     1      37.683 -26.189 -14.336  0.00  0.00    -0.119 S 
BRANCH  12  13
ATOM     13  C   UNL     1      39.200 -25.217 -14.183  0.00  0.00    +0.167 C 
BRANCH  13  15
ATOM     14  O   UNL     1      41.131 -26.656 -14.085  0.00  0.00    -0.249 OA
ATOM     15  C   UNL     1      40.351 -25.993 -14.756  0.00  0.00    +0.325 C 
BRANCH  15  16
ATOM     16  O   UNL     1      40.427 -25.895 -16.108  0.00  0.00    -0.480 OA
ATOM     17  H   UNL     1      39.828 -26.372 -16.647  0.00  0.00    +0.295 HD
ENDBRANCH  15  16
ENDBRANCH  13  15
ENDBRANCH  12  13
ENDBRANCH  11  12
ENDBRANCH   3  11
TORSDOF 6
ENDMDL
MODEL 2
REMARK VINA RESULT:      -6.7      3.063      3.606
REMARK  Name = 65632
REMARK  6 active torsions:
REMARK  status: ('A' for Active; 'I' for Inactive)
REMARK    1  A    between atoms: N_2  and  C_7
REMARK    2  A    between atoms: C_3  and  C_11
REMARK    3  A    between atoms: C_11  and  S_12
REMARK    4  A    between atoms: S_12  and  C_13
REMARK    5  A    between atoms: C_13  and  C_15
REMARK    6  A    between atoms: C_15  and  O_16
REMARK                            x       y       z     vdW  Elec       q    Type
REMARK                         _______ _______ _______ _____ _____    ______ ____
ROOT
ATOM      1  O   UNL     1      35.364 -23.131 -16.489  0.00  0.00    -0.274 OA
ATOM      2  N   UNL     1      33.946 -23.875 -14.801  0.00  0.00    -0.298 N 
ATOM      3  C   UNL     1      35.144 -23.842 -15.510  0.00  0.00    +0.234 C 
ATOM      4  H   UNL     1      33.878 -24.484 -14.031  0.00  0.00    +0.150 HD
ENDROOT
BRANCH   2   7
ATOM      5  S   UNL     1      30.141 -23.215 -14.762  0.00  0.00    -0.075 S 
ATOM      6  O   UNL     1      31.960 -23.299 -12.856  0.00  0.00    -0.283 OA
ATOM      7  C   UNL     1      32.808 -23.069 -15.133  0.00  0.00    +0.141 C 
ATOM      8  C   UNL     1      32.145 -23.513 -16.432  0.00  0.00    +0.040 C 
ATOM      9  C   UNL     1      30.746 -22.926 -16.448  0.00  0.00    +0.067 C 
ATOM     10  C   UNL     1      31.758 -23.226 -14.058  0.00  0.00    +0.216 C 
ENDBRANCH   2   7
BRANCH   3  11
ATOM     11  C   UNL     1      36.184 -24.798 -14.974  0.00  0.00    +0.143 C 
BRANCH  11  12
ATOM     12  S   UNL     1      37.027 -24.023 -13.574  0.00  0.00    -0.119 S 
BRANCH  12  13
ATOM     13  C   UNL     1      36.583 -25.222 -12.294  0.00  0.00    +0.167 C 
BRANCH  13  15
ATOM     14  O   UNL     1      35.270 -25.035 -10.283  0.00  0.00    -0.249 OA
ATOM     15  C   UNL     1      35.512 -24.642 -11.417  0.00  0.00    +0.325 C 
BRANCH  15  16
ATOM     16  O   UNL     1      34.844 -23.620 -12.010  0.00  0.00    -0.480 OA
ATOM     17  H   UNL     1      35.096 -23.329 -12.864  0.00  0.00    +0.295 HD
ENDBRANCH  15  16
ENDBRANCH  13  15
ENDBRANCH  12  13
ENDBRANCH  11  12
ENDBRANCH   3  11
TORSDOF 6
ENDMDL
MODEL 3
REMARK VINA RESULT:      -6.7      2.052      2.494
REMARK  Name = 65632
REMARK  6 active torsions:
REMARK  status: ('A' for Active; 'I' for Inactive)
REMARK    1  A    between atoms: N_2  and  C_7
REMARK    2  A    between atoms: C_3  and  C_11
REMARK    3  A    between atoms: C_11  and  S_12
REMARK    4  A    between atoms: S_12  and  C_13
REMARK    5  A    between atoms: C_13  and  C_15
REMARK    6  A    between atoms: C_15  and  O_16
REMARK                            x       y       z     vdW  Elec       q    Type
REMARK                         _______ _______ _______ _____ _____    ______ ____
ROOT
ATOM      1  O   UNL     1      34.739 -24.831 -11.928  0.00  0.00    -0.274 OA
ATOM      2  N   UNL     1      34.792 -23.530 -13.856  0.00  0.00    -0.298 N 
ATOM      3  C   UNL     1      35.293 -24.001 -12.646  0.00  0.00    +0.234 C 
ATOM      4  H   UNL     1      35.321 -22.863 -14.351  0.00  0.00    +0.150 HD
ENDROOT
BRANCH   2   7
ATOM      5  S   UNL     1      31.940 -23.179 -16.437  0.00  0.00    -0.075 S 
ATOM      6  O   UNL     1      34.490 -23.807 -16.665  0.00  0.00    -0.283 OA
ATOM      7  C   UNL     1      33.547 -23.965 -14.420  0.00  0.00    +0.141 C 
ATOM      8  C   UNL     1      32.356 -23.206 -13.845  0.00  0.00    +0.040 C 
ATOM      9  C   UNL     1      31.193 -23.403 -14.799  0.00  0.00    +0.067 C 
ATOM     10  C   UNL     1      33.546 -23.676 -15.903  0.00  0.00    +0.216 C 
ENDBRANCH   2   7
BRANCH   3  11
ATOM     11  C   UNL     1      36.613 -23.375 -12.260  0.00  0.00    +0.143 C 
BRANCH  11  12
ATOM     12  S   UNL     1      37.911 -24.631 -12.364  0.00  0.00    -0.119 S 
BRANCH  12  13
ATOM     13  C   UNL     1      38.207 -24.566 -14.147  0.00  0.00    +0.167 C 
BRANCH  13  15
ATOM     14  O   UNL     1      38.207 -26.929 -14.620  0.00  0.00    -0.249 OA
ATOM     15  C   UNL     1      37.699 -25.827 -14.784  0.00  0.00    +0.325 C 
BRANCH  15  16
ATOM     16  O   UNL     1      36.601 -25.621 -15.554  0.00  0.00    -0.480 OA
ATOM     17  H   UNL     1      36.502 -24.815 -16.023  0.00  0.00    +0.295 HD
ENDBRANCH  15  16
ENDBRANCH  13  15
ENDBRANCH  12  13
ENDBRANCH  11  12
ENDBRANCH   3  11
TORSDOF 6
ENDMDL
MODEL 4
REMARK VINA RESULT:      -6.6      9.761     11.656
REMARK  Name = 65632
REMARK  6 active torsions:
REMARK  status: ('A' for Active; 'I' for Inactive)
REMARK    1  A    between atoms: N_2  and  C_7
REMARK    2  A    between atoms: C_3  and  C_11
REMARK    3  A    between atoms: C_11  and  S_12
REMARK    4  A    between atoms: S_12  and  C_13
REMARK    5  A    between atoms: C_13  and  C_15
REMARK    6  A    between atoms: C_15  and  O_16
REMARK                            x       y       z     vdW  Elec       q    Type
REMARK                         _______ _______ _______ _____ _____    ______ ____
ROOT
ATOM      1  O   UNL     1      35.167 -18.225 -23.150  0.00  0.00    -0.274 OA
ATOM      2  N   UNL     1      34.346 -18.679 -21.021  0.00  0.00    -0.298 N 
ATOM      3  C   UNL     1      34.588 -17.867 -22.126  0.00  0.00    +0.234 C 
ATOM      4  H   UNL     1      33.872 -18.288 -20.252  0.00  0.00    +0.150 HD
ENDROOT
BRANCH   2   7
ATOM      5  S   UNL     1      34.660 -22.011 -19.094  0.00  0.00    -0.075 S 
ATOM      6  O   UNL     1      32.586 -20.655 -19.993  0.00  0.00    -0.283 OA
ATOM      7  C   UNL     1      34.751 -20.052 -20.945  0.00  0.00    +0.141 C 
ATOM      8  C   UNL     1      36.131 -20.213 -20.317  0.00  0.00    +0.040 C 
ATOM      9  C   UNL     1      36.260 -21.659 -19.875  0.00  0.00    +0.067 C 
ATOM     10  C   UNL     1      33.797 -20.802 -20.044  0.00  0.00    +0.216 C 
ENDBRANCH   2   7
BRANCH   3  11
ATOM     11  C   UNL     1      34.079 -16.455 -21.954  0.00  0.00    +0.143 C 
BRANCH  11  12
ATOM     12  S   UNL     1      34.829 -15.402 -23.219  0.00  0.00    -0.119 S 
BRANCH  12  13
ATOM     13  C   UNL     1      33.405 -15.250 -24.323  0.00  0.00    +0.167 C 
BRANCH  13  15
ATOM     14  O   UNL     1      33.450 -15.258 -26.733  0.00  0.00    -0.249 OA
ATOM     15  C   UNL     1      33.763 -15.793 -25.677  0.00  0.00    +0.325 C 
BRANCH  15  16
ATOM     16  O   UNL     1      34.487 -16.939 -25.608  0.00  0.00    -0.480 OA
ATOM     17  H   UNL     1      35.324 -16.990 -26.026  0.00  0.00    +0.295 HD
ENDBRANCH  15  16
ENDBRANCH  13  15
ENDBRANCH  12  13
ENDBRANCH  11  12
ENDBRANCH   3  11
TORSDOF 6
ENDMDL
MODEL 5
REMARK VINA RESULT:      -6.5      8.341      9.875
REMARK  Name = 65632
REMARK  6 active torsions:
REMARK  status: ('A' for Active; 'I' for Inactive)
REMARK    1  A    between atoms: N_2  and  C_7
REMARK    2  A    between atoms: C_3  and  C_11
REMARK    3  A    between atoms: C_11  and  S_12
REMARK    4  A    between atoms: S_12  and  C_13
REMARK    5  A    between atoms: C_13  and  C_15
REMARK    6  A    between atoms: C_15  and  O_16
REMARK                            x       y       z     vdW  Elec       q    Type
REMARK                         _______ _______ _______ _____ _____    ______ ____
ROOT
ATOM      1  O   UNL     1      36.562 -19.023 -20.719  0.00  0.00    -0.274 OA
ATOM      2  N   UNL     1      34.718 -18.988 -22.138  0.00  0.00    -0.298 N 
ATOM      3  C   UNL     1      35.448 -19.434 -21.040  0.00  0.00    +0.234 C 
ATOM      4  H   UNL     1      33.833 -19.388 -22.302  0.00  0.00    +0.150 HD
ENDROOT
BRANCH   2   7
ATOM      5  S   UNL     1      34.282 -15.606 -23.952  0.00  0.00    -0.075 S 
ATOM      6  O   UNL     1      34.630 -16.243 -21.417  0.00  0.00    -0.283 OA
ATOM      7  C   UNL     1      35.186 -17.978 -23.042  0.00  0.00    +0.141 C 
ATOM      8  C   UNL     1      34.629 -18.160 -24.450  0.00  0.00    +0.040 C 
ATOM      9  C   UNL     1      34.801 -16.840 -25.177  0.00  0.00    +0.067 C 
ATOM     10  C   UNL     1      34.695 -16.628 -22.574  0.00  0.00    +0.216 C 
ENDBRANCH   2   7
BRANCH   3  11
ATOM     11  C   UNL     1      34.746 -20.517 -20.254  0.00  0.00    +0.143 C 
BRANCH  11  12
ATOM     12  S   UNL     1      35.987 -21.566 -19.461  0.00  0.00    -0.119 S 
BRANCH  12  13
ATOM     13  C   UNL     1      34.973 -22.209 -18.108  0.00  0.00    +0.167 C 
BRANCH  13  15
ATOM     14  O   UNL     1      32.591 -22.403 -18.417  0.00  0.00    -0.249 OA
ATOM     15  C   UNL     1      33.717 -22.812 -18.668  0.00  0.00    +0.325 C 
BRANCH  15  16
ATOM     16  O   UNL     1      33.963 -23.857 -19.500  0.00  0.00    -0.480 OA
ATOM     17  H   UNL     1      33.708 -23.808 -20.400  0.00  0.00    +0.295 HD
ENDBRANCH  15  16
ENDBRANCH  13  15
ENDBRANCH  12  13
ENDBRANCH  11  12
ENDBRANCH   3  11
TORSDOF 6
ENDMDL
MODEL 6
REMARK VINA RESULT:      -6.5      3.355      7.826
REMARK  Name = 65632
REMARK  6 active torsions:
REMARK  status: ('A' for Active; 'I' for Inactive)
REMARK    1  A    between atoms: N_2  and  C_7
REMARK    2  A    between atoms: C_3  and  C_11
REMARK    3  A    between atoms: C_11  and  S_12
REMARK    4  A    between atoms: S_12  and  C_13
REMARK    5  A    between atoms: C_13  and  C_15
REMARK    6  A    between atoms: C_15  and  O_16
REMARK                            x       y       z     vdW  Elec       q    Type
REMARK                         _______ _______ _______ _____ _____    ______ ____
ROOT
ATOM      1  O   UNL     1      32.021 -25.354 -13.902  0.00  0.00    -0.274 OA
ATOM      2  N   UNL     1      33.308 -23.458 -14.302  0.00  0.00    -0.298 N 
ATOM      3  C   UNL     1      32.113 -24.145 -14.105  0.00  0.00    +0.234 C 
ATOM      4  H   UNL     1      33.265 -22.486 -14.457  0.00  0.00    +0.150 HD
ENDROOT
BRANCH   2   7
ATOM      5  S   UNL     1      36.999 -23.598 -13.174  0.00  0.00    -0.075 S 
ATOM      6  O   UNL     1      34.720 -23.835 -11.869  0.00  0.00    -0.283 OA
ATOM      7  C   UNL     1      34.595 -24.089 -14.292  0.00  0.00    +0.141 C 
ATOM      8  C   UNL     1      35.530 -23.510 -15.348  0.00  0.00    +0.040 C 
ATOM      9  C   UNL     1      36.944 -23.902 -14.962  0.00  0.00    +0.067 C 
ATOM     10  C   UNL     1      35.263 -23.834 -12.962  0.00  0.00    +0.216 C 
ENDBRANCH   2   7
BRANCH   3  11
ATOM     11  C   UNL     1      30.892 -23.258 -14.179  0.00  0.00    +0.143 C 
BRANCH  11  12
ATOM     12  S   UNL     1      30.355 -23.143 -15.903  0.00  0.00    -0.119 S 
BRANCH  12  13
ATOM     13  C   UNL     1      28.610 -22.762 -15.616  0.00  0.00    +0.167 C 
BRANCH  13  15
ATOM     14  O   UNL     1      27.719 -23.764 -17.619  0.00  0.00    -0.249 OA
ATOM     15  C   UNL     1      27.877 -22.766 -16.926  0.00  0.00    +0.325 C 
BRANCH  15  16
ATOM     16  O   UNL     1      27.390 -21.544 -17.259  0.00  0.00    -0.480 OA
ATOM     17  H   UNL     1      27.244 -21.326 -18.158  0.00  0.00    +0.295 HD
ENDBRANCH  15  16
ENDBRANCH  13  15
ENDBRANCH  12  13
ENDBRANCH  11  12
ENDBRANCH   3  11
TORSDOF 6
ENDMDL
MODEL 7
REMARK VINA RESULT:      -6.5      3.006      7.628
REMARK  Name = 65632
REMARK  6 active torsions:
REMARK  status: ('A' for Active; 'I' for Inactive)
REMARK    1  A    between atoms: N_2  and  C_7
REMARK    2  A    between atoms: C_3  and  C_11
REMARK    3  A    between atoms: C_11  and  S_12
REMARK    4  A    between atoms: S_12  and  C_13
REMARK    5  A    between atoms: C_13  and  C_15
REMARK    6  A    between atoms: C_15  and  O_16
REMARK                            x       y       z     vdW  Elec       q    Type
REMARK                         _______ _______ _______ _____ _____    ______ ____
ROOT
ATOM      1  O   UNL     1      33.738 -23.119 -15.621  0.00  0.00    -0.274 OA
ATOM      2  N   UNL     1      34.075 -24.717 -13.964  0.00  0.00    -0.298 N 
ATOM      3  C   UNL     1      33.300 -23.965 -14.843  0.00  0.00    +0.234 C 
ATOM      4  H   UNL     1      33.620 -25.369 -13.383  0.00  0.00    +0.150 HD
ENDROOT
BRANCH   2   7
ATOM      5  S   UNL     1      37.605 -26.278 -13.810  0.00  0.00    -0.075 S 
ATOM      6  O   UNL     1      35.788 -26.152 -15.716  0.00  0.00    -0.283 OA
ATOM      7  C   UNL     1      35.500 -24.593 -13.860  0.00  0.00    +0.141 C 
ATOM      8  C   UNL     1      35.989 -24.741 -12.424  0.00  0.00    +0.040 C 
ATOM      9  C   UNL     1      37.474 -25.048 -12.482  0.00  0.00    +0.067 C 
ATOM     10  C   UNL     1      36.154 -25.711 -14.638  0.00  0.00    +0.216 C 
ENDBRANCH   2   7
BRANCH   3  11
ATOM     11  C   UNL     1      31.823 -24.269 -14.749  0.00  0.00    +0.143 C 
BRANCH  11  12
ATOM     12  S   UNL     1      30.917 -23.103 -15.793  0.00  0.00    -0.119 S 
BRANCH  12  13
ATOM     13  C   UNL     1      29.319 -23.950 -15.820  0.00  0.00    +0.167 C 
BRANCH  13  15
ATOM     14  O   UNL     1      27.657 -23.976 -17.565  0.00  0.00    -0.249 OA
ATOM     15  C   UNL     1      28.448 -23.340 -16.880  0.00  0.00    +0.325 C 
BRANCH  15  16
ATOM     16  O   UNL     1      28.619 -21.998 -16.991  0.00  0.00    -0.480 OA
ATOM     17  H   UNL     1      29.468 -21.648 -17.180  0.00  0.00    +0.295 HD
ENDBRANCH  15  16
ENDBRANCH  13  15
ENDBRANCH  12  13
ENDBRANCH  11  12
ENDBRANCH   3  11
TORSDOF 6
ENDMDL
MODEL 8
REMARK VINA RESULT:      -6.4      9.201     10.809
REMARK  Name = 65632
REMARK  6 active torsions:
REMARK  status: ('A' for Active; 'I' for Inactive)
REMARK    1  A    between atoms: N_2  and  C_7
REMARK    2  A    between atoms: C_3  and  C_11
REMARK    3  A    between atoms: C_11  and  S_12
REMARK    4  A    between atoms: S_12  and  C_13
REMARK    5  A    between atoms: C_13  and  C_15
REMARK    6  A    between atoms: C_15  and  O_16
REMARK                            x       y       z     vdW  Elec       q    Type
REMARK                         _______ _______ _______ _____ _____    ______ ____
ROOT
ATOM      1  O   UNL     1      35.320 -17.405 -20.626  0.00  0.00    -0.274 OA
ATOM      2  N   UNL     1      34.125 -16.864 -22.546  0.00  0.00    -0.298 N 
ATOM      3  C   UNL     1      34.712 -17.742 -21.640  0.00  0.00    +0.234 C 
ATOM      4  H   UNL     1      33.660 -17.243 -23.328  0.00  0.00    +0.150 HD
ENDROOT
BRANCH   2   7
ATOM      5  S   UNL     1      32.355 -13.434 -22.389  0.00  0.00    -0.075 S 
ATOM      6  O   UNL     1      32.323 -15.537 -20.798  0.00  0.00    -0.283 OA
ATOM      7  C   UNL     1      34.160 -15.437 -22.403  0.00  0.00    +0.141 C 
ATOM      8  C   UNL     1      34.194 -14.723 -23.749  0.00  0.00    +0.040 C 
ATOM      9  C   UNL     1      33.776 -13.284 -23.507  0.00  0.00    +0.067 C 
ATOM     10  C   UNL     1      32.893 -14.976 -21.721  0.00  0.00    +0.216 C 
ENDBRANCH   2   7
BRANCH   3  11
ATOM     11  C   UNL     1      34.552 -19.195 -22.024  0.00  0.00    +0.143 C 
BRANCH  11  12
ATOM     12  S   UNL     1      33.552 -20.027 -20.768  0.00  0.00    -0.119 S 
BRANCH  12  13
ATOM     13  C   UNL     1      34.877 -20.911 -19.911  0.00  0.00    +0.167 C 
BRANCH  13  15
ATOM     14  O   UNL     1      34.945 -22.786 -18.397  0.00  0.00    -0.249 OA
ATOM     15  C   UNL     1      34.291 -22.049 -19.125  0.00  0.00    +0.325 C 
BRANCH  15  16
ATOM     16  O   UNL     1      32.950 -22.169 -19.296  0.00  0.00    -0.480 OA
ATOM     17  H   UNL     1      32.603 -22.383 -20.140  0.00  0.00    +0.295 HD
ENDBRANCH  15  16
ENDBRANCH  13  15
ENDBRANCH  12  13
ENDBRANCH  11  12
ENDBRANCH   3  11
TORSDOF 6
ENDMDL
MODEL 9
REMARK VINA RESULT:      -6.3     11.137     12.709
REMARK  Name = 65632
REMARK  6 active torsions:
REMARK  status: ('A' for Active; 'I' for Inactive)
REMARK    1  A    between atoms: N_2  and  C_7
REMARK    2  A    between atoms: C_3  and  C_11
REMARK    3  A    between atoms: C_11  and  S_12
REMARK    4  A    between atoms: S_12  and  C_13
REMARK    5  A    between atoms: C_13  and  C_15
REMARK    6  A    between atoms: C_15  and  O_16
REMARK                            x       y       z     vdW  Elec       q    Type
REMARK                         _______ _______ _______ _____ _____    ______ ____
ROOT
ATOM      1  O   UNL     1      35.192 -16.318 -20.265  0.00  0.00    -0.274 OA
ATOM      2  N   UNL     1      33.959 -15.974 -22.208  0.00  0.00    -0.298 N 
ATOM      3  C   UNL     1      34.589 -16.756 -21.244  0.00  0.00    +0.234 C 
ATOM      4  H   UNL     1      33.504 -16.431 -22.952  0.00  0.00    +0.150 HD
ENDROOT
BRANCH   2   7
ATOM      5  S   UNL     1      32.046 -12.621 -22.079  0.00  0.00    -0.075 S 
ATOM      6  O   UNL     1      32.320 -14.590 -20.348  0.00  0.00    -0.283 OA
ATOM      7  C   UNL     1      33.937 -14.541 -22.175  0.00  0.00    +0.141 C 
ATOM      8  C   UNL     1      33.768 -13.934 -23.564  0.00  0.00    +0.040 C 
ATOM      9  C   UNL     1      33.309 -12.500 -23.376  0.00  0.00    +0.067 C 
ATOM     10  C   UNL     1      32.742 -14.081 -21.374  0.00  0.00    +0.216 C 
ENDBRANCH   2   7
BRANCH   3  11
ATOM     11  C   UNL     1      34.485 -18.239 -21.513  0.00  0.00    +0.143 C 
BRANCH  11  12
ATOM     12  S   UNL     1      35.724 -18.699 -22.748  0.00  0.00    -0.119 S 
BRANCH  12  13
ATOM     13  C   UNL     1      34.619 -18.953 -24.157  0.00  0.00    +0.167 C 
BRANCH  13  15
ATOM     14  O   UNL     1      33.670 -17.466 -25.799  0.00  0.00    -0.249 OA
ATOM     15  C   UNL     1      34.531 -17.685 -24.957  0.00  0.00    +0.325 C 
BRANCH  15  16
ATOM     16  O   UNL     1      35.505 -16.795 -24.638  0.00  0.00    -0.480 OA
ATOM     17  H   UNL     1      36.337 -16.838 -25.066  0.00  0.00    +0.295 HD
ENDBRANCH  15  16
ENDBRANCH  13  15
ENDBRANCH  12  13
ENDBRANCH  11  12
ENDBRANCH   3  11
TORSDOF 6
ENDMDL
