MODEL 1
REMARK VINA RESULT:      -8.5      0.000      0.000
REMARK  Name = 2239
REMARK  9 active torsions:
REMARK  status: ('A' for Active; 'I' for Inactive)
REMARK    1  A    between atoms: C_3  and  S_16
REMARK    2  A    between atoms: C_4  and  C_7
REMARK    3  A    between atoms: C_9  and  C_13
REMARK    4  A    between atoms: S_16  and  C_17
REMARK    5  A    between atoms: C_17  and  C_18
REMARK    6  A    between atoms: C_18  and  O_19
REMARK    7  A    between atoms: C_18  and  C_21
REMARK    8  A    between atoms: C_21  and  N_22
REMARK    9  A    between atoms: N_22  and  C_25
REMARK                            x       y       z     vdW  Elec       q    Type
REMARK                         _______ _______ _______ _____ _____    ______ ____
ROOT
ATOM      1  S   UNL     1      35.705 -23.908 -13.955  0.00  0.00    -0.068 S 
ATOM      2  N   UNL     1      34.111 -23.156 -15.847  0.00  0.00    -0.392 NA
ATOM      3  C   UNL     1      35.357 -23.159 -15.450  0.00  0.00    +0.183 C 
ATOM      4  C   UNL     1      33.351 -23.803 -14.892  0.00  0.00    +0.127 C 
ATOM      5  C   UNL     1      34.038 -24.280 -13.795  0.00  0.00    +0.124 C 
ENDROOT
BRANCH   4   7
ATOM      6  S   UNL     1      30.963 -23.128 -16.215  0.00  0.00    -0.080 S 
ATOM      7  C   UNL     1      31.894 -23.968 -15.048  0.00  0.00    +0.056 C 
ATOM      8  C   UNL     1      31.119 -24.809 -14.279  0.00  0.00    +0.009 C 
ATOM      9  C   UNL     1      29.522 -23.890 -15.694  0.00  0.00    +0.083 C 
ATOM     10  C   UNL     1      29.746 -24.764 -14.653  0.00  0.00    +0.012 C 
BRANCH   9  13
ATOM     11  O   UNL     1      27.829 -24.190 -17.335  0.00  0.00    -0.270 OA
ATOM     12  N   UNL     1      27.555 -22.477 -15.872  0.00  0.00    -0.325 N 
ATOM     13  C   UNL     1      28.293 -23.572 -16.347  0.00  0.00    +0.249 C 
ATOM     14  H   UNL     1      26.705 -22.234 -16.302  0.00  0.00    +0.145 HD
ATOM     15  H   UNL     1      27.889 -21.953 -15.108  0.00  0.00    +0.145 HD
ENDBRANCH   9  13
ENDBRANCH   4   7
BRANCH   3  16
ATOM     16  S   UNL     1      36.617 -22.411 -16.435  0.00  0.00    -0.074 S 
BRANCH  16  17
ATOM     17  C   UNL     1      35.652 -22.034 -17.932  0.00  0.00    +0.092 C 
BRANCH  17  18
ATOM     18  C   UNL     1      36.459 -21.348 -19.043  0.00  0.00    +0.101 C 
BRANCH  18  19
ATOM     19  O   UNL     1      37.179 -20.245 -18.491  0.00  0.00    -0.386 OA
ATOM     20  H   UNL     1      37.335 -20.401 -17.546  0.00  0.00    +0.210 HD
ENDBRANCH  18  19
BRANCH  18  21
ATOM     21  C   UNL     1      35.659 -20.835 -20.246  0.00  0.00    -0.051 C 
BRANCH  21  22
ATOM     22  N   UNL     1      36.075 -19.505 -20.654  0.00  0.00    +0.388 N 
ATOM     23  H   UNL     1      36.318 -18.960 -19.826  0.00  0.00    -0.084 HD
ATOM     24  H   UNL     1      36.883 -19.587 -21.270  0.00  0.00    -0.084 HD
BRANCH  22  25
ATOM     25  C   UNL     1      34.995 -18.826 -21.377  0.00  0.00    -0.046 C 
ATOM     26  C   UNL     1      35.222 -18.974 -22.886  0.00  0.00    -0.022 C 
ATOM     27  C   UNL     1      35.001 -17.344 -20.987  0.00  0.00    -0.022 C 
ATOM     28  C   UNL     1      33.661 -19.468 -20.980  0.00  0.00    -0.022 C 
ENDBRANCH  22  25
ENDBRANCH  21  22
ENDBRANCH  18  21
ENDBRANCH  17  18
ENDBRANCH  16  17
ENDBRANCH   3  16
TORSDOF 9
ENDMDL
MODEL 2
REMARK VINA RESULT:      -8.5      9.512     13.762
REMARK  Name = 2239
REMARK  9 active torsions:
REMARK  status: ('A' for Active; 'I' for Inactive)
REMARK    1  A    between atoms: C_3  and  S_16
REMARK    2  A    between atoms: C_4  and  C_7
REMARK    3  A    between atoms: C_9  and  C_13
REMARK    4  A    between atoms: S_16  and  C_17
REMARK    5  A    between atoms: C_17  and  C_18
REMARK    6  A    between atoms: C_18  and  O_19
REMARK    7  A    between atoms: C_18  and  C_21
REMARK    8  A    between atoms: C_21  and  N_22
REMARK    9  A    between atoms: N_22  and  C_25
REMARK                            x       y       z     vdW  Elec       q    Type
REMARK                         _______ _______ _______ _____ _____    ______ ____
ROOT
ATOM      1  S   UNL     1      33.817 -12.013 -24.283  0.00  0.00    -0.068 S 
ATOM      2  N   UNL     1      32.263 -11.161 -22.401  0.00  0.00    -0.392 NA
ATOM      3  C   UNL     1      32.785 -12.231 -22.940  0.00  0.00    +0.183 C 
ATOM      4  C   UNL     1      32.711 -10.059 -23.103  0.00  0.00    +0.127 C 
ATOM      5  C   UNL     1      33.562 -10.321 -24.157  0.00  0.00    +0.124 C 
ENDROOT
BRANCH   4   7
ATOM      6  S   UNL     1      31.494  -7.625 -23.812  0.00  0.00    -0.080 S 
ATOM      7  C   UNL     1      32.299  -8.691 -22.739  0.00  0.00    +0.056 C 
ATOM      8  C   UNL     1      32.511  -8.117 -21.504  0.00  0.00    +0.009 C 
ATOM      9  C   UNL     1      31.428  -6.393 -22.624  0.00  0.00    +0.083 C 
ATOM     10  C   UNL     1      32.007  -6.787 -21.438  0.00  0.00    +0.012 C 
BRANCH   9  13
ATOM     11  O   UNL     1      30.654  -4.714 -24.117  0.00  0.00    -0.270 OA
ATOM     12  N   UNL     1      30.374  -4.330 -21.898  0.00  0.00    -0.325 N 
ATOM     13  C   UNL     1      30.814  -5.147 -22.951  0.00  0.00    +0.249 C 
ATOM     14  H   UNL     1      29.947  -3.466 -22.092  0.00  0.00    +0.145 HD
ATOM     15  H   UNL     1      30.492  -4.623 -20.966  0.00  0.00    +0.145 HD
ENDBRANCH   9  13
ENDBRANCH   4   7
BRANCH   3  16
ATOM     16  S   UNL     1      32.424 -13.833 -22.291  0.00  0.00    -0.074 S 
BRANCH  16  17
ATOM     17  C   UNL     1      34.104 -14.535 -22.257  0.00  0.00    +0.092 C 
BRANCH  17  18
ATOM     18  C   UNL     1      34.264 -15.734 -21.312  0.00  0.00    +0.101 C 
BRANCH  18  19
ATOM     19  O   UNL     1      34.932 -15.310 -20.123  0.00  0.00    -0.386 OA
ATOM     20  H   UNL     1      35.186 -14.378 -20.209  0.00  0.00    +0.210 HD
ENDBRANCH  18  19
BRANCH  18  21
ATOM     21  C   UNL     1      35.020 -16.944 -21.873  0.00  0.00    -0.051 C 
BRANCH  21  22
ATOM     22  N   UNL     1      35.295 -17.940 -20.852  0.00  0.00    +0.388 N 
ATOM     23  H   UNL     1      36.302 -17.997 -20.701  0.00  0.00    -0.084 HD
ATOM     24  H   UNL     1      34.825 -17.666 -19.989  0.00  0.00    -0.084 HD
BRANCH  22  25
ATOM     25  C   UNL     1      34.794 -19.255 -21.266  0.00  0.00    -0.046 C 
ATOM     26  C   UNL     1      33.339 -19.413 -20.808  0.00  0.00    -0.022 C 
ATOM     27  C   UNL     1      35.669 -20.335 -20.622  0.00  0.00    -0.022 C 
ATOM     28  C   UNL     1      34.879 -19.352 -22.793  0.00  0.00    -0.022 C 
ENDBRANCH  22  25
ENDBRANCH  21  22
ENDBRANCH  18  21
ENDBRANCH  17  18
ENDBRANCH  16  17
ENDBRANCH   3  16
TORSDOF 9
ENDMDL
MODEL 3
REMARK VINA RESULT:      -8.4      8.352     13.141
REMARK  Name = 2239
REMARK  9 active torsions:
REMARK  status: ('A' for Active; 'I' for Inactive)
REMARK    1  A    between atoms: C_3  and  S_16
REMARK    2  A    between atoms: C_4  and  C_7
REMARK    3  A    between atoms: C_9  and  C_13
REMARK    4  A    between atoms: S_16  and  C_17
REMARK    5  A    between atoms: C_17  and  C_18
REMARK    6  A    between atoms: C_18  and  O_19
REMARK    7  A    between atoms: C_18  and  C_21
REMARK    8  A    between atoms: C_21  and  N_22
REMARK    9  A    between atoms: N_22  and  C_25
REMARK                            x       y       z     vdW  Elec       q    Type
REMARK                         _______ _______ _______ _____ _____    ______ ____
ROOT
ATOM      1  S   UNL     1      33.660 -13.172 -26.121  0.00  0.00    -0.068 S 
ATOM      2  N   UNL     1      33.661 -12.534 -23.615  0.00  0.00    -0.392 NA
ATOM      3  C   UNL     1      33.659 -13.538 -24.453  0.00  0.00    +0.183 C 
ATOM      4  C   UNL     1      33.664 -11.361 -24.345  0.00  0.00    +0.127 C 
ATOM      5  C   UNL     1      33.664 -11.504 -25.717  0.00  0.00    +0.124 C 
ENDROOT
BRANCH   4   7
ATOM      6  S   UNL     1      32.563  -9.594 -22.455  0.00  0.00    -0.080 S 
ATOM      7  C   UNL     1      33.667 -10.042 -23.686  0.00  0.00    +0.056 C 
ATOM      8  C   UNL     1      34.550  -9.026 -23.982  0.00  0.00    +0.009 C 
ATOM      9  C   UNL     1      33.266  -8.039 -22.315  0.00  0.00    +0.083 C 
ATOM     10  C   UNL     1      34.318  -7.866 -23.188  0.00  0.00    +0.012 C 
BRANCH   9  13
ATOM     11  O   UNL     1      32.120  -6.065 -21.655  0.00  0.00    -0.270 OA
ATOM     12  N   UNL     1      32.923  -7.393 -20.000  0.00  0.00    -0.325 N 
ATOM     13  C   UNL     1      32.733  -7.120 -21.363  0.00  0.00    +0.249 C 
ATOM     14  H   UNL     1      32.567  -6.778 -19.321  0.00  0.00    +0.145 HD
ATOM     15  H   UNL     1      33.412  -8.203 -19.725  0.00  0.00    +0.145 HD
ENDBRANCH   9  13
ENDBRANCH   4   7
BRANCH   3  16
ATOM     16  S   UNL     1      33.655 -15.202 -23.862  0.00  0.00    -0.074 S 
BRANCH  16  17
ATOM     17  C   UNL     1      33.251 -14.905 -22.112  0.00  0.00    +0.092 C 
BRANCH  17  18
ATOM     18  C   UNL     1      33.959 -15.853 -21.134  0.00  0.00    +0.101 C 
BRANCH  18  19
ATOM     19  O   UNL     1      34.841 -15.098 -20.301  0.00  0.00    -0.386 OA
ATOM     20  H   UNL     1      35.391 -14.520 -20.853  0.00  0.00    +0.210 HD
ENDBRANCH  18  19
BRANCH  18  21
ATOM     21  C   UNL     1      34.765 -16.996 -21.761  0.00  0.00    -0.051 C 
BRANCH  21  22
ATOM     22  N   UNL     1      35.153 -17.995 -20.780  0.00  0.00    +0.388 N 
ATOM     23  H   UNL     1      36.163 -17.954 -20.640  0.00  0.00    -0.084 HD
ATOM     24  H   UNL     1      34.669 -17.802 -19.904  0.00  0.00    -0.084 HD
BRANCH  22  25
ATOM     25  C   UNL     1      34.785 -19.338 -21.239  0.00  0.00    -0.046 C 
ATOM     26  C   UNL     1      33.363 -19.665 -20.767  0.00  0.00    -0.022 C 
ATOM     27  C   UNL     1      35.779 -20.345 -20.651  0.00  0.00    -0.022 C 
ATOM     28  C   UNL     1      34.851 -19.368 -22.770  0.00  0.00    -0.022 C 
ENDBRANCH  22  25
ENDBRANCH  21  22
ENDBRANCH  18  21
ENDBRANCH  17  18
ENDBRANCH  16  17
ENDBRANCH   3  16
TORSDOF 9
ENDMDL
MODEL 4
REMARK VINA RESULT:      -8.3      1.783      2.357
REMARK  Name = 2239
REMARK  9 active torsions:
REMARK  status: ('A' for Active; 'I' for Inactive)
REMARK    1  A    between atoms: C_3  and  S_16
REMARK    2  A    between atoms: C_4  and  C_7
REMARK    3  A    between atoms: C_9  and  C_13
REMARK    4  A    between atoms: S_16  and  C_17
REMARK    5  A    between atoms: C_17  and  C_18
REMARK    6  A    between atoms: C_18  and  O_19
REMARK    7  A    between atoms: C_18  and  C_21
REMARK    8  A    between atoms: C_21  and  N_22
REMARK    9  A    between atoms: N_22  and  C_25
REMARK                            x       y       z     vdW  Elec       q    Type
REMARK                         _______ _______ _______ _____ _____    ______ ____
ROOT
ATOM      1  S   UNL     1      37.018 -22.408 -15.998  0.00  0.00    -0.068 S 
ATOM      2  N   UNL     1      34.711 -22.643 -17.140  0.00  0.00    -0.392 NA
ATOM      3  C   UNL     1      35.941 -22.237 -17.312  0.00  0.00    +0.183 C 
ATOM      4  C   UNL     1      34.593 -23.137 -15.855  0.00  0.00    +0.127 C 
ATOM      5  C   UNL     1      35.736 -23.094 -15.086  0.00  0.00    +0.124 C 
ENDROOT
BRANCH   4   7
ATOM      6  S   UNL     1      31.809 -23.429 -16.124  0.00  0.00    -0.080 S 
ATOM      7  C   UNL     1      33.317 -23.675 -15.349  0.00  0.00    +0.056 C 
ATOM      8  C   UNL     1      33.191 -24.433 -14.205  0.00  0.00    +0.009 C 
ATOM      9  C   UNL     1      30.985 -24.336 -14.929  0.00  0.00    +0.083 C 
ATOM     10  C   UNL     1      31.841 -24.816 -13.962  0.00  0.00    +0.012 C 
BRANCH   9  13
ATOM     11  O   UNL     1      28.815 -23.772 -15.718  0.00  0.00    -0.270 OA
ATOM     12  N   UNL     1      28.974 -25.552 -14.320  0.00  0.00    -0.325 N 
ATOM     13  C   UNL     1      29.572 -24.506 -15.038  0.00  0.00    +0.249 C 
ATOM     14  H   UNL     1      28.002 -25.694 -14.375  0.00  0.00    +0.145 HD
ATOM     15  H   UNL     1      29.527 -26.145 -13.761  0.00  0.00    +0.145 HD
ENDBRANCH   9  13
ENDBRANCH   4   7
BRANCH   3  16
ATOM     16  S   UNL     1      36.453 -21.541 -18.853  0.00  0.00    -0.074 S 
BRANCH  16  17
ATOM     17  C   UNL     1      34.951 -21.842 -19.838  0.00  0.00    +0.092 C 
BRANCH  17  18
ATOM     18  C   UNL     1      33.908 -20.719 -19.752  0.00  0.00    +0.101 C 
BRANCH  18  19
ATOM     19  O   UNL     1      32.675 -21.256 -19.270  0.00  0.00    -0.386 OA
ATOM     20  H   UNL     1      32.857 -21.908 -18.574  0.00  0.00    +0.210 HD
ENDBRANCH  18  19
BRANCH  18  21
ATOM     21  C   UNL     1      33.617 -19.962 -21.052  0.00  0.00    -0.051 C 
BRANCH  21  22
ATOM     22  N   UNL     1      34.111 -18.596 -21.014  0.00  0.00    +0.388 N 
ATOM     23  H   UNL     1      33.333 -17.954 -21.166  0.00  0.00    -0.084 HD
ATOM     24  H   UNL     1      34.534 -18.425 -20.103  0.00  0.00    -0.084 HD
BRANCH  22  25
ATOM     25  C   UNL     1      35.122 -18.383 -22.054  0.00  0.00    -0.046 C 
ATOM     26  C   UNL     1      34.823 -19.296 -23.249  0.00  0.00    -0.022 C 
ATOM     27  C   UNL     1      36.499 -18.715 -21.471  0.00  0.00    -0.022 C 
ATOM     28  C   UNL     1      35.075 -16.914 -22.489  0.00  0.00    -0.022 C 
ENDBRANCH  22  25
ENDBRANCH  21  22
ENDBRANCH  18  21
ENDBRANCH  17  18
ENDBRANCH  16  17
ENDBRANCH   3  16
TORSDOF 9
ENDMDL
MODEL 5
REMARK VINA RESULT:      -8.3      6.904     10.248
REMARK  Name = 2239
REMARK  9 active torsions:
REMARK  status: ('A' for Active; 'I' for Inactive)
REMARK    1  A    between atoms: C_3  and  S_16
REMARK    2  A    between atoms: C_4  and  C_7
REMARK    3  A    between atoms: C_9  and  C_13
REMARK    4  A    between atoms: S_16  and  C_17
REMARK    5  A    between atoms: C_17  and  C_18
REMARK    6  A    between atoms: C_18  and  O_19
REMARK    7  A    between atoms: C_18  and  C_21
REMARK    8  A    between atoms: C_21  and  N_22
REMARK    9  A    between atoms: N_22  and  C_25
REMARK                            x       y       z     vdW  Elec       q    Type
REMARK                         _______ _______ _______ _____ _____    ______ ____
ROOT
ATOM      1  S   UNL     1      34.229 -15.977 -24.634  0.00  0.00    -0.068 S 
ATOM      2  N   UNL     1      34.207 -16.174 -22.057  0.00  0.00    -0.392 NA
ATOM      3  C   UNL     1      33.992 -15.362 -23.059  0.00  0.00    +0.183 C 
ATOM      4  C   UNL     1      34.594 -17.398 -22.566  0.00  0.00    +0.127 C 
ATOM      5  C   UNL     1      34.664 -17.485 -23.940  0.00  0.00    +0.124 C 
ENDROOT
BRANCH   4   7
ATOM      6  S   UNL     1      33.736 -19.630 -21.086  0.00  0.00    -0.080 S 
ATOM      7  C   UNL     1      34.911 -18.535 -21.683  0.00  0.00    +0.056 C 
ATOM      8  C   UNL     1      36.178 -18.847 -21.240  0.00  0.00    +0.009 C 
ATOM      9  C   UNL     1      34.922 -20.524 -20.234  0.00  0.00    +0.083 C 
ATOM     10  C   UNL     1      36.185 -19.998 -20.401  0.00  0.00    +0.012 C 
BRANCH   9  13
ATOM     11  O   UNL     1      35.288 -22.355 -18.763  0.00  0.00    -0.270 OA
ATOM     12  N   UNL     1      33.177 -22.064 -19.544  0.00  0.00    -0.325 N 
ATOM     13  C   UNL     1      34.520 -21.664 -19.476  0.00  0.00    +0.249 C 
ATOM     14  H   UNL     1      32.871 -22.846 -19.032  0.00  0.00    +0.145 HD
ATOM     15  H   UNL     1      32.542 -21.560 -20.103  0.00  0.00    +0.145 HD
ENDBRANCH   9  13
ENDBRANCH   4   7
BRANCH   3  16
ATOM     16  S   UNL     1      33.478 -13.697 -22.775  0.00  0.00    -0.074 S 
BRANCH  16  17
ATOM     17  C   UNL     1      33.854 -12.978 -24.405  0.00  0.00    +0.092 C 
BRANCH  17  18
ATOM     18  C   UNL     1      33.721 -11.450 -24.463  0.00  0.00    +0.101 C 
BRANCH  18  19
ATOM     19  O   UNL     1      35.018 -10.869 -24.611  0.00  0.00    -0.386 OA
ATOM     20  H   UNL     1      34.983  -9.932 -24.362  0.00  0.00    +0.210 HD
ENDBRANCH  18  19
BRANCH  18  21
ATOM     21  C   UNL     1      33.039 -10.782 -23.264  0.00  0.00    -0.051 C 
BRANCH  21  22
ATOM     22  N   UNL     1      32.232  -9.640 -23.658  0.00  0.00    +0.388 N 
ATOM     23  H   UNL     1      32.497  -9.351 -24.599  0.00  0.00    -0.084 HD
ATOM     24  H   UNL     1      31.249  -9.909 -23.637  0.00  0.00    -0.084 HD
BRANCH  22  25
ATOM     25  C   UNL     1      32.436  -8.520 -22.734  0.00  0.00    -0.046 C 
ATOM     26  C   UNL     1      33.852  -7.961 -22.916  0.00  0.00    -0.022 C 
ATOM     27  C   UNL     1      32.253  -9.030 -21.301  0.00  0.00    -0.022 C 
ATOM     28  C   UNL     1      31.398  -7.436 -23.042  0.00  0.00    -0.022 C 
ENDBRANCH  22  25
ENDBRANCH  21  22
ENDBRANCH  18  21
ENDBRANCH  17  18
ENDBRANCH  16  17
ENDBRANCH   3  16
TORSDOF 9
ENDMDL
MODEL 6
REMARK VINA RESULT:      -8.3      9.338     13.458
REMARK  Name = 2239
REMARK  9 active torsions:
REMARK  status: ('A' for Active; 'I' for Inactive)
REMARK    1  A    between atoms: C_3  and  S_16
REMARK    2  A    between atoms: C_4  and  C_7
REMARK    3  A    between atoms: C_9  and  C_13
REMARK    4  A    between atoms: S_16  and  C_17
REMARK    5  A    between atoms: C_17  and  C_18
REMARK    6  A    between atoms: C_18  and  O_19
REMARK    7  A    between atoms: C_18  and  C_21
REMARK    8  A    between atoms: C_21  and  N_22
REMARK    9  A    between atoms: N_22  and  C_25
REMARK                            x       y       z     vdW  Elec       q    Type
REMARK                         _______ _______ _______ _____ _____    ______ ____
ROOT
ATOM      1  S   UNL     1      31.967 -12.952 -21.526  0.00  0.00    -0.068 S 
ATOM      2  N   UNL     1      32.709 -11.103 -23.173  0.00  0.00    -0.392 NA
ATOM      3  C   UNL     1      32.714 -12.392 -22.955  0.00  0.00    +0.183 C 
ATOM      4  C   UNL     1      32.056 -10.489 -22.122  0.00  0.00    +0.127 C 
ATOM      5  C   UNL     1      31.584 -11.327 -21.134  0.00  0.00    +0.124 C 
ENDROOT
BRANCH   4   7
ATOM      6  S   UNL     1      31.203  -8.106 -23.348  0.00  0.00    -0.080 S 
ATOM      7  C   UNL     1      31.882  -9.026 -22.072  0.00  0.00    +0.056 C 
ATOM      8  C   UNL     1      32.241  -8.236 -21.001  0.00  0.00    +0.009 C 
ATOM      9  C   UNL     1      31.388  -6.649 -22.469  0.00  0.00    +0.083 C 
ATOM     10  C   UNL     1      31.955  -6.859 -21.231  0.00  0.00    +0.012 C 
BRANCH   9  13
ATOM     11  O   UNL     1      30.942  -5.194 -24.295  0.00  0.00    -0.270 OA
ATOM     12  N   UNL     1      30.556  -4.383 -22.211  0.00  0.00    -0.325 N 
ATOM     13  C   UNL     1      30.962  -5.422 -23.061  0.00  0.00    +0.249 C 
ATOM     14  H   UNL     1      30.257  -3.526 -22.590  0.00  0.00    +0.145 HD
ATOM     15  H   UNL     1      30.569  -4.512 -21.235  0.00  0.00    +0.145 HD
ENDBRANCH   9  13
ENDBRANCH   4   7
BRANCH   3  16
ATOM     16  S   UNL     1      33.472 -13.497 -24.107  0.00  0.00    -0.074 S 
BRANCH  16  17
ATOM     17  C   UNL     1      33.465 -15.024 -23.116  0.00  0.00    +0.092 C 
BRANCH  17  18
ATOM     18  C   UNL     1      34.844 -15.430 -22.578  0.00  0.00    +0.101 C 
BRANCH  18  19
ATOM     19  O   UNL     1      35.609 -16.013 -23.634  0.00  0.00    -0.386 OA
ATOM     20  H   UNL     1      35.183 -15.822 -24.485  0.00  0.00    +0.210 HD
ENDBRANCH  18  19
BRANCH  18  21
ATOM     21  C   UNL     1      34.852 -16.406 -21.396  0.00  0.00    -0.051 C 
BRANCH  21  22
ATOM     22  N   UNL     1      33.886 -17.478 -21.563  0.00  0.00    +0.388 N 
ATOM     23  H   UNL     1      33.234 -17.467 -20.779  0.00  0.00    -0.084 HD
ATOM     24  H   UNL     1      33.384 -17.335 -22.439  0.00  0.00    -0.084 HD
BRANCH  22  25
ATOM     25  C   UNL     1      34.562 -18.778 -21.612  0.00  0.00    -0.046 C 
ATOM     26  C   UNL     1      33.769 -19.795 -20.784  0.00  0.00    -0.022 C 
ATOM     27  C   UNL     1      35.973 -18.616 -21.035  0.00  0.00    -0.022 C 
ATOM     28  C   UNL     1      34.641 -19.234 -23.073  0.00  0.00    -0.022 C 
ENDBRANCH  22  25
ENDBRANCH  21  22
ENDBRANCH  18  21
ENDBRANCH  17  18
ENDBRANCH  16  17
ENDBRANCH   3  16
TORSDOF 9
ENDMDL
MODEL 7
REMARK VINA RESULT:      -8.3      3.374      6.265
REMARK  Name = 2239
REMARK  9 active torsions:
REMARK  status: ('A' for Active; 'I' for Inactive)
REMARK    1  A    between atoms: C_3  and  S_16
REMARK    2  A    between atoms: C_4  and  C_7
REMARK    3  A    between atoms: C_9  and  C_13
REMARK    4  A    between atoms: S_16  and  C_17
REMARK    5  A    between atoms: C_17  and  C_18
REMARK    6  A    between atoms: C_18  and  O_19
REMARK    7  A    between atoms: C_18  and  C_21
REMARK    8  A    between atoms: C_21  and  N_22
REMARK    9  A    between atoms: N_22  and  C_25
REMARK                            x       y       z     vdW  Elec       q    Type
REMARK                         _______ _______ _______ _____ _____    ______ ____
ROOT
ATOM      1  S   UNL     1      32.858 -23.543 -14.438  0.00  0.00    -0.068 S 
ATOM      2  N   UNL     1      34.636 -24.016 -16.253  0.00  0.00    -0.392 NA
ATOM      3  C   UNL     1      33.451 -23.509 -16.038  0.00  0.00    +0.183 C 
ATOM      4  C   UNL     1      35.134 -24.478 -15.051  0.00  0.00    +0.127 C 
ATOM      5  C   UNL     1      34.315 -24.310 -13.954  0.00  0.00    +0.124 C 
ENDROOT
BRANCH   4   7
ATOM      6  S   UNL     1      37.914 -24.238 -14.697  0.00  0.00    -0.080 S 
ATOM      7  C   UNL     1      36.463 -25.111 -14.957  0.00  0.00    +0.056 C 
ATOM      8  C   UNL     1      36.689 -26.466 -15.068  0.00  0.00    +0.009 C 
ATOM      9  C   UNL     1      38.847 -25.673 -14.731  0.00  0.00    +0.083 C 
ATOM     10  C   UNL     1      38.070 -26.791 -14.936  0.00  0.00    +0.012 C 
BRANCH   9  13
ATOM     11  O   UNL     1      40.954 -24.577 -14.824  0.00  0.00    -0.270 OA
ATOM     12  N   UNL     1      40.935 -26.711 -14.055  0.00  0.00    -0.325 N 
ATOM     13  C   UNL     1      40.260 -25.586 -14.551  0.00  0.00    +0.249 C 
ATOM     14  H   UNL     1      41.909 -26.681 -13.920  0.00  0.00    +0.145 HD
ATOM     15  H   UNL     1      40.433 -27.531 -13.840  0.00  0.00    +0.145 HD
ENDBRANCH   9  13
ENDBRANCH   4   7
BRANCH   3  16
ATOM     16  S   UNL     1      32.513 -22.819 -17.366  0.00  0.00    -0.074 S 
BRANCH  16  17
ATOM     17  C   UNL     1      33.866 -22.394 -18.509  0.00  0.00    +0.092 C 
BRANCH  17  18
ATOM     18  C   UNL     1      33.549 -21.223 -19.448  0.00  0.00    +0.101 C 
BRANCH  18  19
ATOM     19  O   UNL     1      32.642 -21.662 -20.461  0.00  0.00    -0.386 OA
ATOM     20  H   UNL     1      33.119 -21.766 -21.299  0.00  0.00    +0.210 HD
ENDBRANCH  18  19
BRANCH  18  21
ATOM     21  C   UNL     1      34.748 -20.566 -20.142  0.00  0.00    -0.051 C 
BRANCH  21  22
ATOM     22  N   UNL     1      34.362 -19.852 -21.346  0.00  0.00    +0.388 N 
ATOM     23  H   UNL     1      34.329 -20.506 -22.128  0.00  0.00    -0.084 HD
ATOM     24  H   UNL     1      33.444 -19.432 -21.200  0.00  0.00    -0.084 HD
BRANCH  22  25
ATOM     25  C   UNL     1      35.326 -18.789 -21.647  0.00  0.00    -0.046 C 
ATOM     26  C   UNL     1      34.796 -17.454 -21.113  0.00  0.00    -0.022 C 
ATOM     27  C   UNL     1      35.509 -18.712 -23.167  0.00  0.00    -0.022 C 
ATOM     28  C   UNL     1      36.660 -19.133 -20.975  0.00  0.00    -0.022 C 
ENDBRANCH  22  25
ENDBRANCH  21  22
ENDBRANCH  18  21
ENDBRANCH  17  18
ENDBRANCH  16  17
ENDBRANCH   3  16
TORSDOF 9
ENDMDL
MODEL 8
REMARK VINA RESULT:      -8.2      7.783     11.751
REMARK  Name = 2239
REMARK  9 active torsions:
REMARK  status: ('A' for Active; 'I' for Inactive)
REMARK    1  A    between atoms: C_3  and  S_16
REMARK    2  A    between atoms: C_4  and  C_7
REMARK    3  A    between atoms: C_9  and  C_13
REMARK    4  A    between atoms: S_16  and  C_17
REMARK    5  A    between atoms: C_17  and  C_18
REMARK    6  A    between atoms: C_18  and  O_19
REMARK    7  A    between atoms: C_18  and  C_21
REMARK    8  A    between atoms: C_21  and  N_22
REMARK    9  A    between atoms: N_22  and  C_25
REMARK                            x       y       z     vdW  Elec       q    Type
REMARK                         _______ _______ _______ _____ _____    ______ ____
ROOT
ATOM      1  S   UNL     1      33.144 -14.106 -25.926  0.00  0.00    -0.068 S 
ATOM      2  N   UNL     1      33.942 -14.617 -23.520  0.00  0.00    -0.392 NA
ATOM      3  C   UNL     1      33.510 -13.673 -24.315  0.00  0.00    +0.183 C 
ATOM      4  C   UNL     1      33.992 -15.797 -24.237  0.00  0.00    +0.127 C 
ATOM      5  C   UNL     1      33.598 -15.718 -25.556  0.00  0.00    +0.124 C 
ENDROOT
BRANCH   4   7
ATOM      6  S   UNL     1      34.629 -17.271 -21.928  0.00  0.00    -0.080 S 
ATOM      7  C   UNL     1      34.441 -17.057 -23.618  0.00  0.00    +0.056 C 
ATOM      8  C   UNL     1      34.759 -18.199 -24.320  0.00  0.00    +0.009 C 
ATOM      9  C   UNL     1      35.136 -18.893 -22.135  0.00  0.00    +0.083 C 
ATOM     10  C   UNL     1      35.161 -19.263 -23.461  0.00  0.00    +0.012 C 
BRANCH   9  13
ATOM     11  O   UNL     1      34.683 -20.475 -20.419  0.00  0.00    -0.270 OA
ATOM     12  N   UNL     1      36.738 -19.512 -20.419  0.00  0.00    -0.325 N 
ATOM     13  C   UNL     1      35.463 -19.669 -20.983  0.00  0.00    +0.249 C 
ATOM     14  H   UNL     1      36.992 -20.034 -19.625  0.00  0.00    +0.145 HD
ATOM     15  H   UNL     1      37.378 -18.880 -20.819  0.00  0.00    +0.145 HD
ENDBRANCH   9  13
ENDBRANCH   4   7
BRANCH   3  16
ATOM     16  S   UNL     1      33.321 -12.018 -23.727  0.00  0.00    -0.074 S 
BRANCH  16  17
ATOM     17  C   UNL     1      32.317 -12.335 -22.241  0.00  0.00    +0.092 C 
BRANCH  17  18
ATOM     18  C   UNL     1      31.592 -11.096 -21.698  0.00  0.00    +0.101 C 
BRANCH  18  19
ATOM     19  O   UNL     1      30.205 -11.395 -21.535  0.00  0.00    -0.386 OA
ATOM     20  H   UNL     1      30.004 -12.240 -21.968  0.00  0.00    +0.210 HD
ENDBRANCH  18  19
BRANCH  18  21
ATOM     21  C   UNL     1      31.704  -9.820 -22.540  0.00  0.00    -0.051 C 
BRANCH  21  22
ATOM     22  N   UNL     1      32.499  -8.797 -21.883  0.00  0.00    +0.388 N 
ATOM     23  H   UNL     1      32.089  -8.587 -20.972  0.00  0.00    -0.084 HD
ATOM     24  H   UNL     1      33.451  -9.143 -21.768  0.00  0.00    -0.084 HD
BRANCH  22  25
ATOM     25  C   UNL     1      32.533  -7.573 -22.690  0.00  0.00    -0.046 C 
ATOM     26  C   UNL     1      33.938  -7.388 -23.274  0.00  0.00    -0.022 C 
ATOM     27  C   UNL     1      32.176  -6.385 -21.790  0.00  0.00    -0.022 C 
ATOM     28  C   UNL     1      31.506  -7.703 -23.820  0.00  0.00    -0.022 C 
ENDBRANCH  22  25
ENDBRANCH  21  22
ENDBRANCH  18  21
ENDBRANCH  17  18
ENDBRANCH  16  17
ENDBRANCH   3  16
TORSDOF 9
ENDMDL
MODEL 9
REMARK VINA RESULT:      -8.2      4.640      9.082
REMARK  Name = 2239
REMARK  9 active torsions:
REMARK  status: ('A' for Active; 'I' for Inactive)
REMARK    1  A    between atoms: C_3  and  S_16
REMARK    2  A    between atoms: C_4  and  C_7
REMARK    3  A    between atoms: C_9  and  C_13
REMARK    4  A    between atoms: S_16  and  C_17
REMARK    5  A    between atoms: C_17  and  C_18
REMARK    6  A    between atoms: C_18  and  O_19
REMARK    7  A    between atoms: C_18  and  C_21
REMARK    8  A    between atoms: C_21  and  N_22
REMARK    9  A    between atoms: N_22  and  C_25
REMARK                            x       y       z     vdW  Elec       q    Type
REMARK                         _______ _______ _______ _____ _____    ______ ____
ROOT
ATOM      1  S   UNL     1      33.859 -21.706 -19.288  0.00  0.00    -0.068 S 
ATOM      2  N   UNL     1      35.765 -20.193 -20.160  0.00  0.00    -0.392 NA
ATOM      3  C   UNL     1      35.474 -21.154 -19.322  0.00  0.00    +0.183 C 
ATOM      4  C   UNL     1      34.615 -19.853 -20.845  0.00  0.00    +0.127 C 
ATOM      5  C   UNL     1      33.481 -20.563 -20.510  0.00  0.00    +0.124 C 
ENDROOT
BRANCH   4   7
ATOM      6  S   UNL     1      34.264 -17.150 -21.536  0.00  0.00    -0.080 S 
ATOM      7  C   UNL     1      34.612 -18.794 -21.871  0.00  0.00    +0.056 C 
ATOM      8  C   UNL     1      34.887 -19.001 -23.205  0.00  0.00    +0.009 C 
ATOM      9  C   UNL     1      34.482 -16.713 -23.177  0.00  0.00    +0.083 C 
ATOM     10  C   UNL     1      34.812 -17.797 -23.962  0.00  0.00    +0.012 C 
BRANCH   9  13
ATOM     11  O   UNL     1      34.776 -14.368 -22.928  0.00  0.00    -0.270 OA
ATOM     12  N   UNL     1      33.562 -15.072 -24.711  0.00  0.00    -0.325 N 
ATOM     13  C   UNL     1      34.315 -15.349 -23.560  0.00  0.00    +0.249 C 
ATOM     14  H   UNL     1      33.430 -14.141 -25.000  0.00  0.00    +0.145 HD
ATOM     15  H   UNL     1      33.168 -15.810 -25.231  0.00  0.00    +0.145 HD
ENDBRANCH   9  13
ENDBRANCH   4   7
BRANCH   3  16
ATOM     16  S   UNL     1      36.718 -21.840 -18.273  0.00  0.00    -0.074 S 
BRANCH  16  17
ATOM     17  C   UNL     1      35.665 -22.509 -16.947  0.00  0.00    +0.092 C 
BRANCH  17  18
ATOM     18  C   UNL     1      36.390 -22.705 -15.608  0.00  0.00    +0.101 C 
BRANCH  18  19
ATOM     19  O   UNL     1      37.594 -21.936 -15.607  0.00  0.00    -0.386 OA
ATOM     20  H   UNL     1      37.546 -21.262 -14.910  0.00  0.00    +0.210 HD
ENDBRANCH  18  19
BRANCH  18  21
ATOM     21  C   UNL     1      36.750 -24.148 -15.236  0.00  0.00    -0.051 C 
BRANCH  21  22
ATOM     22  N   UNL     1      38.183 -24.383 -15.278  0.00  0.00    +0.388 N 
ATOM     23  H   UNL     1      38.443 -24.701 -16.212  0.00  0.00    -0.084 HD
ATOM     24  H   UNL     1      38.666 -23.513 -15.056  0.00  0.00    -0.084 HD
BRANCH  22  25
ATOM     25  C   UNL     1      38.567 -25.403 -14.297  0.00  0.00    -0.046 C 
ATOM     26  C   UNL     1      40.042 -25.770 -14.496  0.00  0.00    -0.022 C 
ATOM     27  C   UNL     1      37.685 -26.638 -14.505  0.00  0.00    -0.022 C 
ATOM     28  C   UNL     1      38.351 -24.834 -12.890  0.00  0.00    -0.022 C 
ENDBRANCH  22  25
ENDBRANCH  21  22
ENDBRANCH  18  21
ENDBRANCH  17  18
ENDBRANCH  16  17
ENDBRANCH   3  16
TORSDOF 9
ENDMDL
