MODEL 1
REMARK VINA RESULT:     -10.7      0.000      0.000
REMARK  Name = 49853967
REMARK  7 active torsions:
REMARK  status: ('A' for Active; 'I' for Inactive)
REMARK    1  A    between atoms: O_1  and  C_2
REMARK    2  A    between atoms: O_1  and  C_17
REMARK    3  A    between atoms: C_7  and  C_9
REMARK    4  A    between atoms: C_12  and  C_14
REMARK    5  A    between atoms: C_16  and  N_20
REMARK    6  A    between atoms: N_20  and  S_22
REMARK    7  A    between atoms: S_22  and  C_25
REMARK                            x       y       z     vdW  Elec       q    Type
REMARK                         _______ _______ _______ _____ _____    ______ ____
ROOT
ATOM      1  O   UNL     1      34.723 -23.156 -17.510  0.00  0.00    -0.475 OA
ENDROOT
BRANCH   1   2
ATOM      2  C   UNL     1      34.738 -22.209 -18.508  0.00  0.00    +0.139 C 
ATOM      3  C   UNL     1      35.953 -21.707 -18.975  0.00  0.00    +0.037 C 
ATOM      4  C   UNL     1      33.539 -21.749 -19.050  0.00  0.00    +0.037 C 
ATOM      5  C   UNL     1      35.968 -20.745 -19.984  0.00  0.00    +0.004 C 
ATOM      6  C   UNL     1      33.553 -20.787 -20.060  0.00  0.00    +0.004 C 
ATOM      7  C   UNL     1      34.768 -20.284 -20.527  0.00  0.00    +0.006 C 
BRANCH   7   9
ATOM      8  S   UNL     1      34.681 -17.635 -21.140  0.00  0.00    -0.077 S 
ATOM      9  C   UNL     1      34.783 -19.289 -21.570  0.00  0.00    +0.030 C 
ATOM     10  C   UNL     1      34.871 -19.463 -22.934  0.00  0.00    +0.008 C 
ATOM     11  C   UNL     1      34.854 -18.223 -23.634  0.00  0.00    +0.017 C 
ATOM     12  C   UNL     1      34.754 -17.147 -22.779  0.00  0.00    +0.098 C 
BRANCH  12  14
ATOM     13  N   UNL     1      34.684 -14.672 -23.521  0.00  0.00    -0.190 NA
ATOM     14  C   UNL     1      34.716 -15.784 -23.188  0.00  0.00    +0.107 C 
ENDBRANCH  12  14
ENDBRANCH   7   9
ENDBRANCH   1   2
BRANCH   1  17
ATOM     15  O   UNL     1      36.422 -24.543 -15.478  0.00  0.00    -0.348 OA
ATOM     16  C   UNL     1      34.322 -23.504 -15.151  0.00  0.00    +0.147 C 
ATOM     17  C   UNL     1      35.087 -22.728 -16.200  0.00  0.00    +0.214 C 
ATOM     18  C   UNL     1      35.057 -24.829 -15.133  0.00  0.00    +0.163 C 
ATOM     19  C   UNL     1      36.508 -23.174 -15.918  0.00  0.00    +0.187 C 
BRANCH  16  20
ATOM     20  N   UNL     1      32.900 -23.673 -15.492  0.00  0.00    -0.179 NA
ATOM     21  H   UNL     1      32.588 -22.802 -15.919  0.00  0.00    +0.149 HD
BRANCH  20  22
ATOM     22  S   UNL     1      31.797 -24.043 -14.249  0.00  0.00    +0.039 S 
ATOM     23  O   UNL     1      32.060 -23.215 -13.088  0.00  0.00    -0.158 OA
ATOM     24  O   UNL     1      31.718 -25.486 -14.129  0.00  0.00    -0.158 OA
BRANCH  22  25
ATOM     25  C   UNL     1      30.275 -23.487 -14.983  0.00  0.00    +0.146 C 
ATOM     26  C   UNL     1      30.536 -22.913 -16.367  0.00  0.00    +0.027 C 
ATOM     27  C   UNL     1      29.269 -24.626 -15.034  0.00  0.00    +0.027 C 
ENDBRANCH  22  25
ENDBRANCH  20  22
ENDBRANCH  16  20
ENDBRANCH   1  17
TORSDOF 7
ENDMDL
MODEL 2
REMARK VINA RESULT:      -9.4      6.346     11.157
REMARK  Name = 49853967
REMARK  7 active torsions:
REMARK  status: ('A' for Active; 'I' for Inactive)
REMARK    1  A    between atoms: O_1  and  C_2
REMARK    2  A    between atoms: O_1  and  C_17
REMARK    3  A    between atoms: C_7  and  C_9
REMARK    4  A    between atoms: C_12  and  C_14
REMARK    5  A    between atoms: C_16  and  N_20
REMARK    6  A    between atoms: N_20  and  S_22
REMARK    7  A    between atoms: S_22  and  C_25
REMARK                            x       y       z     vdW  Elec       q    Type
REMARK                         _______ _______ _______ _____ _____    ______ ____
ROOT
ATOM      1  O   UNL     1      34.345 -13.685 -23.159  0.00  0.00    -0.475 OA
ENDROOT
BRANCH   1   2
ATOM      2  C   UNL     1      34.553 -14.937 -22.629  0.00  0.00    +0.139 C 
ATOM      3  C   UNL     1      34.400 -15.147 -21.258  0.00  0.00    +0.037 C 
ATOM      4  C   UNL     1      34.919 -15.995 -23.459  0.00  0.00    +0.037 C 
ATOM      5  C   UNL     1      34.614 -16.416 -20.719  0.00  0.00    +0.004 C 
ATOM      6  C   UNL     1      35.133 -17.263 -22.921  0.00  0.00    +0.004 C 
ATOM      7  C   UNL     1      34.980 -17.474 -21.551  0.00  0.00    +0.006 C 
BRANCH   7   9
ATOM      8  S   UNL     1      33.853 -19.791 -20.677  0.00  0.00    -0.077 S 
ATOM      9  C   UNL     1      35.202 -18.786 -20.993  0.00  0.00    +0.030 C 
ATOM     10  C   UNL     1      36.390 -19.395 -20.655  0.00  0.00    +0.008 C 
ATOM     11  C   UNL     1      36.191 -20.704 -20.130  0.00  0.00    +0.017 C 
ATOM     12  C   UNL     1      34.857 -21.045 -20.086  0.00  0.00    +0.098 C 
BRANCH  12  14
ATOM     13  N   UNL     1      33.938 -23.302 -19.224  0.00  0.00    -0.190 NA
ATOM     14  C   UNL     1      34.351 -22.289 -19.611  0.00  0.00    +0.107 C 
ENDBRANCH  12  14
ENDBRANCH   7   9
ENDBRANCH   1   2
BRANCH   1  17
ATOM     15  O   UNL     1      33.911 -11.998 -25.589  0.00  0.00    -0.348 OA
ATOM     16  C   UNL     1      32.571 -12.114 -23.643  0.00  0.00    +0.147 C 
ATOM     17  C   UNL     1      33.152 -13.485 -23.913  0.00  0.00    +0.214 C 
ATOM     18  C   UNL     1      33.472 -11.216 -24.467  0.00  0.00    +0.163 C 
ATOM     19  C   UNL     1      33.515 -13.367 -25.380  0.00  0.00    +0.187 C 
BRANCH  16  20
ATOM     20  N   UNL     1      32.599 -11.755 -22.216  0.00  0.00    -0.179 NA
ATOM     21  H   UNL     1      32.547 -12.625 -21.686  0.00  0.00    +0.149 HD
BRANCH  20  22
ATOM     22  S   UNL     1      31.388 -10.726 -21.606  0.00  0.00    +0.039 S 
ATOM     23  O   UNL     1      30.223 -11.501 -21.226  0.00  0.00    -0.158 OA
ATOM     24  O   UNL     1      31.265  -9.592 -22.501  0.00  0.00    -0.158 OA
BRANCH  22  25
ATOM     25  C   UNL     1      32.167 -10.146 -20.116  0.00  0.00    +0.146 C 
ATOM     26  C   UNL     1      32.248  -8.626 -20.122  0.00  0.00    +0.027 C 
ATOM     27  C   UNL     1      31.418 -10.658 -18.896  0.00  0.00    +0.027 C 
ENDBRANCH  22  25
ENDBRANCH  20  22
ENDBRANCH  16  20
ENDBRANCH   1  17
TORSDOF 7
ENDMDL
MODEL 3
REMARK VINA RESULT:      -9.3      6.204     11.130
REMARK  Name = 49853967
REMARK  7 active torsions:
REMARK  status: ('A' for Active; 'I' for Inactive)
REMARK    1  A    between atoms: O_1  and  C_2
REMARK    2  A    between atoms: O_1  and  C_17
REMARK    3  A    between atoms: C_7  and  C_9
REMARK    4  A    between atoms: C_12  and  C_14
REMARK    5  A    between atoms: C_16  and  N_20
REMARK    6  A    between atoms: N_20  and  S_22
REMARK    7  A    between atoms: S_22  and  C_25
REMARK                            x       y       z     vdW  Elec       q    Type
REMARK                         _______ _______ _______ _____ _____    ______ ____
ROOT
ATOM      1  O   UNL     1      34.430 -13.903 -23.241  0.00  0.00    -0.475 OA
ENDROOT
BRANCH   1   2
ATOM      2  C   UNL     1      34.634 -15.141 -22.678  0.00  0.00    +0.139 C 
ATOM      3  C   UNL     1      34.992 -16.223 -23.483  0.00  0.00    +0.037 C 
ATOM      4  C   UNL     1      34.478 -15.317 -21.304  0.00  0.00    +0.037 C 
ATOM      5  C   UNL     1      35.195 -17.480 -22.912  0.00  0.00    +0.004 C 
ATOM      6  C   UNL     1      34.682 -16.573 -20.733  0.00  0.00    +0.004 C 
ATOM      7  C   UNL     1      35.040 -17.655 -21.538  0.00  0.00    +0.006 C 
BRANCH   7   9
ATOM      8  S   UNL     1      33.892 -19.946 -20.624  0.00  0.00    -0.077 S 
ATOM      9  C   UNL     1      35.249 -18.954 -20.948  0.00  0.00    +0.030 C 
ATOM     10  C   UNL     1      36.431 -19.560 -20.582  0.00  0.00    +0.008 C 
ATOM     11  C   UNL     1      36.219 -20.856 -20.028  0.00  0.00    +0.017 C 
ATOM     12  C   UNL     1      34.883 -21.191 -19.992  0.00  0.00    +0.098 C 
BRANCH  12  14
ATOM     13  N   UNL     1      33.944 -23.423 -19.089  0.00  0.00    -0.190 NA
ATOM     14  C   UNL     1      34.366 -22.420 -19.494  0.00  0.00    +0.107 C 
ENDBRANCH  12  14
ENDBRANCH   7   9
ENDBRANCH   1   2
BRANCH   1  17
ATOM     15  O   UNL     1      33.782 -12.068 -25.510  0.00  0.00    -0.348 OA
ATOM     16  C   UNL     1      32.602 -12.338 -23.477  0.00  0.00    +0.147 C 
ATOM     17  C   UNL     1      33.178 -13.676 -23.883  0.00  0.00    +0.214 C 
ATOM     18  C   UNL     1      33.423 -11.371 -24.306  0.00  0.00    +0.163 C 
ATOM     19  C   UNL     1      33.422 -13.455 -25.363  0.00  0.00    +0.187 C 
BRANCH  16  20
ATOM     20  N   UNL     1      32.738 -12.073 -22.036  0.00  0.00    -0.179 NA
ATOM     21  H   UNL     1      32.773 -12.978 -21.566  0.00  0.00    +0.149 HD
BRANCH  20  22
ATOM     22  S   UNL     1      31.538 -11.153 -21.254  0.00  0.00    +0.039 S 
ATOM     23  O   UNL     1      31.449 -11.535 -19.858  0.00  0.00    -0.158 OA
ATOM     24  O   UNL     1      30.358 -11.140 -22.097  0.00  0.00    -0.158 OA
BRANCH  22  25
ATOM     25  C   UNL     1      32.263  -9.531 -21.332  0.00  0.00    +0.146 C 
ATOM     26  C   UNL     1      31.615  -8.716 -22.442  0.00  0.00    +0.027 C 
ATOM     27  C   UNL     1      32.140  -8.834 -19.985  0.00  0.00    +0.027 C 
ENDBRANCH  22  25
ENDBRANCH  20  22
ENDBRANCH  16  20
ENDBRANCH   1  17
TORSDOF 7
ENDMDL
MODEL 4
REMARK VINA RESULT:      -9.2      5.535     10.338
REMARK  Name = 49853967
REMARK  7 active torsions:
REMARK  status: ('A' for Active; 'I' for Inactive)
REMARK    1  A    between atoms: O_1  and  C_2
REMARK    2  A    between atoms: O_1  and  C_17
REMARK    3  A    between atoms: C_7  and  C_9
REMARK    4  A    between atoms: C_12  and  C_14
REMARK    5  A    between atoms: C_16  and  N_20
REMARK    6  A    between atoms: N_20  and  S_22
REMARK    7  A    between atoms: S_22  and  C_25
REMARK                            x       y       z     vdW  Elec       q    Type
REMARK                         _______ _______ _______ _____ _____    ______ ____
ROOT
ATOM      1  O   UNL     1      34.591 -15.677 -24.493  0.00  0.00    -0.475 OA
ENDROOT
BRANCH   1   2
ATOM      2  C   UNL     1      34.739 -16.706 -23.592  0.00  0.00    +0.139 C 
ATOM      3  C   UNL     1      34.977 -16.425 -22.246  0.00  0.00    +0.037 C 
ATOM      4  C   UNL     1      34.657 -18.029 -24.024  0.00  0.00    +0.037 C 
ATOM      5  C   UNL     1      35.132 -17.468 -21.333  0.00  0.00    +0.004 C 
ATOM      6  C   UNL     1      34.811 -19.072 -23.111  0.00  0.00    +0.004 C 
ATOM      7  C   UNL     1      35.049 -18.791 -21.765  0.00  0.00    +0.006 C 
BRANCH   7   9
ATOM      8  S   UNL     1      33.815 -20.652 -20.211  0.00  0.00    -0.077 S 
ATOM      9  C   UNL     1      35.210 -19.870 -20.821  0.00  0.00    +0.030 C 
ATOM     10  C   UNL     1      36.370 -20.403 -20.302  0.00  0.00    +0.008 C 
ATOM     11  C   UNL     1      36.109 -21.466 -19.392  0.00  0.00    +0.017 C 
ATOM     12  C   UNL     1      34.761 -21.707 -19.249  0.00  0.00    +0.098 C 
BRANCH  12  14
ATOM     13  N   UNL     1      33.737 -23.525 -17.723  0.00  0.00    -0.190 NA
ATOM     14  C   UNL     1      34.197 -22.708 -18.408  0.00  0.00    +0.107 C 
ENDBRANCH  12  14
ENDBRANCH   7   9
ENDBRANCH   1   2
BRANCH   1  17
ATOM     15  O   UNL     1      33.626 -14.149 -26.874  0.00  0.00    -0.348 OA
ATOM     16  C   UNL     1      33.040 -13.825 -24.606  0.00  0.00    +0.147 C 
ATOM     17  C   UNL     1      33.260 -15.302 -24.841  0.00  0.00    +0.214 C 
ATOM     18  C   UNL     1      33.735 -13.202 -25.799  0.00  0.00    +0.163 C 
ATOM     19  C   UNL     1      33.109 -15.386 -26.347  0.00  0.00    +0.187 C 
BRANCH  16  20
ATOM     20  N   UNL     1      33.616 -13.359 -23.334  0.00  0.00    -0.179 NA
ATOM     21  H   UNL     1      34.518 -13.824 -23.224  0.00  0.00    +0.149 HD
BRANCH  20  22
ATOM     22  S   UNL     1      32.744 -13.616 -21.895  0.00  0.00    +0.039 S 
ATOM     23  O   UNL     1      33.641 -13.581 -20.757  0.00  0.00    -0.158 OA
ATOM     24  O   UNL     1      31.851 -14.740 -22.102  0.00  0.00    -0.158 OA
BRANCH  22  25
ATOM     25  C   UNL     1      31.744 -12.146 -21.847  0.00  0.00    +0.146 C 
ATOM     26  C   UNL     1      31.543 -11.691 -20.409  0.00  0.00    +0.027 C 
ATOM     27  C   UNL     1      32.376 -11.052 -22.694  0.00  0.00    +0.027 C 
ENDBRANCH  22  25
ENDBRANCH  20  22
ENDBRANCH  16  20
ENDBRANCH   1  17
TORSDOF 7
ENDMDL
MODEL 5
REMARK VINA RESULT:      -9.0      4.668      9.324
REMARK  Name = 49853967
REMARK  7 active torsions:
REMARK  status: ('A' for Active; 'I' for Inactive)
REMARK    1  A    between atoms: O_1  and  C_2
REMARK    2  A    between atoms: O_1  and  C_17
REMARK    3  A    between atoms: C_7  and  C_9
REMARK    4  A    between atoms: C_12  and  C_14
REMARK    5  A    between atoms: C_16  and  N_20
REMARK    6  A    between atoms: N_20  and  S_22
REMARK    7  A    between atoms: S_22  and  C_25
REMARK                            x       y       z     vdW  Elec       q    Type
REMARK                         _______ _______ _______ _____ _____    ______ ____
ROOT
ATOM      1  O   UNL     1      35.591 -18.445 -22.958  0.00  0.00    -0.475 OA
ENDROOT
BRANCH   1   2
ATOM      2  C   UNL     1      35.607 -19.227 -21.827  0.00  0.00    +0.139 C 
ATOM      3  C   UNL     1      36.801 -19.423 -21.132  0.00  0.00    +0.037 C 
ATOM      4  C   UNL     1      34.433 -19.827 -21.377  0.00  0.00    +0.037 C 
ATOM      5  C   UNL     1      36.819 -20.219 -19.987  0.00  0.00    +0.004 C 
ATOM      6  C   UNL     1      34.449 -20.623 -20.231  0.00  0.00    +0.004 C 
ATOM      7  C   UNL     1      35.643 -20.819 -19.536  0.00  0.00    +0.006 C 
BRANCH   7   9
ATOM      8  S   UNL     1      37.031 -21.592 -17.327  0.00  0.00    -0.077 S 
ATOM      9  C   UNL     1      35.661 -21.643 -18.353  0.00  0.00    +0.030 C 
ATOM     10  C   UNL     1      34.700 -22.513 -17.887  0.00  0.00    +0.008 C 
ATOM     11  C   UNL     1      35.093 -23.146 -16.673  0.00  0.00    +0.017 C 
ATOM     12  C   UNL     1      36.340 -22.736 -16.257  0.00  0.00    +0.098 C 
BRANCH  12  14
ATOM     13  N   UNL     1      37.532 -23.568 -14.119  0.00  0.00    -0.190 NA
ATOM     14  C   UNL     1      36.997 -23.194 -15.079  0.00  0.00    +0.107 C 
ENDBRANCH  12  14
ENDBRANCH   7   9
ENDBRANCH   1   2
BRANCH   1  17
ATOM     15  O   UNL     1      34.805 -17.804 -25.770  0.00  0.00    -0.348 OA
ATOM     16  C   UNL     1      34.293 -16.589 -23.806  0.00  0.00    +0.147 C 
ATOM     17  C   UNL     1      34.316 -18.064 -23.470  0.00  0.00    +0.214 C 
ATOM     18  C   UNL     1      35.048 -16.547 -25.119  0.00  0.00    +0.163 C 
ATOM     19  C   UNL     1      34.138 -18.681 -24.843  0.00  0.00    +0.187 C 
BRANCH  16  20
ATOM     20  N   UNL     1      34.939 -15.760 -22.776  0.00  0.00    -0.179 NA
ATOM     21  H   UNL     1      35.752 -16.277 -22.441  0.00  0.00    +0.149 HD
BRANCH  20  22
ATOM     22  S   UNL     1      34.039 -15.302 -21.406  0.00  0.00    +0.039 S 
ATOM     23  O   UNL     1      34.894 -14.620 -20.455  0.00  0.00    -0.158 OA
ATOM     24  O   UNL     1      33.230 -16.435 -20.999  0.00  0.00    -0.158 OA
BRANCH  22  25
ATOM     25  C   UNL     1      32.943 -14.097 -22.119  0.00  0.00    +0.146 C 
ATOM     26  C   UNL     1      32.302 -13.255 -21.025  0.00  0.00    +0.027 C 
ATOM     27  C   UNL     1      33.692 -13.231 -23.120  0.00  0.00    +0.027 C 
ENDBRANCH  22  25
ENDBRANCH  20  22
ENDBRANCH  16  20
ENDBRANCH   1  17
TORSDOF 7
ENDMDL
MODEL 6
REMARK VINA RESULT:      -8.9      6.140     11.469
REMARK  Name = 49853967
REMARK  7 active torsions:
REMARK  status: ('A' for Active; 'I' for Inactive)
REMARK    1  A    between atoms: O_1  and  C_2
REMARK    2  A    between atoms: O_1  and  C_17
REMARK    3  A    between atoms: C_7  and  C_9
REMARK    4  A    between atoms: C_12  and  C_14
REMARK    5  A    between atoms: C_16  and  N_20
REMARK    6  A    between atoms: N_20  and  S_22
REMARK    7  A    between atoms: S_22  and  C_25
REMARK                            x       y       z     vdW  Elec       q    Type
REMARK                         _______ _______ _______ _____ _____    ______ ____
ROOT
ATOM      1  O   UNL     1      34.579 -14.958 -24.370  0.00  0.00    -0.475 OA
ENDROOT
BRANCH   1   2
ATOM      2  C   UNL     1      34.709 -16.056 -23.552  0.00  0.00    +0.139 C 
ATOM      3  C   UNL     1      34.598 -15.912 -22.169  0.00  0.00    +0.037 C 
ATOM      4  C   UNL     1      34.957 -17.311 -24.104  0.00  0.00    +0.037 C 
ATOM      5  C   UNL     1      34.734 -17.025 -21.339  0.00  0.00    +0.004 C 
ATOM      6  C   UNL     1      35.092 -18.425 -23.275  0.00  0.00    +0.004 C 
ATOM      7  C   UNL     1      34.981 -18.281 -21.892  0.00  0.00    +0.006 C 
BRANCH   7   9
ATOM      8  S   UNL     1      33.719 -20.292 -20.562  0.00  0.00    -0.077 S 
ATOM      9  C   UNL     1      35.122 -19.432 -21.034  0.00  0.00    +0.030 C 
ATOM     10  C   UNL     1      36.268 -19.982 -20.503  0.00  0.00    +0.008 C 
ATOM     11  C   UNL     1      35.990 -21.124 -19.698  0.00  0.00    +0.017 C 
ATOM     12  C   UNL     1      34.643 -21.404 -19.645  0.00  0.00    +0.098 C 
BRANCH  12  14
ATOM     13  N   UNL     1      33.592 -23.365 -18.329  0.00  0.00    -0.190 NA
ATOM     14  C   UNL     1      34.064 -22.484 -18.920  0.00  0.00    +0.107 C 
ENDBRANCH  12  14
ENDBRANCH   7   9
ENDBRANCH   1   2
BRANCH   1  17
ATOM     15  O   UNL     1      33.560 -14.260 -27.092  0.00  0.00    -0.348 OA
ATOM     16  C   UNL     1      33.177 -13.112 -25.059  0.00  0.00    +0.147 C 
ATOM     17  C   UNL     1      33.260 -14.594 -24.769  0.00  0.00    +0.214 C 
ATOM     18  C   UNL     1      33.826 -13.015 -26.425  0.00  0.00    +0.163 C 
ATOM     19  C   UNL     1      32.988 -15.178 -26.141  0.00  0.00    +0.187 C 
BRANCH  16  20
ATOM     20  N   UNL     1      33.883 -12.296 -24.059  0.00  0.00    -0.179 NA
ATOM     21  H   UNL     1      33.631 -12.661 -23.140  0.00  0.00    +0.149 HD
BRANCH  20  22
ATOM     22  S   UNL     1      33.602 -10.617 -24.023  0.00  0.00    +0.039 S 
ATOM     23  O   UNL     1      32.763 -10.230 -25.141  0.00  0.00    -0.158 OA
ATOM     24  O   UNL     1      34.868  -9.952 -23.780  0.00  0.00    -0.158 OA
BRANCH  22  25
ATOM     25  C   UNL     1      32.634 -10.476 -22.538  0.00  0.00    +0.146 C 
ATOM     26  C   UNL     1      31.632  -9.338 -22.668  0.00  0.00    +0.027 C 
ATOM     27  C   UNL     1      31.941 -11.796 -22.234  0.00  0.00    +0.027 C 
ENDBRANCH  22  25
ENDBRANCH  20  22
ENDBRANCH  16  20
ENDBRANCH   1  17
TORSDOF 7
ENDMDL
MODEL 7
REMARK VINA RESULT:      -8.8      4.097      9.231
REMARK  Name = 49853967
REMARK  7 active torsions:
REMARK  status: ('A' for Active; 'I' for Inactive)
REMARK    1  A    between atoms: O_1  and  C_2
REMARK    2  A    between atoms: O_1  and  C_17
REMARK    3  A    between atoms: C_7  and  C_9
REMARK    4  A    between atoms: C_12  and  C_14
REMARK    5  A    between atoms: C_16  and  N_20
REMARK    6  A    between atoms: N_20  and  S_22
REMARK    7  A    between atoms: S_22  and  C_25
REMARK                            x       y       z     vdW  Elec       q    Type
REMARK                         _______ _______ _______ _____ _____    ______ ____
ROOT
ATOM      1  O   UNL     1      35.555 -19.456 -21.888  0.00  0.00    -0.475 OA
ENDROOT
BRANCH   1   2
ATOM      2  C   UNL     1      35.387 -20.235 -20.767  0.00  0.00    +0.139 C 
ATOM      3  C   UNL     1      34.106 -20.620 -20.371  0.00  0.00    +0.037 C 
ATOM      4  C   UNL     1      36.496 -20.638 -20.025  0.00  0.00    +0.037 C 
ATOM      5  C   UNL     1      33.935 -21.407 -19.232  0.00  0.00    +0.004 C 
ATOM      6  C   UNL     1      36.326 -21.425 -18.887  0.00  0.00    +0.004 C 
ATOM      7  C   UNL     1      35.045 -21.810 -18.490  0.00  0.00    +0.006 C 
BRANCH   7   9
ATOM      8  S   UNL     1      36.170 -22.782 -16.212  0.00  0.00    -0.077 S 
ATOM      9  C   UNL     1      34.869 -22.623 -17.313  0.00  0.00    +0.030 C 
ATOM     10  C   UNL     1      33.760 -23.334 -16.907  0.00  0.00    +0.008 C 
ATOM     11  C   UNL     1      33.982 -24.017 -15.677  0.00  0.00    +0.017 C 
ATOM     12  C   UNL     1      35.252 -23.803 -15.189  0.00  0.00    +0.098 C 
BRANCH  12  14
ATOM     13  N   UNL     1      36.179 -24.804 -12.993  0.00  0.00    -0.190 NA
ATOM     14  C   UNL     1      35.763 -24.354 -13.979  0.00  0.00    +0.107 C 
ENDBRANCH  12  14
ENDBRANCH   7   9
ENDBRANCH   1   2
BRANCH   1  17
ATOM     15  O   UNL     1      35.282 -18.529 -24.717  0.00  0.00    -0.348 OA
ATOM     16  C   UNL     1      34.325 -17.573 -22.777  0.00  0.00    +0.147 C 
ATOM     17  C   UNL     1      34.380 -19.074 -22.599  0.00  0.00    +0.214 C 
ATOM     18  C   UNL     1      35.314 -17.346 -23.902  0.00  0.00    +0.163 C 
ATOM     19  C   UNL     1      34.508 -19.536 -24.037  0.00  0.00    +0.187 C 
BRANCH  16  20
ATOM     20  N   UNL     1      34.707 -16.840 -21.559  0.00  0.00    -0.179 NA
ATOM     21  H   UNL     1      34.164 -17.233 -20.789  0.00  0.00    +0.149 HD
BRANCH  20  22
ATOM     22  S   UNL     1      34.489 -15.153 -21.513  0.00  0.00    +0.039 S 
ATOM     23  O   UNL     1      34.919 -14.562 -22.765  0.00  0.00    -0.158 OA
ATOM     24  O   UNL     1      35.002 -14.665 -20.247  0.00  0.00    -0.158 OA
BRANCH  22  25
ATOM     25  C   UNL     1      32.715 -15.051 -21.441  0.00  0.00    +0.146 C 
ATOM     26  C   UNL     1      32.230 -15.295 -20.019  0.00  0.00    +0.027 C 
ATOM     27  C   UNL     1      32.243 -13.704 -21.966  0.00  0.00    +0.027 C 
ENDBRANCH  22  25
ENDBRANCH  20  22
ENDBRANCH  16  20
ENDBRANCH   1  17
TORSDOF 7
ENDMDL
MODEL 8
REMARK VINA RESULT:      -8.7      6.320     10.497
REMARK  Name = 49853967
REMARK  7 active torsions:
REMARK  status: ('A' for Active; 'I' for Inactive)
REMARK    1  A    between atoms: O_1  and  C_2
REMARK    2  A    between atoms: O_1  and  C_17
REMARK    3  A    between atoms: C_7  and  C_9
REMARK    4  A    between atoms: C_12  and  C_14
REMARK    5  A    between atoms: C_16  and  N_20
REMARK    6  A    between atoms: N_20  and  S_22
REMARK    7  A    between atoms: S_22  and  C_25
REMARK                            x       y       z     vdW  Elec       q    Type
REMARK                         _______ _______ _______ _____ _____    ______ ____
ROOT
ATOM      1  O   UNL     1      33.073 -14.973 -23.529  0.00  0.00    -0.475 OA
ENDROOT
BRANCH   1   2
ATOM      2  C   UNL     1      32.844 -13.658 -23.199  0.00  0.00    +0.139 C 
ATOM      3  C   UNL     1      32.060 -13.344 -22.089  0.00  0.00    +0.037 C 
ATOM      4  C   UNL     1      33.392 -12.638 -23.976  0.00  0.00    +0.037 C 
ATOM      5  C   UNL     1      31.824 -12.011 -21.756  0.00  0.00    +0.004 C 
ATOM      6  C   UNL     1      33.157 -11.304 -23.643  0.00  0.00    +0.004 C 
ATOM      7  C   UNL     1      32.373 -10.990 -22.532  0.00  0.00    +0.006 C 
BRANCH   7   9
ATOM      8  S   UNL     1      31.492  -8.559 -23.380  0.00  0.00    -0.077 S 
ATOM      9  C   UNL     1      32.129  -9.611 -22.189  0.00  0.00    +0.030 C 
ATOM     10  C   UNL     1      32.337  -8.966 -20.989  0.00  0.00    +0.008 C 
ATOM     11  C   UNL     1      31.969  -7.592 -21.049  0.00  0.00    +0.017 C 
ATOM     12  C   UNL     1      31.494  -7.238 -22.292  0.00  0.00    +0.098 C 
BRANCH  12  14
ATOM     13  N   UNL     1      30.688  -4.870 -22.946  0.00  0.00    -0.190 NA
ATOM     14  C   UNL     1      31.050  -5.933 -22.653  0.00  0.00    +0.107 C 
ENDBRANCH  12  14
ENDBRANCH   7   9
ENDBRANCH   1   2
BRANCH   1  17
ATOM     15  O   UNL     1      33.662 -16.552 -25.998  0.00  0.00    -0.348 OA
ATOM     16  C   UNL     1      34.688 -16.740 -23.876  0.00  0.00    +0.147 C 
ATOM     17  C   UNL     1      34.334 -15.289 -24.115  0.00  0.00    +0.214 C 
ATOM     18  C   UNL     1      33.820 -17.454 -24.891  0.00  0.00    +0.163 C 
ATOM     19  C   UNL     1      34.191 -15.266 -25.624  0.00  0.00    +0.187 C 
BRANCH  16  20
ATOM     20  N   UNL     1      34.395 -17.178 -22.501  0.00  0.00    -0.179 NA
ATOM     21  H   UNL     1      34.209 -16.339 -21.951  0.00  0.00    +0.149 HD
BRANCH  20  22
ATOM     22  S   UNL     1      35.570 -18.076 -21.658  0.00  0.00    +0.039 S 
ATOM     23  O   UNL     1      35.782 -17.506 -20.342  0.00  0.00    -0.158 OA
ATOM     24  O   UNL     1      36.687 -18.312 -22.554  0.00  0.00    -0.158 OA
BRANCH  22  25
ATOM     25  C   UNL     1      34.718 -19.624 -21.453  0.00  0.00    +0.146 C 
ATOM     26  C   UNL     1      35.475 -20.517 -20.481  0.00  0.00    +0.027 C 
ATOM     27  C   UNL     1      33.290 -19.381 -20.991  0.00  0.00    +0.027 C 
ENDBRANCH  22  25
ENDBRANCH  20  22
ENDBRANCH  16  20
ENDBRANCH   1  17
TORSDOF 7
ENDMDL
MODEL 9
REMARK VINA RESULT:      -8.5      2.387      4.242
REMARK  Name = 49853967
REMARK  7 active torsions:
REMARK  status: ('A' for Active; 'I' for Inactive)
REMARK    1  A    between atoms: O_1  and  C_2
REMARK    2  A    between atoms: O_1  and  C_17
REMARK    3  A    between atoms: C_7  and  C_9
REMARK    4  A    between atoms: C_12  and  C_14
REMARK    5  A    between atoms: C_16  and  N_20
REMARK    6  A    between atoms: N_20  and  S_22
REMARK    7  A    between atoms: S_22  and  C_25
REMARK                            x       y       z     vdW  Elec       q    Type
REMARK                         _______ _______ _______ _____ _____    ______ ____
ROOT
ATOM      1  O   UNL     1      35.888 -22.973 -16.757  0.00  0.00    -0.475 OA
ENDROOT
BRANCH   1   2
ATOM      2  C   UNL     1      35.702 -22.163 -17.854  0.00  0.00    +0.139 C 
ATOM      3  C   UNL     1      34.464 -22.131 -18.495  0.00  0.00    +0.037 C 
ATOM      4  C   UNL     1      36.753 -21.378 -18.326  0.00  0.00    +0.037 C 
ATOM      5  C   UNL     1      34.277 -21.313 -19.609  0.00  0.00    +0.004 C 
ATOM      6  C   UNL     1      36.566 -20.559 -19.440  0.00  0.00    +0.004 C 
ATOM      7  C   UNL     1      35.328 -20.527 -20.081  0.00  0.00    +0.006 C 
BRANCH   7   9
ATOM      8  S   UNL     1      35.361 -17.992 -21.070  0.00  0.00    -0.077 S 
ATOM      9  C   UNL     1      35.135 -19.681 -21.233  0.00  0.00    +0.030 C 
ATOM     10  C   UNL     1      34.777 -20.032 -22.517  0.00  0.00    +0.008 C 
ATOM     11  C   UNL     1      34.688 -18.900 -23.376  0.00  0.00    +0.017 C 
ATOM     12  C   UNL     1      34.981 -17.726 -22.717  0.00  0.00    +0.098 C 
BRANCH  12  14
ATOM     13  N   UNL     1      34.971 -15.380 -23.803  0.00  0.00    -0.190 NA
ATOM     14  C   UNL     1      34.975 -16.434 -23.316  0.00  0.00    +0.107 C 
ENDBRANCH  12  14
ENDBRANCH   7   9
ENDBRANCH   1   2
BRANCH   1  17
ATOM     15  O   UNL     1      34.002 -23.180 -14.447  0.00  0.00    -0.348 OA
ATOM     16  C   UNL     1      35.334 -24.891 -15.393  0.00  0.00    +0.147 C 
ATOM     17  C   UNL     1      34.890 -23.958 -16.497  0.00  0.00    +0.214 C 
ATOM     18  C   UNL     1      35.105 -24.052 -14.152  0.00  0.00    +0.163 C 
ATOM     19  C   UNL     1      33.697 -23.283 -15.851  0.00  0.00    +0.187 C 
BRANCH  16  20
ATOM     20  N   UNL     1      36.741 -25.301 -15.524  0.00  0.00    -0.179 NA
ATOM     21  H   UNL     1      36.806 -25.895 -16.350  0.00  0.00    +0.149 HD
BRANCH  20  22
ATOM     22  S   UNL     1      37.472 -26.149 -14.242  0.00  0.00    +0.039 S 
ATOM     23  O   UNL     1      38.172 -27.312 -14.751  0.00  0.00    -0.158 OA
ATOM     24  O   UNL     1      36.500 -26.277 -13.173  0.00  0.00    -0.158 OA
BRANCH  22  25
ATOM     25  C   UNL     1      38.690 -24.966 -13.714  0.00  0.00    +0.146 C 
ATOM     26  C   UNL     1      38.436 -24.557 -12.270  0.00  0.00    +0.027 C 
ATOM     27  C   UNL     1      40.089 -25.534 -13.893  0.00  0.00    +0.027 C 
ENDBRANCH  22  25
ENDBRANCH  20  22
ENDBRANCH  16  20
ENDBRANCH   1  17
TORSDOF 7
ENDMDL
