MODEL 1
REMARK VINA RESULT:     -12.2      0.000      0.000
REMARK  Name = 11581936
REMARK  5 active torsions:
REMARK  status: ('A' for Active; 'I' for Inactive)
REMARK    1  A    between atoms: C_1  and  C_9
REMARK    2  A    between atoms: C_4  and  O_19
REMARK    3  A    between atoms: C_10  and  C_14
REMARK    4  A    between atoms: O_19  and  C_20
REMARK    5  A    between atoms: C_20  and  C_22
REMARK                            x       y       z     vdW  Elec       q    Type
REMARK                         _______ _______ _______ _____ _____    ______ ____
ROOT
ATOM      1  C   UNL     1      34.084 -22.897 -16.921  0.00  0.00    +0.019 C 
ATOM      2  C   UNL     1      35.415 -22.481 -16.944  0.00  0.00    +0.005 C 
ATOM      3  C   UNL     1      33.295 -22.776 -18.065  0.00  0.00    +0.005 C 
ATOM      4  C   UNL     1      35.164 -21.825 -19.248  0.00  0.00    +0.139 C 
ATOM      5  C   UNL     1      35.956 -21.943 -18.112  0.00  0.00    +0.037 C 
ATOM      6  C   UNL     1      33.837 -22.239 -19.233  0.00  0.00    +0.037 C 
ENDROOT
BRANCH   1   9
ATOM      7  N   UNL     1      32.082 -23.920 -14.263  0.00  0.00    -0.208 N 
ATOM      8  N   UNL     1      32.230 -23.277 -15.434  0.00  0.00    -0.178 NA
ATOM      9  C   UNL     1      33.526 -23.451 -15.720  0.00  0.00    +0.100 C 
ATOM     10  C   UNL     1      34.197 -24.203 -14.731  0.00  0.00    +0.036 C 
ATOM     11  C   UNL     1      33.230 -24.492 -13.800  0.00  0.00    +0.086 C 
ATOM     12  C   UNL     1      30.789 -23.953 -13.623  0.00  0.00    +0.140 C 
BRANCH  10  14
ATOM     13  N   UNL     1      38.222 -25.458 -14.383  0.00  0.00    -0.242 NA
ATOM     14  C   UNL     1      35.559 -24.627 -14.615  0.00  0.00    +0.006 C 
ATOM     15  C   UNL     1      36.474 -23.860 -13.898  0.00  0.00    +0.021 C 
ATOM     16  C   UNL     1      35.980 -25.811 -15.215  0.00  0.00    +0.021 C 
ATOM     17  C   UNL     1      37.780 -24.315 -13.813  0.00  0.00    +0.099 C 
ATOM     18  C   UNL     1      37.308 -26.178 -15.072  0.00  0.00    +0.099 C 
ENDBRANCH  10  14
ENDBRANCH   1   9
BRANCH   4  19
ATOM     19  O   UNL     1      35.697 -21.297 -20.395  0.00  0.00    -0.468 OA
BRANCH  19  20
ATOM     20  C   UNL     1      36.423 -20.082 -20.264  0.00  0.00    +0.264 C 
BRANCH  20  22
ATOM     21  N   UNL     1      35.545 -17.852 -20.604  0.00  0.00    -0.406 NA
ATOM     22  C   UNL     1      35.828 -19.051 -21.164  0.00  0.00    +0.152 C 
ATOM     23  C   UNL     1      34.735 -17.117 -22.752  0.00  0.00    +0.026 C 
ATOM     24  C   UNL     1      35.007 -16.896 -21.386  0.00  0.00    +0.113 C 
ATOM     25  C   UNL     1      35.598 -19.359 -22.489  0.00  0.00    +0.031 C 
ATOM     26  C   UNL     1      35.043 -18.372 -23.291  0.00  0.00    +0.005 C 
ATOM     27  C   UNL     1      34.172 -16.097 -23.537  0.00  0.00    +0.002 C 
ATOM     28  C   UNL     1      34.701 -15.647 -20.850  0.00  0.00    +0.085 C 
ATOM     29  C   UNL     1      33.875 -14.857 -22.976  0.00  0.00    -0.004 C 
ATOM     30  C   UNL     1      34.141 -14.633 -21.631  0.00  0.00    -0.019 C 
ENDBRANCH  20  22
ENDBRANCH  19  20
ENDBRANCH   4  19
TORSDOF 5
ENDMDL
MODEL 2
REMARK VINA RESULT:     -11.7      1.454      3.438
REMARK  Name = 11581936
REMARK  5 active torsions:
REMARK  status: ('A' for Active; 'I' for Inactive)
REMARK    1  A    between atoms: C_1  and  C_9
REMARK    2  A    between atoms: C_4  and  O_19
REMARK    3  A    between atoms: C_10  and  C_14
REMARK    4  A    between atoms: O_19  and  C_20
REMARK    5  A    between atoms: C_20  and  C_22
REMARK                            x       y       z     vdW  Elec       q    Type
REMARK                         _______ _______ _______ _____ _____    ______ ____
ROOT
ATOM      1  C   UNL     1      34.590 -23.015 -16.558  0.00  0.00    +0.019 C 
ATOM      2  C   UNL     1      35.761 -22.388 -16.984  0.00  0.00    +0.005 C 
ATOM      3  C   UNL     1      33.472 -23.046 -17.391  0.00  0.00    +0.005 C 
ATOM      4  C   UNL     1      34.694 -21.827 -19.069  0.00  0.00    +0.139 C 
ATOM      5  C   UNL     1      35.812 -21.792 -18.244  0.00  0.00    +0.037 C 
ATOM      6  C   UNL     1      33.523 -22.450 -18.651  0.00  0.00    +0.037 C 
ENDROOT
BRANCH   1   9
ATOM      7  N   UNL     1      35.226 -24.488 -13.468  0.00  0.00    -0.208 N 
ATOM      8  N   UNL     1      35.667 -23.947 -14.617  0.00  0.00    -0.178 NA
ATOM      9  C   UNL     1      34.537 -23.630 -15.261  0.00  0.00    +0.100 C 
ATOM     10  C   UNL     1      33.384 -23.969 -14.521  0.00  0.00    +0.036 C 
ATOM     11  C   UNL     1      33.867 -24.524 -13.361  0.00  0.00    +0.086 C 
ATOM     12  C   UNL     1      36.175 -24.963 -12.490  0.00  0.00    +0.140 C 
BRANCH  10  14
ATOM     13  N   UNL     1      29.260 -23.533 -15.358  0.00  0.00    -0.242 NA
ATOM     14  C   UNL     1      31.989 -23.821 -14.805  0.00  0.00    +0.006 C 
ATOM     15  C   UNL     1      31.255 -24.897 -15.298  0.00  0.00    +0.021 C 
ATOM     16  C   UNL     1      31.354 -22.601 -14.589  0.00  0.00    +0.021 C 
ATOM     17  C   UNL     1      29.908 -24.702 -15.556  0.00  0.00    +0.099 C 
ATOM     18  C   UNL     1      30.003 -22.509 -14.878  0.00  0.00    +0.099 C 
ENDBRANCH  10  14
ENDBRANCH   1   9
BRANCH   4  19
ATOM     19  O   UNL     1      34.745 -21.241 -20.307  0.00  0.00    -0.468 OA
BRANCH  19  20
ATOM     20  C   UNL     1      35.876 -20.425 -20.583  0.00  0.00    +0.264 C 
BRANCH  20  22
ATOM     21  N   UNL     1      35.283 -18.082 -20.731  0.00  0.00    -0.406 NA
ATOM     22  C   UNL     1      35.449 -19.248 -21.397  0.00  0.00    +0.152 C 
ATOM     23  C   UNL     1      34.667 -17.054 -22.822  0.00  0.00    +0.026 C 
ATOM     24  C   UNL     1      34.898 -16.998 -21.432  0.00  0.00    +0.113 C 
ATOM     25  C   UNL     1      35.246 -19.400 -22.753  0.00  0.00    +0.031 C 
ATOM     26  C   UNL     1      34.849 -18.281 -23.473  0.00  0.00    +0.005 C 
ATOM     27  C   UNL     1      34.265 -15.904 -23.521  0.00  0.00    +0.002 C 
ATOM     28  C   UNL     1      34.717 -15.778 -20.786  0.00  0.00    +0.085 C 
ATOM     29  C   UNL     1      34.091 -14.696 -22.851  0.00  0.00    -0.004 C 
ATOM     30  C   UNL     1      34.317 -14.633 -21.482  0.00  0.00    -0.019 C 
ENDBRANCH  20  22
ENDBRANCH  19  20
ENDBRANCH   4  19
TORSDOF 5
ENDMDL
MODEL 3
REMARK VINA RESULT:     -11.6      3.816     11.556
REMARK  Name = 11581936
REMARK  5 active torsions:
REMARK  status: ('A' for Active; 'I' for Inactive)
REMARK    1  A    between atoms: C_1  and  C_9
REMARK    2  A    between atoms: C_4  and  O_19
REMARK    3  A    between atoms: C_10  and  C_14
REMARK    4  A    between atoms: O_19  and  C_20
REMARK    5  A    between atoms: C_20  and  C_22
REMARK                            x       y       z     vdW  Elec       q    Type
REMARK                         _______ _______ _______ _____ _____    ______ ____
ROOT
ATOM      1  C   UNL     1      33.485 -14.096 -22.802  0.00  0.00    +0.019 C 
ATOM      2  C   UNL     1      34.315 -14.619 -21.810  0.00  0.00    +0.005 C 
ATOM      3  C   UNL     1      33.318 -14.782 -24.005  0.00  0.00    +0.005 C 
ATOM      4  C   UNL     1      34.806 -16.506 -23.223  0.00  0.00    +0.139 C 
ATOM      5  C   UNL     1      34.978 -15.828 -22.022  0.00  0.00    +0.037 C 
ATOM      6  C   UNL     1      33.980 -15.991 -24.216  0.00  0.00    +0.037 C 
ENDROOT
BRANCH   1   9
ATOM      7  N   UNL     1      31.471 -11.470 -21.720  0.00  0.00    -0.208 N 
ATOM      8  N   UNL     1      31.876 -12.748 -21.622  0.00  0.00    -0.178 NA
ATOM      9  C   UNL     1      32.803 -12.851 -22.584  0.00  0.00    +0.100 C 
ATOM     10  C   UNL     1      32.982 -11.642 -23.288  0.00  0.00    +0.036 C 
ATOM     11  C   UNL     1      32.103 -10.765 -22.701  0.00  0.00    +0.086 C 
ATOM     12  C   UNL     1      30.453 -10.972 -20.826  0.00  0.00    +0.140 C 
BRANCH  10  14
ATOM     13  N   UNL     1      35.528 -10.595 -26.500  0.00  0.00    -0.242 NA
ATOM     14  C   UNL     1      33.845 -11.288 -24.374  0.00  0.00    +0.006 C 
ATOM     15  C   UNL     1      33.775 -11.981 -25.580  0.00  0.00    +0.021 C 
ATOM     16  C   UNL     1      34.759 -10.247 -24.235  0.00  0.00    +0.021 C 
ATOM     17  C   UNL     1      34.630 -11.599 -26.601  0.00  0.00    +0.099 C 
ATOM     18  C   UNL     1      35.570  -9.943 -25.316  0.00  0.00    +0.099 C 
ENDBRANCH  10  14
ENDBRANCH   1   9
BRANCH   4  19
ATOM     19  O   UNL     1      35.456 -17.694 -23.431  0.00  0.00    -0.468 OA
BRANCH  19  20
ATOM     20  C   UNL     1      36.245 -18.189 -22.356  0.00  0.00    +0.264 C 
BRANCH  20  22
ATOM     21  N   UNL     1      36.093 -19.860 -20.611  0.00  0.00    -0.406 NA
ATOM     22  C   UNL     1      35.427 -19.131 -21.536  0.00  0.00    +0.152 C 
ATOM     23  C   UNL     1      33.995 -20.876 -20.001  0.00  0.00    +0.026 C 
ATOM     24  C   UNL     1      35.388 -20.721 -19.852  0.00  0.00    +0.113 C 
ATOM     25  C   UNL     1      34.067 -19.214 -21.754  0.00  0.00    +0.031 C 
ATOM     26  C   UNL     1      33.344 -20.102 -20.971  0.00  0.00    +0.005 C 
ATOM     27  C   UNL     1      33.292 -21.785 -19.192  0.00  0.00    +0.002 C 
ATOM     28  C   UNL     1      36.035 -21.489 -18.887  0.00  0.00    +0.085 C 
ATOM     29  C   UNL     1      33.962 -22.542 -18.235  0.00  0.00    -0.004 C 
ATOM     30  C   UNL     1      35.335 -22.394 -18.083  0.00  0.00    -0.019 C 
ENDBRANCH  20  22
ENDBRANCH  19  20
ENDBRANCH   4  19
TORSDOF 5
ENDMDL
MODEL 4
REMARK VINA RESULT:     -11.5      0.933      1.675
REMARK  Name = 11581936
REMARK  5 active torsions:
REMARK  status: ('A' for Active; 'I' for Inactive)
REMARK    1  A    between atoms: C_1  and  C_9
REMARK    2  A    between atoms: C_4  and  O_19
REMARK    3  A    between atoms: C_10  and  C_14
REMARK    4  A    between atoms: O_19  and  C_20
REMARK    5  A    between atoms: C_20  and  C_22
REMARK                            x       y       z     vdW  Elec       q    Type
REMARK                         _______ _______ _______ _____ _____    ______ ____
ROOT
ATOM      1  C   UNL     1      33.909 -22.783 -17.308  0.00  0.00    +0.019 C 
ATOM      2  C   UNL     1      35.277 -22.513 -17.340  0.00  0.00    +0.005 C 
ATOM      3  C   UNL     1      33.104 -22.438 -18.393  0.00  0.00    +0.005 C 
ATOM      4  C   UNL     1      35.030 -21.555 -19.535  0.00  0.00    +0.139 C 
ATOM      5  C   UNL     1      35.839 -21.896 -18.458  0.00  0.00    +0.037 C 
ATOM      6  C   UNL     1      33.666 -21.822 -19.511  0.00  0.00    +0.037 C 
ENDROOT
BRANCH   1   9
ATOM      7  N   UNL     1      31.841 -24.154 -14.865  0.00  0.00    -0.208 N 
ATOM      8  N   UNL     1      32.000 -23.520 -16.039  0.00  0.00    -0.178 NA
ATOM      9  C   UNL     1      33.330 -23.418 -16.157  0.00  0.00    +0.100 C 
ATOM     10  C   UNL     1      34.010 -23.988 -15.060  0.00  0.00    +0.036 C 
ATOM     11  C   UNL     1      33.015 -24.458 -14.239  0.00  0.00    +0.086 C 
ATOM     12  C   UNL     1      30.513 -24.449 -14.385  0.00  0.00    +0.140 C 
BRANCH  10  14
ATOM     13  N   UNL     1      38.131 -24.345 -14.168  0.00  0.00    -0.242 NA
ATOM     14  C   UNL     1      35.405 -24.108 -14.759  0.00  0.00    +0.006 C 
ATOM     15  C   UNL     1      36.053 -23.117 -14.027  0.00  0.00    +0.021 C 
ATOM     16  C   UNL     1      36.124 -25.218 -15.194  0.00  0.00    +0.021 C 
ATOM     17  C   UNL     1      37.403 -23.281 -13.761  0.00  0.00    +0.099 C 
ATOM     18  C   UNL     1      37.470 -25.288 -14.876  0.00  0.00    +0.099 C 
ENDBRANCH  10  14
ENDBRANCH   1   9
BRANCH   4  19
ATOM     19  O   UNL     1      35.583 -20.949 -20.634  0.00  0.00    -0.468 OA
BRANCH  19  20
ATOM     20  C   UNL     1      36.288 -19.735 -20.409  0.00  0.00    +0.264 C 
BRANCH  20  22
ATOM     21  N   UNL     1      35.519 -18.959 -22.570  0.00  0.00    -0.406 NA
ATOM     22  C   UNL     1      35.704 -18.659 -21.263  0.00  0.00    +0.152 C 
ATOM     23  C   UNL     1      34.641 -16.737 -22.885  0.00  0.00    +0.026 C 
ATOM     24  C   UNL     1      34.994 -18.012 -23.371  0.00  0.00    +0.113 C 
ATOM     25  C   UNL     1      35.388 -17.441 -20.697  0.00  0.00    +0.031 C 
ATOM     26  C   UNL     1      34.848 -16.468 -21.526  0.00  0.00    +0.005 C 
ATOM     27  C   UNL     1      34.096 -15.773 -23.751  0.00  0.00    +0.002 C 
ATOM     28  C   UNL     1      34.788 -18.279 -24.722  0.00  0.00    +0.085 C 
ATOM     29  C   UNL     1      33.900 -16.066 -25.098  0.00  0.00    -0.004 C 
ATOM     30  C   UNL     1      34.246 -17.321 -25.584  0.00  0.00    -0.019 C 
ENDBRANCH  20  22
ENDBRANCH  19  20
ENDBRANCH   4  19
TORSDOF 5
ENDMDL
MODEL 5
REMARK VINA RESULT:     -11.4      1.528      3.669
REMARK  Name = 11581936
REMARK  5 active torsions:
REMARK  status: ('A' for Active; 'I' for Inactive)
REMARK    1  A    between atoms: C_1  and  C_9
REMARK    2  A    between atoms: C_4  and  O_19
REMARK    3  A    between atoms: C_10  and  C_14
REMARK    4  A    between atoms: O_19  and  C_20
REMARK    5  A    between atoms: C_20  and  C_22
REMARK                            x       y       z     vdW  Elec       q    Type
REMARK                         _______ _______ _______ _____ _____    ______ ____
ROOT
ATOM      1  C   UNL     1      35.016 -22.679 -17.370  0.00  0.00    +0.019 C 
ATOM      2  C   UNL     1      36.134 -21.928 -17.732  0.00  0.00    +0.005 C 
ATOM      3  C   UNL     1      33.881 -22.674 -18.180  0.00  0.00    +0.005 C 
ATOM      4  C   UNL     1      34.982 -21.174 -19.707  0.00  0.00    +0.139 C 
ATOM      5  C   UNL     1      36.117 -21.173 -18.905  0.00  0.00    +0.037 C 
ATOM      6  C   UNL     1      33.863 -21.920 -19.354  0.00  0.00    +0.037 C 
ENDROOT
BRANCH   1   9
ATOM      7  N   UNL     1      35.805 -24.647 -14.609  0.00  0.00    -0.208 N 
ATOM      8  N   UNL     1      36.173 -24.016 -15.737  0.00  0.00    -0.178 NA
ATOM      9  C   UNL     1      35.034 -23.457 -16.163  0.00  0.00    +0.100 C 
ATOM     10  C   UNL     1      33.947 -23.733 -15.307  0.00  0.00    +0.036 C 
ATOM     11  C   UNL     1      34.482 -24.508 -14.307  0.00  0.00    +0.086 C 
ATOM     12  C   UNL     1      36.785 -25.383 -13.847  0.00  0.00    +0.140 C 
BRANCH  10  14
ATOM     13  N   UNL     1      29.872 -22.610 -15.467  0.00  0.00    -0.242 NA
ATOM     14  C   UNL     1      32.568 -23.354 -15.361  0.00  0.00    +0.006 C 
ATOM     15  C   UNL     1      31.923 -22.889 -14.218  0.00  0.00    +0.021 C 
ATOM     16  C   UNL     1      31.861 -23.446 -16.557  0.00  0.00    +0.021 C 
ATOM     17  C   UNL     1      30.588 -22.533 -14.323  0.00  0.00    +0.099 C 
ATOM     18  C   UNL     1      30.529 -23.066 -16.557  0.00  0.00    +0.099 C 
ENDBRANCH  10  14
ENDBRANCH   1   9
BRANCH   4  19
ATOM     19  O   UNL     1      34.965 -20.432 -20.860  0.00  0.00    -0.468 OA
BRANCH  19  20
ATOM     20  C   UNL     1      35.976 -19.442 -20.999  0.00  0.00    +0.264 C 
BRANCH  20  22
ATOM     21  N   UNL     1      35.180 -18.286 -22.972  0.00  0.00    -0.406 NA
ATOM     22  C   UNL     1      35.392 -18.225 -21.637  0.00  0.00    +0.152 C 
ATOM     23  C   UNL     1      34.327 -16.035 -22.870  0.00  0.00    +0.026 C 
ATOM     24  C   UNL     1      34.654 -17.207 -23.582  0.00  0.00    +0.113 C 
ATOM     25  C   UNL     1      35.104 -17.123 -20.857  0.00  0.00    +0.031 C 
ATOM     26  C   UNL     1      34.562 -16.013 -21.489  0.00  0.00    +0.005 C 
ATOM     27  C   UNL     1      33.780 -14.927 -23.540  0.00  0.00    +0.002 C 
ATOM     28  C   UNL     1      34.419 -17.227 -24.955  0.00  0.00    +0.085 C 
ATOM     29  C   UNL     1      33.556 -14.974 -24.914  0.00  0.00    -0.004 C 
ATOM     30  C   UNL     1      33.876 -16.125 -25.621  0.00  0.00    -0.019 C 
ENDBRANCH  20  22
ENDBRANCH  19  20
ENDBRANCH   4  19
TORSDOF 5
ENDMDL
MODEL 6
REMARK VINA RESULT:     -11.3      3.097     11.060
REMARK  Name = 11581936
REMARK  5 active torsions:
REMARK  status: ('A' for Active; 'I' for Inactive)
REMARK    1  A    between atoms: C_1  and  C_9
REMARK    2  A    between atoms: C_4  and  O_19
REMARK    3  A    between atoms: C_10  and  C_14
REMARK    4  A    between atoms: O_19  and  C_20
REMARK    5  A    between atoms: C_20  and  C_22
REMARK                            x       y       z     vdW  Elec       q    Type
REMARK                         _______ _______ _______ _____ _____    ______ ____
ROOT
ATOM      1  C   UNL     1      33.598 -14.952 -21.991  0.00  0.00    +0.019 C 
ATOM      2  C   UNL     1      33.281 -15.916 -21.034  0.00  0.00    +0.005 C 
ATOM      3  C   UNL     1      34.610 -15.197 -22.919  0.00  0.00    +0.005 C 
ATOM      4  C   UNL     1      34.983 -17.362 -21.935  0.00  0.00    +0.139 C 
ATOM      5  C   UNL     1      33.976 -17.126 -21.007  0.00  0.00    +0.037 C 
ATOM      6  C   UNL     1      35.305 -16.406 -22.892  0.00  0.00    +0.037 C 
ENDROOT
BRANCH   1   9
ATOM      7  N   UNL     1      31.784 -12.060 -21.307  0.00  0.00    -0.208 N 
ATOM      8  N   UNL     1      32.362 -13.201 -20.894  0.00  0.00    -0.178 NA
ATOM      9  C   UNL     1      32.883 -13.707 -22.019  0.00  0.00    +0.100 C 
ATOM     10  C   UNL     1      32.635 -12.888 -23.141  0.00  0.00    +0.036 C 
ATOM     11  C   UNL     1      31.920 -11.826 -22.644  0.00  0.00    +0.086 C 
ATOM     12  C   UNL     1      31.102 -11.218 -20.355  0.00  0.00    +0.140 C 
BRANCH  10  14
ATOM     13  N   UNL     1      33.687 -13.289 -27.219  0.00  0.00    -0.242 NA
ATOM     14  C   UNL     1      32.992 -13.024 -24.521  0.00  0.00    +0.006 C 
ATOM     15  C   UNL     1      32.611 -14.156 -25.236  0.00  0.00    +0.021 C 
ATOM     16  C   UNL     1      33.721 -12.024 -25.159  0.00  0.00    +0.021 C 
ATOM     17  C   UNL     1      32.980 -14.239 -26.569  0.00  0.00    +0.099 C 
ATOM     18  C   UNL     1      34.041 -12.202 -26.495  0.00  0.00    +0.099 C 
ENDBRANCH  10  14
ENDBRANCH   1   9
BRANCH   4  19
ATOM     19  O   UNL     1      35.665 -18.551 -21.908  0.00  0.00    -0.468 OA
BRANCH  19  20
ATOM     20  C   UNL     1      34.883 -19.738 -21.921  0.00  0.00    +0.264 C 
BRANCH  20  22
ATOM     21  N   UNL     1      34.035 -21.099 -20.107  0.00  0.00    -0.406 NA
ATOM     22  C   UNL     1      35.115 -20.496 -20.657  0.00  0.00    +0.152 C 
ATOM     23  C   UNL     1      35.466 -21.900 -18.341  0.00  0.00    +0.026 C 
ATOM     24  C   UNL     1      34.206 -21.793 -18.965  0.00  0.00    +0.113 C 
ATOM     25  C   UNL     1      36.385 -20.546 -20.119  0.00  0.00    +0.031 C 
ATOM     26  C   UNL     1      36.557 -21.260 -18.942  0.00  0.00    +0.005 C 
ATOM     27  C   UNL     1      35.606 -22.630 -17.149  0.00  0.00    +0.002 C 
ATOM     28  C   UNL     1      33.121 -22.428 -18.367  0.00  0.00    +0.085 C 
ATOM     29  C   UNL     1      34.505 -23.257 -16.571  0.00  0.00    -0.004 C 
ATOM     30  C   UNL     1      33.261 -23.155 -17.181  0.00  0.00    -0.019 C 
ENDBRANCH  20  22
ENDBRANCH  19  20
ENDBRANCH   4  19
TORSDOF 5
ENDMDL
MODEL 7
REMARK VINA RESULT:     -10.5      4.298     12.332
REMARK  Name = 11581936
REMARK  5 active torsions:
REMARK  status: ('A' for Active; 'I' for Inactive)
REMARK    1  A    between atoms: C_1  and  C_9
REMARK    2  A    between atoms: C_4  and  O_19
REMARK    3  A    between atoms: C_10  and  C_14
REMARK    4  A    between atoms: O_19  and  C_20
REMARK    5  A    between atoms: C_20  and  C_22
REMARK                            x       y       z     vdW  Elec       q    Type
REMARK                         _______ _______ _______ _____ _____    ______ ____
ROOT
ATOM      1  C   UNL     1      33.028 -12.588 -22.604  0.00  0.00    +0.019 C 
ATOM      2  C   UNL     1      32.196 -13.259 -21.708  0.00  0.00    +0.005 C 
ATOM      3  C   UNL     1      34.035 -13.282 -23.274  0.00  0.00    +0.005 C 
ATOM      4  C   UNL     1      33.376 -15.310 -22.156  0.00  0.00    +0.139 C 
ATOM      5  C   UNL     1      32.371 -14.625 -21.484  0.00  0.00    +0.037 C 
ATOM      6  C   UNL     1      34.210 -14.648 -23.051  0.00  0.00    +0.037 C 
ENDROOT
BRANCH   1   9
ATOM      7  N   UNL     1      32.223  -9.203 -22.491  0.00  0.00    -0.208 N 
ATOM      8  N   UNL     1      32.190 -10.430 -21.944  0.00  0.00    -0.178 NA
ATOM      9  C   UNL     1      32.848 -11.182 -22.835  0.00  0.00    +0.100 C 
ATOM     10  C   UNL     1      33.295 -10.433 -23.943  0.00  0.00    +0.036 C 
ATOM     11  C   UNL     1      32.874  -9.151 -23.689  0.00  0.00    +0.086 C 
ATOM     12  C   UNL     1      31.600  -8.096 -21.806  0.00  0.00    +0.140 C 
BRANCH  10  14
ATOM     13  N   UNL     1      35.448 -11.535 -27.415  0.00  0.00    -0.242 NA
ATOM     14  C   UNL     1      34.025 -10.806 -25.117  0.00  0.00    +0.006 C 
ATOM     15  C   UNL     1      33.551 -11.821 -25.944  0.00  0.00    +0.021 C 
ATOM     16  C   UNL     1      35.212 -10.156 -25.443  0.00  0.00    +0.021 C 
ATOM     17  C   UNL     1      34.293 -12.144 -27.069  0.00  0.00    +0.099 C 
ATOM     18  C   UNL     1      35.879 -10.553 -26.590  0.00  0.00    +0.099 C 
ENDBRANCH  10  14
ENDBRANCH   1   9
BRANCH   4  19
ATOM     19  O   UNL     1      33.548 -16.652 -21.936  0.00  0.00    -0.468 OA
BRANCH  19  20
ATOM     20  C   UNL     1      34.780 -17.218 -22.365  0.00  0.00    +0.264 C 
BRANCH  20  22
ATOM     21  N   UNL     1      34.036 -19.117 -21.059  0.00  0.00    -0.406 NA
ATOM     22  C   UNL     1      35.093 -18.412 -21.526  0.00  0.00    +0.152 C 
ATOM     23  C   UNL     1      35.592 -20.608 -19.982  0.00  0.00    +0.026 C 
ATOM     24  C   UNL     1      34.280 -20.201 -20.298  0.00  0.00    +0.113 C 
ATOM     25  C   UNL     1      36.411 -18.734 -21.269  0.00  0.00    +0.031 C 
ATOM     26  C   UNL     1      36.658 -19.851 -20.485  0.00  0.00    +0.005 C 
ATOM     27  C   UNL     1      35.809 -21.744 -19.183  0.00  0.00    +0.002 C 
ATOM     28  C   UNL     1      33.221 -20.954 -19.798  0.00  0.00    +0.085 C 
ATOM     29  C   UNL     1      34.733 -22.480 -18.696  0.00  0.00    -0.004 C 
ATOM     30  C   UNL     1      33.437 -22.084 -19.004  0.00  0.00    -0.019 C 
ENDBRANCH  20  22
ENDBRANCH  19  20
ENDBRANCH   4  19
TORSDOF 5
ENDMDL
MODEL 8
REMARK VINA RESULT:     -10.3      7.389     14.424
REMARK  Name = 11581936
REMARK  5 active torsions:
REMARK  status: ('A' for Active; 'I' for Inactive)
REMARK    1  A    between atoms: C_1  and  C_9
REMARK    2  A    between atoms: C_4  and  O_19
REMARK    3  A    between atoms: C_10  and  C_14
REMARK    4  A    between atoms: O_19  and  C_20
REMARK    5  A    between atoms: C_20  and  C_22
REMARK                            x       y       z     vdW  Elec       q    Type
REMARK                         _______ _______ _______ _____ _____    ______ ____
ROOT
ATOM      1  C   UNL     1      33.181  -9.549 -23.080  0.00  0.00    +0.019 C 
ATOM      2  C   UNL     1      34.218  -9.544 -24.012  0.00  0.00    +0.005 C 
ATOM      3  C   UNL     1      32.425 -10.704 -22.883  0.00  0.00    +0.005 C 
ATOM      4  C   UNL     1      33.743 -11.844 -24.545  0.00  0.00    +0.139 C 
ATOM      5  C   UNL     1      34.500 -10.696 -24.747  0.00  0.00    +0.037 C 
ATOM      6  C   UNL     1      32.707 -11.856 -23.617  0.00  0.00    +0.037 C 
ENDROOT
BRANCH   1   9
ATOM      7  N   UNL     1      32.368  -7.172 -20.669  0.00  0.00    -0.208 N 
ATOM      8  N   UNL     1      32.564  -8.452 -21.027  0.00  0.00    -0.178 NA
ATOM      9  C   UNL     1      32.890  -8.364 -22.323  0.00  0.00    +0.100 C 
ATOM     10  C   UNL     1      32.900  -7.030 -22.783  0.00  0.00    +0.036 C 
ATOM     11  C   UNL     1      32.557  -6.281 -21.684  0.00  0.00    +0.086 C 
ATOM     12  C   UNL     1      31.993  -6.858 -19.311  0.00  0.00    +0.140 C 
BRANCH  10  14
ATOM     13  N   UNL     1      33.736  -5.357 -26.577  0.00  0.00    -0.242 NA
ATOM     14  C   UNL     1      33.183  -6.465 -24.067  0.00  0.00    +0.006 C 
ATOM     15  C   UNL     1      32.201  -5.756 -24.754  0.00  0.00    +0.021 C 
ATOM     16  C   UNL     1      34.443  -6.617 -24.639  0.00  0.00    +0.021 C 
ATOM     17  C   UNL     1      32.525  -5.228 -25.993  0.00  0.00    +0.099 C 
ATOM     18  C   UNL     1      34.667  -6.051 -25.883  0.00  0.00    +0.099 C 
ENDBRANCH  10  14
ENDBRANCH   1   9
BRANCH   4  19
ATOM     19  O   UNL     1      34.020 -12.975 -25.267  0.00  0.00    -0.468 OA
BRANCH  19  20
ATOM     20  C   UNL     1      33.044 -14.009 -25.236  0.00  0.00    +0.264 C 
BRANCH  20  22
ATOM     21  N   UNL     1      33.920 -15.335 -23.410  0.00  0.00    -0.406 NA
ATOM     22  C   UNL     1      33.674 -15.268 -24.739  0.00  0.00    +0.152 C 
ATOM     23  C   UNL     1      34.826 -17.541 -23.758  0.00  0.00    +0.026 C 
ATOM     24  C   UNL     1      34.488 -16.456 -22.924  0.00  0.00    +0.113 C 
ATOM     25  C   UNL     1      33.970 -16.277 -25.632  0.00  0.00    +0.031 C 
ATOM     26  C   UNL     1      34.555 -17.430 -25.128  0.00  0.00    +0.005 C 
ATOM     27  C   UNL     1      35.418 -18.694 -23.217  0.00  0.00    +0.002 C 
ATOM     28  C   UNL     1      34.757 -16.567 -21.562  0.00  0.00    +0.085 C 
ATOM     29  C   UNL     1      35.678 -18.780 -21.851  0.00  0.00    -0.004 C 
ATOM     30  C   UNL     1      35.347 -17.714 -21.023  0.00  0.00    -0.019 C 
ENDBRANCH  20  22
ENDBRANCH  19  20
ENDBRANCH   4  19
TORSDOF 5
ENDMDL
MODEL 9
REMARK VINA RESULT:     -10.1      7.601     12.284
REMARK  Name = 11581936
REMARK  5 active torsions:
REMARK  status: ('A' for Active; 'I' for Inactive)
REMARK    1  A    between atoms: C_1  and  C_9
REMARK    2  A    between atoms: C_4  and  O_19
REMARK    3  A    between atoms: C_10  and  C_14
REMARK    4  A    between atoms: O_19  and  C_20
REMARK    5  A    between atoms: C_20  and  C_22
REMARK                            x       y       z     vdW  Elec       q    Type
REMARK                         _______ _______ _______ _____ _____    ______ ____
ROOT
ATOM      1  C   UNL     1      32.930 -14.179 -22.063  0.00  0.00    +0.019 C 
ATOM      2  C   UNL     1      32.306 -13.187 -22.820  0.00  0.00    +0.005 C 
ATOM      3  C   UNL     1      32.932 -14.096 -20.671  0.00  0.00    +0.005 C 
ATOM      4  C   UNL     1      31.690 -12.038 -20.795  0.00  0.00    +0.139 C 
ATOM      5  C   UNL     1      31.684 -12.113 -22.183  0.00  0.00    +0.037 C 
ATOM      6  C   UNL     1      32.309 -13.023 -20.034  0.00  0.00    +0.037 C 
ENDROOT
BRANCH   1   9
ATOM      7  N   UNL     1      34.532 -17.143 -22.939  0.00  0.00    -0.208 N 
ATOM      8  N   UNL     1      34.003 -16.333 -22.006  0.00  0.00    -0.178 NA
ATOM      9  C   UNL     1      33.570 -15.285 -22.718  0.00  0.00    +0.100 C 
ATOM     10  C   UNL     1      33.826 -15.432 -24.098  0.00  0.00    +0.036 C 
ATOM     11  C   UNL     1      34.451 -16.650 -24.208  0.00  0.00    +0.086 C 
ATOM     12  C   UNL     1      35.113 -18.404 -22.545  0.00  0.00    +0.140 C 
BRANCH  10  14
ATOM     13  N   UNL     1      33.008 -12.922 -27.405  0.00  0.00    -0.242 NA
ATOM     14  C   UNL     1      33.548 -14.582 -25.217  0.00  0.00    +0.006 C 
ATOM     15  C   UNL     1      33.971 -13.256 -25.212  0.00  0.00    +0.021 C 
ATOM     16  C   UNL     1      32.855 -15.076 -26.318  0.00  0.00    +0.021 C 
ATOM     17  C   UNL     1      33.679 -12.476 -26.319  0.00  0.00    +0.099 C 
ATOM     18  C   UNL     1      32.612 -14.215 -27.376  0.00  0.00    +0.099 C 
ENDBRANCH  10  14
ENDBRANCH   1   9
BRANCH   4  19
ATOM     19  O   UNL     1      31.078 -10.982 -20.170  0.00  0.00    -0.468 OA
BRANCH  19  20
ATOM     20  C   UNL     1      31.928 -10.024 -19.554  0.00  0.00    +0.264 C 
BRANCH  20  22
ATOM     21  N   UNL     1      31.563  -8.881 -21.657  0.00  0.00    -0.406 NA
ATOM     22  C   UNL     1      31.914  -8.765 -20.355  0.00  0.00    +0.152 C 
ATOM     23  C   UNL     1      31.870  -6.501 -21.883  0.00  0.00    +0.026 C 
ATOM     24  C   UNL     1      31.540  -7.766 -22.412  0.00  0.00    +0.113 C 
ATOM     25  C   UNL     1      32.253  -7.572 -19.750  0.00  0.00    +0.031 C 
ATOM     26  C   UNL     1      32.228  -6.425 -20.530  0.00  0.00    +0.005 C 
ATOM     27  C   UNL     1      31.836  -5.359 -22.700  0.00  0.00    +0.002 C 
ATOM     28  C   UNL     1      31.183  -7.842 -23.756  0.00  0.00    +0.085 C 
ATOM     29  C   UNL     1      31.476  -5.462 -24.041  0.00  0.00    -0.004 C 
ATOM     30  C   UNL     1      31.149  -6.705 -24.569  0.00  0.00    -0.019 C 
ENDBRANCH  20  22
ENDBRANCH  19  20
ENDBRANCH   4  19
TORSDOF 5
ENDMDL
