MODEL 1
REMARK VINA RESULT:      -7.6      0.000      0.000
REMARK  Name = 151506
REMARK  2 active torsions:
REMARK  status: ('A' for Active; 'I' for Inactive)
REMARK    1  A    between atoms: C_2  and  N_11
REMARK    2  A    between atoms: N_11  and  S_13
REMARK                            x       y       z     vdW  Elec       q    Type
REMARK                         _______ _______ _______ _____ _____    ______ ____
ROOT
ATOM      1  N   UNL     1      34.600 -16.631 -24.611  0.00  0.00    -0.247 NA
ATOM      2  C   UNL     1      34.642 -15.311 -22.640  0.00  0.00    +0.136 C 
ATOM      3  C   UNL     1      34.637 -16.553 -23.267  0.00  0.00    +0.075 C 
ATOM      4  C   UNL     1      34.672 -17.707 -22.456  0.00  0.00    -0.003 C 
ATOM      5  C   UNL     1      34.679 -15.193 -21.249  0.00  0.00    -0.007 C 
ATOM      6  C   UNL     1      34.710 -17.589 -21.056  0.00  0.00    +0.053 C 
ATOM      7  C   UNL     1      34.714 -16.334 -20.455  0.00  0.00    -0.024 C 
ATOM      8  C   UNL     1      34.667 -18.958 -23.087  0.00  0.00    -0.001 C 
ATOM      9  C   UNL     1      34.628 -19.042 -24.472  0.00  0.00    +0.020 C 
ATOM     10  C   UNL     1      34.596 -17.858 -25.181  0.00  0.00    +0.098 C 
ENDROOT
BRANCH   2  11
ATOM     11  N   UNL     1      34.609 -14.108 -23.419  0.00  0.00    -0.175 NA
ATOM     12  H   UNL     1      35.440 -13.681 -23.727  0.00  0.00    +0.149 HD
BRANCH  11  13
ATOM     13  S   UNL     1      33.073 -13.435 -23.799  0.00  0.00    +0.043 S 
ATOM     14  O   UNL     1      32.678 -13.916 -25.110  0.00  0.00    -0.157 OA
ATOM     15  O   UNL     1      32.166 -13.535 -22.673  0.00  0.00    -0.157 OA
ATOM     16  C   UNL     1      33.517 -11.723 -23.991  0.00  0.00    +0.196 C 
ENDBRANCH  11  13
ENDBRANCH   2  11
TORSDOF 2
ENDMDL
MODEL 2
REMARK VINA RESULT:      -7.5      9.500     10.694
REMARK  Name = 151506
REMARK  2 active torsions:
REMARK  status: ('A' for Active; 'I' for Inactive)
REMARK    1  A    between atoms: C_2  and  N_11
REMARK    2  A    between atoms: N_11  and  S_13
REMARK                            x       y       z     vdW  Elec       q    Type
REMARK                         _______ _______ _______ _____ _____    ______ ____
ROOT
ATOM      1  N   UNL     1      32.203 -22.443 -18.036  0.00  0.00    -0.247 NA
ATOM      2  C   UNL     1      30.770 -22.786 -16.177  0.00  0.00    +0.136 C 
ATOM      3  C   UNL     1      32.037 -22.809 -16.751  0.00  0.00    +0.075 C 
ATOM      4  C   UNL     1      33.122 -23.222 -15.949  0.00  0.00    -0.003 C 
ATOM      5  C   UNL     1      30.561 -23.161 -14.847  0.00  0.00    -0.007 C 
ATOM      6  C   UNL     1      32.913 -23.598 -14.611  0.00  0.00    +0.053 C 
ATOM      7  C   UNL     1      31.634 -23.566 -14.063  0.00  0.00    -0.024 C 
ATOM      8  C   UNL     1      34.398 -23.244 -16.526  0.00  0.00    -0.001 C 
ATOM      9  C   UNL     1      34.573 -22.869 -17.851  0.00  0.00    +0.020 C 
ATOM     10  C   UNL     1      33.452 -22.479 -18.556  0.00  0.00    +0.098 C 
ENDROOT
BRANCH   2  11
ATOM     11  N   UNL     1      29.635 -22.374 -16.949  0.00  0.00    -0.175 NA
ATOM     12  H   UNL     1      29.671 -21.567 -17.513  0.00  0.00    +0.149 HD
BRANCH  11  13
ATOM     13  S   UNL     1      28.208 -23.328 -16.860  0.00  0.00    +0.043 S 
ATOM     14  O   UNL     1      27.546 -23.278 -18.151  0.00  0.00    -0.157 OA
ATOM     15  O   UNL     1      28.470 -24.600 -16.214  0.00  0.00    -0.157 OA
ATOM     16  C   UNL     1      27.235 -22.341 -15.745  0.00  0.00    +0.196 C 
ENDBRANCH  11  13
ENDBRANCH   2  11
TORSDOF 2
ENDMDL
MODEL 3
REMARK VINA RESULT:      -7.5      1.587      3.276
REMARK  Name = 151506
REMARK  2 active torsions:
REMARK  status: ('A' for Active; 'I' for Inactive)
REMARK    1  A    between atoms: C_2  and  N_11
REMARK    2  A    between atoms: N_11  and  S_13
REMARK                            x       y       z     vdW  Elec       q    Type
REMARK                         _______ _______ _______ _____ _____    ______ ____
ROOT
ATOM      1  N   UNL     1      34.666 -15.055 -23.016  0.00  0.00    -0.247 NA
ATOM      2  C   UNL     1      34.621 -16.668 -24.755  0.00  0.00    +0.136 C 
ATOM      3  C   UNL     1      34.661 -16.345 -23.402  0.00  0.00    +0.075 C 
ATOM      4  C   UNL     1      34.695 -17.401 -22.468  0.00  0.00    -0.003 C 
ATOM      5  C   UNL     1      34.615 -17.996 -25.191  0.00  0.00    -0.007 C 
ATOM      6  C   UNL     1      34.689 -18.737 -22.906  0.00  0.00    +0.053 C 
ATOM      7  C   UNL     1      34.649 -19.032 -24.265  0.00  0.00    -0.024 C 
ATOM      8  C   UNL     1      34.735 -17.076 -21.105  0.00  0.00    -0.001 C 
ATOM      9  C   UNL     1      34.741 -15.747 -20.704  0.00  0.00    +0.020 C 
ATOM     10  C   UNL     1      34.706 -14.783 -21.692  0.00  0.00    +0.098 C 
ENDROOT
BRANCH   2  11
ATOM     11  N   UNL     1      34.584 -15.632 -25.745  0.00  0.00    -0.175 NA
ATOM     12  H   UNL     1      35.412 -15.302 -26.164  0.00  0.00    +0.149 HD
BRANCH  11  13
ATOM     13  S   UNL     1      33.053 -14.983 -26.178  0.00  0.00    +0.043 S 
ATOM     14  O   UNL     1      32.318 -16.000 -26.908  0.00  0.00    -0.157 OA
ATOM     15  O   UNL     1      32.442 -14.294 -25.058  0.00  0.00    -0.157 OA
ATOM     16  C   UNL     1      33.553 -13.756 -27.366  0.00  0.00    +0.196 C 
ENDBRANCH  11  13
ENDBRANCH   2  11
TORSDOF 2
ENDMDL
MODEL 4
REMARK VINA RESULT:      -7.5      3.563      4.575
REMARK  Name = 151506
REMARK  2 active torsions:
REMARK  status: ('A' for Active; 'I' for Inactive)
REMARK    1  A    between atoms: C_2  and  N_11
REMARK    2  A    between atoms: N_11  and  S_13
REMARK                            x       y       z     vdW  Elec       q    Type
REMARK                         _______ _______ _______ _____ _____    ______ ____
ROOT
ATOM      1  N   UNL     1      33.181 -19.803 -20.529  0.00  0.00    -0.247 NA
ATOM      2  C   UNL     1      35.078 -18.651 -21.368  0.00  0.00    +0.136 C 
ATOM      3  C   UNL     1      34.518 -19.708 -20.657  0.00  0.00    +0.075 C 
ATOM      4  C   UNL     1      35.389 -20.660 -20.087  0.00  0.00    -0.003 C 
ATOM      5  C   UNL     1      36.460 -18.522 -21.520  0.00  0.00    -0.007 C 
ATOM      6  C   UNL     1      36.780 -20.531 -20.240  0.00  0.00    +0.053 C 
ATOM      7  C   UNL     1      37.313 -19.463 -20.956  0.00  0.00    -0.024 C 
ATOM      8  C   UNL     1      34.825 -21.725 -19.371  0.00  0.00    -0.001 C 
ATOM      9  C   UNL     1      33.448 -21.825 -19.237  0.00  0.00    +0.020 C 
ATOM     10  C   UNL     1      32.677 -20.846 -19.831  0.00  0.00    +0.098 C 
ENDROOT
BRANCH   2  11
ATOM     11  N   UNL     1      34.236 -17.658 -21.969  0.00  0.00    -0.175 NA
ATOM     12  H   UNL     1      33.561 -17.905 -22.641  0.00  0.00    +0.149 HD
BRANCH  11  13
ATOM     13  S   UNL     1      34.441 -16.023 -21.478  0.00  0.00    +0.043 S 
ATOM     14  O   UNL     1      35.017 -16.017 -20.146  0.00  0.00    -0.157 OA
ATOM     15  O   UNL     1      35.028 -15.230 -22.540  0.00  0.00    -0.157 OA
ATOM     16  C   UNL     1      32.740 -15.530 -21.306  0.00  0.00    +0.196 C 
ENDBRANCH  11  13
ENDBRANCH   2  11
TORSDOF 2
ENDMDL
MODEL 5
REMARK VINA RESULT:      -7.3      3.296      4.532
REMARK  Name = 151506
REMARK  2 active torsions:
REMARK  status: ('A' for Active; 'I' for Inactive)
REMARK    1  A    between atoms: C_2  and  N_11
REMARK    2  A    between atoms: N_11  and  S_13
REMARK                            x       y       z     vdW  Elec       q    Type
REMARK                         _______ _______ _______ _____ _____    ______ ____
ROOT
ATOM      1  N   UNL     1      34.655 -16.724 -24.172  0.00  0.00    -0.247 NA
ATOM      2  C   UNL     1      34.726 -16.401 -21.822  0.00  0.00    +0.136 C 
ATOM      3  C   UNL     1      34.301 -16.008 -23.088  0.00  0.00    +0.075 C 
ATOM      4  C   UNL     1      33.499 -14.852 -23.190  0.00  0.00    -0.003 C 
ATOM      5  C   UNL     1      34.378 -15.681 -20.677  0.00  0.00    -0.007 C 
ATOM      6  C   UNL     1      33.148 -14.128 -22.039  0.00  0.00    +0.053 C 
ATOM      7  C   UNL     1      33.587 -14.543 -20.785  0.00  0.00    -0.024 C 
ATOM      8  C   UNL     1      33.071 -14.457 -24.465  0.00  0.00    -0.001 C 
ATOM      9  C   UNL     1      33.435 -15.192 -25.584  0.00  0.00    +0.020 C 
ATOM     10  C   UNL     1      34.221 -16.309 -25.384  0.00  0.00    +0.098 C 
ENDROOT
BRANCH   2  11
ATOM     11  N   UNL     1      35.541 -17.569 -21.664  0.00  0.00    -0.175 NA
ATOM     12  H   UNL     1      36.518 -17.495 -21.568  0.00  0.00    +0.149 HD
BRANCH  11  13
ATOM     13  S   UNL     1      34.763 -19.101 -21.648  0.00  0.00    +0.043 S 
ATOM     14  O   UNL     1      33.502 -18.963 -20.942  0.00  0.00    -0.157 OA
ATOM     15  O   UNL     1      34.811 -19.725 -22.956  0.00  0.00    -0.157 OA
ATOM     16  C   UNL     1      35.859 -20.002 -20.575  0.00  0.00    +0.196 C 
ENDBRANCH  11  13
ENDBRANCH   2  11
TORSDOF 2
ENDMDL
MODEL 6
REMARK VINA RESULT:      -7.3      9.824     11.180
REMARK  Name = 151506
REMARK  2 active torsions:
REMARK  status: ('A' for Active; 'I' for Inactive)
REMARK    1  A    between atoms: C_2  and  N_11
REMARK    2  A    between atoms: N_11  and  S_13
REMARK                            x       y       z     vdW  Elec       q    Type
REMARK                         _______ _______ _______ _____ _____    ______ ____
ROOT
ATOM      1  N   UNL     1      36.029 -22.331 -17.252  0.00  0.00    -0.247 NA
ATOM      2  C   UNL     1      34.840 -23.200 -15.392  0.00  0.00    +0.136 C 
ATOM      3  C   UNL     1      34.875 -22.771 -16.715  0.00  0.00    +0.075 C 
ATOM      4  C   UNL     1      33.677 -22.814 -17.459  0.00  0.00    -0.003 C 
ATOM      5  C   UNL     1      33.661 -23.662 -14.803  0.00  0.00    -0.007 C 
ATOM      6  C   UNL     1      32.490 -23.278 -16.867  0.00  0.00    +0.053 C 
ATOM      7  C   UNL     1      32.484 -23.701 -15.541  0.00  0.00    -0.024 C 
ATOM      8  C   UNL     1      33.712 -22.382 -18.792  0.00  0.00    -0.001 C 
ATOM      9  C   UNL     1      34.900 -21.928 -19.348  0.00  0.00    +0.020 C 
ATOM     10  C   UNL     1      36.020 -21.923 -18.542  0.00  0.00    +0.098 C 
ENDROOT
BRANCH   2  11
ATOM     11  N   UNL     1      36.030 -23.178 -14.593  0.00  0.00    -0.175 NA
ATOM     12  H   UNL     1      36.260 -22.391 -14.048  0.00  0.00    +0.149 HD
BRANCH  11  13
ATOM     13  S   UNL     1      37.044 -24.566 -14.616  0.00  0.00    +0.043 S 
ATOM     14  O   UNL     1      36.462 -25.540 -15.521  0.00  0.00    -0.157 OA
ATOM     15  O   UNL     1      38.440 -24.190 -14.735  0.00  0.00    -0.157 OA
ATOM     16  C   UNL     1      36.783 -25.175 -12.965  0.00  0.00    +0.196 C 
ENDBRANCH  11  13
ENDBRANCH   2  11
TORSDOF 2
ENDMDL
MODEL 7
REMARK VINA RESULT:      -7.3     11.312     12.814
REMARK  Name = 151506
REMARK  2 active torsions:
REMARK  status: ('A' for Active; 'I' for Inactive)
REMARK    1  A    between atoms: C_2  and  N_11
REMARK    2  A    between atoms: N_11  and  S_13
REMARK                            x       y       z     vdW  Elec       q    Type
REMARK                         _______ _______ _______ _____ _____    ______ ____
ROOT
ATOM      1  N   UNL     1      32.384 -24.801 -13.593  0.00  0.00    -0.247 NA
ATOM      2  C   UNL     1      34.187 -24.178 -15.004  0.00  0.00    +0.136 C 
ATOM      3  C   UNL     1      32.823 -24.233 -14.732  0.00  0.00    +0.075 C 
ATOM      4  C   UNL     1      31.935 -23.681 -15.678  0.00  0.00    -0.003 C 
ATOM      5  C   UNL     1      34.677 -23.597 -16.176  0.00  0.00    -0.007 C 
ATOM      6  C   UNL     1      32.427 -23.096 -16.857  0.00  0.00    +0.053 C 
ATOM      7  C   UNL     1      33.796 -23.055 -17.104  0.00  0.00    -0.024 C 
ATOM      8  C   UNL     1      30.561 -23.735 -15.404  0.00  0.00    -0.001 C 
ATOM      9  C   UNL     1      30.106 -24.321 -14.231  0.00  0.00    +0.020 C 
ATOM     10  C   UNL     1      31.051 -24.834 -13.366  0.00  0.00    +0.098 C 
ENDROOT
BRANCH   2  11
ATOM     11  N   UNL     1      35.131 -24.724 -14.074  0.00  0.00    -0.175 NA
ATOM     12  H   UNL     1      34.981 -24.663 -13.103  0.00  0.00    +0.149 HD
BRANCH  11  13
ATOM     13  S   UNL     1      36.535 -25.490 -14.706  0.00  0.00    +0.043 S 
ATOM     14  O   UNL     1      36.111 -26.534 -15.621  0.00  0.00    -0.157 OA
ATOM     15  O   UNL     1      37.526 -24.512 -15.110  0.00  0.00    -0.157 OA
ATOM     16  C   UNL     1      37.138 -26.302 -13.242  0.00  0.00    +0.196 C 
ENDBRANCH  11  13
ENDBRANCH   2  11
TORSDOF 2
ENDMDL
MODEL 8
REMARK VINA RESULT:      -7.2     11.875     13.306
REMARK  Name = 151506
REMARK  2 active torsions:
REMARK  status: ('A' for Active; 'I' for Inactive)
REMARK    1  A    between atoms: C_2  and  N_11
REMARK    2  A    between atoms: N_11  and  S_13
REMARK                            x       y       z     vdW  Elec       q    Type
REMARK                         _______ _______ _______ _____ _____    ______ ____
ROOT
ATOM      1  N   UNL     1      32.151 -24.128 -13.084  0.00  0.00    -0.247 NA
ATOM      2  C   UNL     1      34.460 -24.268 -13.610  0.00  0.00    +0.136 C 
ATOM      3  C   UNL     1      33.154 -23.942 -13.963  0.00  0.00    +0.075 C 
ATOM      4  C   UNL     1      32.926 -23.419 -15.252  0.00  0.00    -0.003 C 
ATOM      5  C   UNL     1      35.524 -24.090 -14.496  0.00  0.00    -0.007 C 
ATOM      6  C   UNL     1      33.996 -23.238 -16.145  0.00  0.00    +0.053 C 
ATOM      7  C   UNL     1      35.293 -23.573 -15.766  0.00  0.00    -0.024 C 
ATOM      8  C   UNL     1      31.611 -23.090 -15.608  0.00  0.00    -0.001 C 
ATOM      9  C   UNL     1      30.574 -23.280 -14.705  0.00  0.00    +0.020 C 
ATOM     10  C   UNL     1      30.896 -23.798 -13.466  0.00  0.00    +0.098 C 
ENDROOT
BRANCH   2  11
ATOM     11  N   UNL     1      34.745 -24.803 -12.310  0.00  0.00    -0.175 NA
ATOM     12  H   UNL     1      34.190 -25.519 -11.924  0.00  0.00    +0.149 HD
BRANCH  11  13
ATOM     13  S   UNL     1      36.085 -24.157 -11.448  0.00  0.00    +0.043 S 
ATOM     14  O   UNL     1      36.385 -22.845 -11.991  0.00  0.00    -0.157 OA
ATOM     15  O   UNL     1      35.926 -24.346 -10.020  0.00  0.00    -0.157 OA
ATOM     16  C   UNL     1      37.374 -25.251 -12.002  0.00  0.00    +0.196 C 
ENDBRANCH  11  13
ENDBRANCH   2  11
TORSDOF 2
ENDMDL
MODEL 9
REMARK VINA RESULT:      -7.1      1.918      2.883
REMARK  Name = 151506
REMARK  2 active torsions:
REMARK  status: ('A' for Active; 'I' for Inactive)
REMARK    1  A    between atoms: C_2  and  N_11
REMARK    2  A    between atoms: N_11  and  S_13
REMARK                            x       y       z     vdW  Elec       q    Type
REMARK                         _______ _______ _______ _____ _____    ______ ____
ROOT
ATOM      1  N   UNL     1      35.096 -16.913 -21.474  0.00  0.00    -0.247 NA
ATOM      2  C   UNL     1      34.334 -15.459 -23.187  0.00  0.00    +0.136 C 
ATOM      3  C   UNL     1      34.753 -16.716 -22.761  0.00  0.00    +0.075 C 
ATOM      4  C   UNL     1      34.803 -17.756 -23.712  0.00  0.00    -0.003 C 
ATOM      5  C   UNL     1      33.973 -15.218 -24.514  0.00  0.00    -0.007 C 
ATOM      6  C   UNL     1      34.438 -17.515 -25.048  0.00  0.00    +0.053 C 
ATOM      7  C   UNL     1      34.024 -16.248 -25.446  0.00  0.00    -0.024 C 
ATOM      8  C   UNL     1      35.224 -19.022 -23.283  0.00  0.00    -0.001 C 
ATOM      9  C   UNL     1      35.578 -19.229 -21.958  0.00  0.00    +0.020 C 
ATOM     10  C   UNL     1      35.497 -18.150 -21.101  0.00  0.00    +0.098 C 
ENDROOT
BRANCH   2  11
ATOM     11  N   UNL     1      34.265 -14.368 -22.259  0.00  0.00    -0.175 NA
ATOM     12  H   UNL     1      35.052 -13.804 -22.081  0.00  0.00    +0.149 HD
BRANCH  11  13
ATOM     13  S   UNL     1      32.767 -14.074 -21.469  0.00  0.00    +0.043 S 
ATOM     14  O   UNL     1      31.943 -15.261 -21.601  0.00  0.00    -0.157 OA
ATOM     15  O   UNL     1      32.974 -13.460 -20.172  0.00  0.00    -0.157 OA
ATOM     16  C   UNL     1      32.075 -12.843 -22.551  0.00  0.00    +0.196 C 
ENDBRANCH  11  13
ENDBRANCH   2  11
TORSDOF 2
ENDMDL
