MODEL 1
REMARK VINA RESULT:      -7.7      0.000      0.000
REMARK  Name = 6230
REMARK  2 active torsions:
REMARK  status: ('A' for Active; 'I' for Inactive)
REMARK    1  A    between atoms: C_7  and  O_20
REMARK    2  A    between atoms: C_7  and  C_22
REMARK                            x       y       z     vdW  Elec       q    Type
REMARK                         _______ _______ _______ _____ _____    ______ ____
ROOT
ATOM      1  O   UNL     1      38.871 -26.828 -14.477  0.00  0.00    -0.291 OA
ATOM      2  C   UNL     1      32.607 -23.480 -15.768  0.00  0.00    +0.003 C 
ATOM      3  C   UNL     1      31.598 -23.452 -14.597  0.00  0.00    +0.033 C 
ATOM      4  C   UNL     1      34.041 -23.185 -15.322  0.00  0.00    +0.001 C 
ATOM      5  C   UNL     1      34.475 -24.263 -14.271  0.00  0.00    +0.004 C 
ATOM      6  C   UNL     1      32.005 -24.542 -13.588  0.00  0.00    +0.003 C 
ATOM      7  C   UNL     1      30.261 -23.663 -15.371  0.00  0.00    +0.142 C 
ATOM      8  C   UNL     1      31.964 -22.573 -16.814  0.00  0.00    +0.004 C 
ATOM      9  C   UNL     1      33.459 -24.376 -13.111  0.00  0.00    +0.000 C 
ATOM     10  C   UNL     1      35.921 -23.955 -13.799  0.00  0.00    +0.019 C 
ATOM     11  C   UNL     1      30.446 -22.778 -16.632  0.00  0.00    +0.039 C 
ATOM     12  C   UNL     1      35.020 -23.142 -16.513  0.00  0.00    +0.004 C 
ATOM     13  C   UNL     1      31.549 -22.088 -13.847  0.00  0.00    +0.003 C 
ATOM     14  C   UNL     1      36.468 -22.941 -16.057  0.00  0.00    +0.022 C 
ATOM     15  C   UNL     1      36.815 -23.982 -15.026  0.00  0.00    -0.042 C 
ATOM     16  C   UNL     1      36.479 -24.855 -12.685  0.00  0.00    +0.012 C 
ATOM     17  C   UNL     1      36.936 -26.208 -13.202  0.00  0.00    +0.069 C 
ATOM     18  C   UNL     1      37.773 -24.895 -15.244  0.00  0.00    +0.029 C 
ATOM     19  C   UNL     1      37.954 -26.027 -14.302  0.00  0.00    +0.173 C 
ENDROOT
BRANCH   7  20
ATOM     20  O   UNL     1      29.144 -23.221 -14.614  0.00  0.00    -0.375 OA
ATOM     21  H   UNL     1      28.906 -22.320 -14.884  0.00  0.00    +0.211 HD
ENDBRANCH   7  20
BRANCH   7  22
ATOM     22  C   UNL     1      30.026 -25.066 -15.767  0.00  0.00    -0.053 C 
ATOM     23  C   UNL     1      29.834 -26.207 -16.089  0.00  0.00    -0.012 C 
ENDBRANCH   7  22
TORSDOF 2
ENDMDL
MODEL 2
REMARK VINA RESULT:      -7.3      1.415      6.412
REMARK  Name = 6230
REMARK  2 active torsions:
REMARK  status: ('A' for Active; 'I' for Inactive)
REMARK    1  A    between atoms: C_7  and  O_20
REMARK    2  A    between atoms: C_7  and  C_22
REMARK                            x       y       z     vdW  Elec       q    Type
REMARK                         _______ _______ _______ _____ _____    ______ ____
ROOT
ATOM      1  O   UNL     1      28.744 -21.831 -15.004  0.00  0.00    -0.291 OA
ATOM      2  C   UNL     1      35.735 -23.626 -15.105  0.00  0.00    +0.003 C 
ATOM      3  C   UNL     1      36.148 -24.799 -14.187  0.00  0.00    +0.033 C 
ATOM      4  C   UNL     1      34.429 -23.893 -15.858  0.00  0.00    +0.001 C 
ATOM      5  C   UNL     1      33.285 -24.131 -14.815  0.00  0.00    +0.004 C 
ATOM      6  C   UNL     1      35.039 -25.000 -13.138  0.00  0.00    +0.003 C 
ATOM      7  C   UNL     1      37.527 -24.283 -13.674  0.00  0.00    +0.142 C 
ATOM      8  C   UNL     1      37.000 -23.341 -15.911  0.00  0.00    +0.004 C 
ATOM      9  C   UNL     1      33.661 -25.223 -13.787  0.00  0.00    +0.000 C 
ATOM     10  C   UNL     1      31.962 -24.425 -15.573  0.00  0.00    +0.019 C 
ATOM     11  C   UNL     1      38.160 -23.659 -14.946  0.00  0.00    +0.039 C 
ATOM     12  C   UNL     1      34.073 -22.746 -16.825  0.00  0.00    +0.004 C 
ATOM     13  C   UNL     1      36.351 -26.144 -14.946  0.00  0.00    +0.003 C 
ATOM     14  C   UNL     1      32.720 -22.970 -17.506  0.00  0.00    +0.022 C 
ATOM     15  C   UNL     1      31.671 -23.226 -16.458  0.00  0.00    -0.042 C 
ATOM     16  C   UNL     1      30.747 -24.785 -14.705  0.00  0.00    +0.012 C 
ATOM     17  C   UNL     1      30.106 -23.567 -14.063  0.00  0.00    +0.069 C 
ATOM     18  C   UNL     1      30.630 -22.396 -16.288  0.00  0.00    +0.029 C 
ATOM     19  C   UNL     1      29.727 -22.560 -15.123  0.00  0.00    +0.173 C 
ENDROOT
BRANCH   7  20
ATOM     20  O   UNL     1      38.334 -25.347 -13.189  0.00  0.00    -0.375 OA
ATOM     21  H   UNL     1      39.217 -25.292 -13.589  0.00  0.00    +0.211 HD
ENDBRANCH   7  20
BRANCH   7  22
ATOM     22  C   UNL     1      37.416 -23.265 -12.611  0.00  0.00    -0.053 C 
ATOM     23  C   UNL     1      37.326 -22.437 -11.746  0.00  0.00    -0.012 C 
ENDBRANCH   7  22
TORSDOF 2
ENDMDL
MODEL 3
REMARK VINA RESULT:      -7.2     19.447     21.756
REMARK  Name = 6230
REMARK  2 active torsions:
REMARK  status: ('A' for Active; 'I' for Inactive)
REMARK    1  A    between atoms: C_7  and  O_20
REMARK    2  A    between atoms: C_7  and  C_22
REMARK                            x       y       z     vdW  Elec       q    Type
REMARK                         _______ _______ _______ _____ _____    ______ ____
ROOT
ATOM      1  O   UNL     1      31.172 -10.281 -22.499  0.00  0.00    -0.291 OA
ATOM      2  C   UNL     1      33.999  -5.080 -26.630  0.00  0.00    +0.003 C 
ATOM      3  C   UNL     1      33.138  -3.808 -26.804  0.00  0.00    +0.033 C 
ATOM      4  C   UNL     1      34.016  -5.592 -25.188  0.00  0.00    +0.001 C 
ATOM      5  C   UNL     1      32.549  -5.926 -24.753  0.00  0.00    +0.004 C 
ATOM      6  C   UNL     1      31.688  -4.153 -26.415  0.00  0.00    +0.003 C 
ATOM      7  C   UNL     1      33.413  -3.483 -28.304  0.00  0.00    +0.142 C 
ATOM      8  C   UNL     1      35.323  -4.708 -27.292  0.00  0.00    +0.004 C 
ATOM      9  C   UNL     1      31.592  -4.735 -24.992  0.00  0.00    +0.000 C 
ATOM     10  C   UNL     1      32.558  -6.425 -23.283  0.00  0.00    +0.019 C 
ATOM     11  C   UNL     1      34.932  -3.762 -28.446  0.00  0.00    +0.039 C 
ATOM     12  C   UNL     1      34.940  -6.815 -25.019  0.00  0.00    +0.004 C 
ATOM     13  C   UNL     1      33.607  -2.612 -25.923  0.00  0.00    +0.003 C 
ATOM     14  C   UNL     1      34.883  -7.385 -23.599  0.00  0.00    +0.022 C 
ATOM     15  C   UNL     1      33.450  -7.652 -23.226  0.00  0.00    -0.042 C 
ATOM     16  C   UNL     1      31.186  -6.703 -22.650  0.00  0.00    +0.012 C 
ATOM     17  C   UNL     1      30.597  -8.031 -23.095  0.00  0.00    +0.069 C 
ATOM     18  C   UNL     1      33.013  -8.892 -22.961  0.00  0.00    +0.029 C 
ATOM     19  C   UNL     1      31.562  -9.153 -22.797  0.00  0.00    +0.173 C 
ENDROOT
BRANCH   7  20
ATOM     20  O   UNL     1      33.128  -2.125 -28.604  0.00  0.00    -0.375 OA
ATOM     21  H   UNL     1      33.614  -1.549 -27.993  0.00  0.00    +0.211 HD
ENDBRANCH   7  20
BRANCH   7  22
ATOM     22  C   UNL     1      32.651  -4.334 -29.240  0.00  0.00    -0.053 C 
ATOM     23  C   UNL     1      32.032  -5.026 -30.000  0.00  0.00    -0.012 C 
ENDBRANCH   7  22
TORSDOF 2
ENDMDL
MODEL 4
REMARK VINA RESULT:      -7.2     13.878     16.200
REMARK  Name = 6230
REMARK  2 active torsions:
REMARK  status: ('A' for Active; 'I' for Inactive)
REMARK    1  A    between atoms: C_7  and  O_20
REMARK    2  A    between atoms: C_7  and  C_22
REMARK                            x       y       z     vdW  Elec       q    Type
REMARK                         _______ _______ _______ _____ _____    ______ ____
ROOT
ATOM      1  O   UNL     1      34.561 -15.775 -20.854  0.00  0.00    -0.291 OA
ATOM      2  C   UNL     1      32.454  -8.958 -21.947  0.00  0.00    +0.003 C 
ATOM      3  C   UNL     1      32.159  -8.565 -23.412  0.00  0.00    +0.033 C 
ATOM      4  C   UNL     1      31.888 -10.331 -21.575  0.00  0.00    +0.001 C 
ATOM      5  C   UNL     1      32.526 -11.411 -22.514  0.00  0.00    +0.004 C 
ATOM      6  C   UNL     1      32.824  -9.607 -24.331  0.00  0.00    +0.003 C 
ATOM      7  C   UNL     1      32.740  -7.119 -23.440  0.00  0.00    +0.142 C 
ATOM      8  C   UNL     1      31.997  -7.737 -21.152  0.00  0.00    +0.004 C 
ATOM      9  C   UNL     1      32.368 -11.042 -24.007  0.00  0.00    +0.000 C 
ATOM     10  C   UNL     1      31.938 -12.803 -22.156  0.00  0.00    +0.019 C 
ATOM     11  C   UNL     1      32.287  -6.537 -22.075  0.00  0.00    +0.039 C 
ATOM     12  C   UNL     1      32.125 -10.672 -20.090  0.00  0.00    +0.004 C 
ATOM     13  C   UNL     1      30.639  -8.517 -23.752  0.00  0.00    +0.003 C 
ATOM     14  C   UNL     1      31.644 -12.084 -19.743  0.00  0.00    +0.022 C 
ATOM     15  C   UNL     1      32.262 -13.070 -20.697  0.00  0.00    -0.042 C 
ATOM     16  C   UNL     1      32.376 -13.975 -23.047  0.00  0.00    +0.012 C 
ATOM     17  C   UNL     1      33.769 -14.477 -22.708  0.00  0.00    +0.069 C 
ATOM     18  C   UNL     1      33.094 -14.033 -20.271  0.00  0.00    +0.029 C 
ATOM     19  C   UNL     1      33.844 -14.858 -21.249  0.00  0.00    +0.173 C 
ENDROOT
BRANCH   7  20
ATOM     20  O   UNL     1      32.196  -6.358 -24.509  0.00  0.00    -0.375 OA
ATOM     21  H   UNL     1      32.055  -5.444 -24.216  0.00  0.00    +0.211 HD
ENDBRANCH   7  20
BRANCH   7  22
ATOM     22  C   UNL     1      34.213  -7.079 -23.545  0.00  0.00    -0.053 C 
ATOM     23  C   UNL     1      35.410  -7.047 -23.630  0.00  0.00    -0.012 C 
ENDBRANCH   7  22
TORSDOF 2
ENDMDL
MODEL 5
REMARK VINA RESULT:      -6.9      6.073      8.111
REMARK  Name = 6230
REMARK  2 active torsions:
REMARK  status: ('A' for Active; 'I' for Inactive)
REMARK    1  A    between atoms: C_7  and  O_20
REMARK    2  A    between atoms: C_7  and  C_22
REMARK                            x       y       z     vdW  Elec       q    Type
REMARK                         _______ _______ _______ _____ _____    ______ ____
ROOT
ATOM      1  O   UNL     1      35.651 -22.695 -15.002  0.00  0.00    -0.291 OA
ATOM      2  C   UNL     1      34.274 -19.055 -21.081  0.00  0.00    +0.003 C 
ATOM      3  C   UNL     1      35.501 -18.458 -21.808  0.00  0.00    +0.033 C 
ATOM      4  C   UNL     1      34.517 -20.480 -20.580  0.00  0.00    +0.001 C 
ATOM      5  C   UNL     1      35.724 -20.466 -19.581  0.00  0.00    +0.004 C 
ATOM      6  C   UNL     1      36.672 -18.407 -20.809  0.00  0.00    +0.003 C 
ATOM      7  C   UNL     1      34.912 -17.095 -22.284  0.00  0.00    +0.142 C 
ATOM      8  C   UNL     1      33.126 -18.807 -22.057  0.00  0.00    +0.004 C 
ATOM      9  C   UNL     1      36.970 -19.787 -20.194  0.00  0.00    +0.000 C 
ATOM     10  C   UNL     1      35.989 -21.913 -19.086  0.00  0.00    +0.019 C 
ATOM     11  C   UNL     1      33.485 -17.479 -22.755  0.00  0.00    +0.039 C 
ATOM     12  C   UNL     1      33.259 -21.086 -19.926  0.00  0.00    +0.004 C 
ATOM     13  C   UNL     1      35.955 -19.285 -23.048  0.00  0.00    +0.003 C 
ATOM     14  C   UNL     1      33.530 -22.475 -19.340  0.00  0.00    +0.022 C 
ATOM     15  C   UNL     1      34.717 -22.404 -18.418  0.00  0.00    -0.042 C 
ATOM     16  C   UNL     1      37.209 -22.107 -18.172  0.00  0.00    +0.012 C 
ATOM     17  C   UNL     1      36.942 -21.668 -16.743  0.00  0.00    +0.069 C 
ATOM     18  C   UNL     1      34.606 -22.670 -17.108  0.00  0.00    +0.029 C 
ATOM     19  C   UNL     1      35.740 -22.397 -16.191  0.00  0.00    +0.173 C 
ENDROOT
BRANCH   7  20
ATOM     20  O   UNL     1      35.661 -16.551 -23.362  0.00  0.00    -0.375 OA
ATOM     21  H   UNL     1      35.075 -16.026 -23.930  0.00  0.00    +0.211 HD
ENDBRANCH   7  20
BRANCH   7  22
ATOM     22  C   UNL     1      34.837 -16.081 -21.213  0.00  0.00    -0.053 C 
ATOM     23  C   UNL     1      34.776 -15.256 -20.343  0.00  0.00    -0.012 C 
ENDBRANCH   7  22
TORSDOF 2
ENDMDL
MODEL 6
REMARK VINA RESULT:      -6.5      1.378      6.475
REMARK  Name = 6230
REMARK  2 active torsions:
REMARK  status: ('A' for Active; 'I' for Inactive)
REMARK    1  A    between atoms: C_7  and  O_20
REMARK    2  A    between atoms: C_7  and  C_22
REMARK                            x       y       z     vdW  Elec       q    Type
REMARK                         _______ _______ _______ _____ _____    ______ ____
ROOT
ATOM      1  O   UNL     1      28.196 -25.162 -15.111  0.00  0.00    -0.291 OA
ATOM      2  C   UNL     1      35.214 -23.953 -13.930  0.00  0.00    +0.003 C 
ATOM      3  C   UNL     1      36.063 -23.614 -15.176  0.00  0.00    +0.033 C 
ATOM      4  C   UNL     1      33.865 -23.229 -13.917  0.00  0.00    +0.001 C 
ATOM      5  C   UNL     1      33.057 -23.643 -15.193  0.00  0.00    +0.004 C 
ATOM      6  C   UNL     1      35.282 -24.062 -16.426  0.00  0.00    +0.003 C 
ATOM      7  C   UNL     1      37.375 -24.388 -14.843  0.00  0.00    +0.142 C 
ATOM      8  C   UNL     1      36.178 -23.727 -12.769  0.00  0.00    +0.004 C 
ATOM      9  C   UNL     1      33.877 -23.434 -16.487  0.00  0.00    +0.000 C 
ATOM     10  C   UNL     1      31.697 -22.894 -15.196  0.00  0.00    +0.019 C 
ATOM     11  C   UNL     1      37.562 -24.117 -13.327  0.00  0.00    +0.039 C 
ATOM     12  C   UNL     1      33.065 -23.519 -12.631  0.00  0.00    +0.004 C 
ATOM     13  C   UNL     1      36.383 -22.096 -15.320  0.00  0.00    +0.003 C 
ATOM     14  C   UNL     1      31.678 -22.872 -12.661  0.00  0.00    +0.022 C 
ATOM     15  C   UNL     1      30.965 -23.278 -13.923  0.00  0.00    -0.042 C 
ATOM     16  C   UNL     1      30.809 -23.101 -16.433  0.00  0.00    +0.012 C 
ATOM     17  C   UNL     1      30.076 -24.431 -16.409  0.00  0.00    +0.069 C 
ATOM     18  C   UNL     1      29.832 -23.996 -13.890  0.00  0.00    +0.029 C 
ATOM     19  C   UNL     1      29.264 -24.553 -15.141  0.00  0.00    +0.173 C 
ENDROOT
BRANCH   7  20
ATOM     20  O   UNL     1      38.480 -23.882 -15.578  0.00  0.00    -0.375 OA
ATOM     21  H   UNL     1      38.690 -22.985 -15.271  0.00  0.00    +0.211 HD
ENDBRANCH   7  20
BRANCH   7  22
ATOM     22  C   UNL     1      37.280 -25.840 -15.090  0.00  0.00    -0.053 C 
ATOM     23  C   UNL     1      37.203 -27.021 -15.291  0.00  0.00    -0.012 C 
ENDBRANCH   7  22
TORSDOF 2
ENDMDL
MODEL 7
REMARK VINA RESULT:      -5.8     14.904     17.508
REMARK  Name = 6230
REMARK  2 active torsions:
REMARK  status: ('A' for Active; 'I' for Inactive)
REMARK    1  A    between atoms: C_7  and  O_20
REMARK    2  A    between atoms: C_7  and  C_22
REMARK                            x       y       z     vdW  Elec       q    Type
REMARK                         _______ _______ _______ _____ _____    ______ ____
ROOT
ATOM      1  O   UNL     1      32.010  -4.691 -24.908  0.00  0.00    -0.291 OA
ATOM      2  C   UNL     1      32.562 -11.759 -23.546  0.00  0.00    +0.003 C 
ATOM      3  C   UNL     1      33.887 -12.431 -23.972  0.00  0.00    +0.033 C 
ATOM      4  C   UNL     1      32.775 -10.400 -22.875  0.00  0.00    +0.001 C 
ATOM      5  C   UNL     1      33.510  -9.449 -23.881  0.00  0.00    +0.004 C 
ATOM      6  C   UNL     1      34.585 -11.512 -24.993  0.00  0.00    +0.003 C 
ATOM      7  C   UNL     1      33.354 -13.799 -24.496  0.00  0.00    +0.142 C 
ATOM      8  C   UNL     1      31.840 -12.856 -22.767  0.00  0.00    +0.004 C 
ATOM      9  C   UNL     1      34.800 -10.091 -24.441  0.00  0.00    +0.000 C 
ATOM     10  C   UNL     1      33.749  -8.076 -23.197  0.00  0.00    +0.019 C 
ATOM     11  C   UNL     1      32.265 -14.169 -23.455  0.00  0.00    +0.039 C 
ATOM     12  C   UNL     1      31.450  -9.780 -22.389  0.00  0.00    +0.004 C 
ATOM     13  C   UNL     1      34.870 -12.679 -22.790  0.00  0.00    +0.003 C 
ATOM     14  C   UNL     1      31.653  -8.380 -21.803  0.00  0.00    +0.022 C 
ATOM     15  C   UNL     1      32.391  -7.525 -22.799  0.00  0.00    -0.042 C 
ATOM     16  C   UNL     1      34.553  -7.045 -24.004  0.00  0.00    +0.012 C 
ATOM     17  C   UNL     1      33.720  -6.365 -25.076  0.00  0.00    +0.069 C 
ATOM     18  C   UNL     1      31.832  -6.430 -23.336  0.00  0.00    +0.029 C 
ATOM     19  C   UNL     1      32.499  -5.726 -24.458  0.00  0.00    +0.173 C 
ENDROOT
BRANCH   7  20
ATOM     20  O   UNL     1      34.377 -14.785 -24.516  0.00  0.00    -0.375 OA
ATOM     21  H   UNL     1      34.466 -15.176 -23.633  0.00  0.00    +0.211 HD
ENDBRANCH   7  20
BRANCH   7  22
ATOM     22  C   UNL     1      32.760 -13.722 -25.846  0.00  0.00    -0.053 C 
ATOM     23  C   UNL     1      32.277 -13.659 -26.943  0.00  0.00    -0.012 C 
ENDBRANCH   7  22
TORSDOF 2
ENDMDL
MODEL 8
REMARK VINA RESULT:      -5.8     12.570     14.823
REMARK  Name = 6230
REMARK  2 active torsions:
REMARK  status: ('A' for Active; 'I' for Inactive)
REMARK    1  A    between atoms: C_7  and  O_20
REMARK    2  A    between atoms: C_7  and  C_22
REMARK                            x       y       z     vdW  Elec       q    Type
REMARK                         _______ _______ _______ _____ _____    ______ ____
ROOT
ATOM      1  O   UNL     1      35.946 -16.858 -22.657  0.00  0.00    -0.291 OA
ATOM      2  C   UNL     1      32.357 -10.741 -21.315  0.00  0.00    +0.003 C 
ATOM      3  C   UNL     1      31.792 -10.000 -22.548  0.00  0.00    +0.033 C 
ATOM      4  C   UNL     1      32.140 -12.254 -21.381  0.00  0.00    +0.001 C 
ATOM      5  C   UNL     1      32.853 -12.811 -22.660  0.00  0.00    +0.004 C 
ATOM      6  C   UNL     1      32.527 -10.520 -23.798  0.00  0.00    +0.003 C 
ATOM      7  C   UNL     1      32.055  -8.520 -22.134  0.00  0.00    +0.142 C 
ATOM      8  C   UNL     1      31.771  -9.968 -20.136  0.00  0.00    +0.004 C 
ATOM      9  C   UNL     1      32.423 -12.051 -23.936  0.00  0.00    +0.000 C 
ATOM     10  C   UNL     1      32.618 -14.343 -22.745  0.00  0.00    +0.019 C 
ATOM     11  C   UNL     1      31.682  -8.509 -20.629  0.00  0.00    +0.039 C 
ATOM     12  C   UNL     1      32.641 -12.967 -20.109  0.00  0.00    +0.004 C 
ATOM     13  C   UNL     1      30.263 -10.212 -22.759  0.00  0.00    +0.003 C 
ATOM     14  C   UNL     1      32.511 -14.489 -20.216  0.00  0.00    +0.022 C 
ATOM     15  C   UNL     1      33.183 -14.960 -21.478  0.00  0.00    -0.042 C 
ATOM     16  C   UNL     1      33.162 -15.047 -23.997  0.00  0.00    +0.012 C 
ATOM     17  C   UNL     1      34.661 -15.282 -23.929  0.00  0.00    +0.069 C 
ATOM     18  C   UNL     1      34.245 -15.779 -21.444  0.00  0.00    +0.029 C 
ATOM     19  C   UNL     1      35.009 -16.062 -22.684  0.00  0.00    +0.173 C 
ENDROOT
BRANCH   7  20
ATOM     20  O   UNL     1      31.228  -7.621 -22.858  0.00  0.00    -0.375 OA
ATOM     21  H   UNL     1      31.689  -7.331 -23.661  0.00  0.00    +0.211 HD
ENDBRANCH   7  20
BRANCH   7  22
ATOM     22  C   UNL     1      33.460  -8.101 -22.311  0.00  0.00    -0.053 C 
ATOM     23  C   UNL     1      34.603  -7.760 -22.454  0.00  0.00    -0.012 C 
ENDBRANCH   7  22
TORSDOF 2
ENDMDL
MODEL 9
REMARK VINA RESULT:      -5.3      3.383      5.617
REMARK  Name = 6230
REMARK  2 active torsions:
REMARK  status: ('A' for Active; 'I' for Inactive)
REMARK    1  A    between atoms: C_7  and  O_20
REMARK    2  A    between atoms: C_7  and  C_22
REMARK                            x       y       z     vdW  Elec       q    Type
REMARK                         _______ _______ _______ _____ _____    ______ ____
ROOT
ATOM      1  O   UNL     1      35.307 -18.621 -21.113  0.00  0.00    -0.291 OA
ATOM      2  C   UNL     1      34.879 -22.907 -15.321  0.00  0.00    +0.003 C 
ATOM      3  C   UNL     1      33.856 -24.062 -15.405  0.00  0.00    +0.033 C 
ATOM      4  C   UNL     1      35.683 -22.731 -16.611  0.00  0.00    +0.001 C 
ATOM      5  C   UNL     1      34.693 -22.428 -17.786  0.00  0.00    +0.004 C 
ATOM      6  C   UNL     1      32.859 -23.739 -16.534  0.00  0.00    +0.003 C 
ATOM      7  C   UNL     1      33.304 -24.058 -13.947  0.00  0.00    +0.142 C 
ATOM      8  C   UNL     1      35.630 -23.190 -14.022  0.00  0.00    +0.004 C 
ATOM      9  C   UNL     1      33.568 -23.485 -17.877  0.00  0.00    +0.000 C 
ATOM     10  C   UNL     1      35.501 -22.271 -19.102  0.00  0.00    +0.019 C 
ATOM     11  C   UNL     1      34.580 -23.833 -13.094  0.00  0.00    +0.039 C 
ATOM     12  C   UNL     1      36.750 -21.626 -16.482  0.00  0.00    +0.004 C 
ATOM     13  C   UNL     1      34.501 -25.447 -15.708  0.00  0.00    +0.003 C 
ATOM     14  C   UNL     1      37.489 -21.386 -17.802  0.00  0.00    +0.022 C 
ATOM     15  C   UNL     1      36.487 -21.135 -18.896  0.00  0.00    -0.042 C 
ATOM     16  C   UNL     1      34.680 -22.071 -20.385  0.00  0.00    +0.012 C 
ATOM     17  C   UNL     1      34.166 -20.649 -20.533  0.00  0.00    +0.069 C 
ATOM     18  C   UNL     1      36.438 -19.964 -19.549  0.00  0.00    +0.029 C 
ATOM     19  C   UNL     1      35.317 -19.672 -20.476  0.00  0.00    +0.173 C 
ENDROOT
BRANCH   7  20
ATOM     20  O   UNL     1      32.698 -25.299 -13.615  0.00  0.00    -0.375 OA
ATOM     21  H   UNL     1      32.163 -25.609 -14.363  0.00  0.00    +0.211 HD
ENDBRANCH   7  20
BRANCH   7  22
ATOM     22  C   UNL     1      32.326 -22.982 -13.691  0.00  0.00    -0.053 C 
ATOM     23  C   UNL     1      31.531 -22.107 -13.484  0.00  0.00    -0.012 C 
ENDBRANCH   7  22
TORSDOF 2
ENDMDL
