MODEL 1
REMARK VINA RESULT:      -4.1      0.000      0.000
REMARK  Name = 439314
REMARK  2 active torsions:
REMARK  status: ('A' for Active; 'I' for Inactive)
REMARK    1  A    between atoms: C_1  and  C_4
REMARK    2  A    between atoms: C_1  and  O_6
REMARK                            x       y       z     vdW  Elec       q    Type
REMARK                         _______ _______ _______ _____ _____    ______ ____
ROOT
ATOM      1  C   UNL     1      35.005 -22.060 -19.439  0.00  0.00    +0.167 C 
ATOM      2  C   UNL     1      35.912 -20.936 -19.907  0.00  0.00    +0.040 C 
ENDROOT
BRANCH   1   4
ATOM      3  O   UNL     1      32.693 -22.225 -18.767  0.00  0.00    -0.294 OA
ATOM      4  C   UNL     1      33.545 -21.629 -19.426  0.00  0.00    +0.178 C 
ATOM      5  C   UNL     1      33.175 -20.425 -20.255  0.00  0.00    +0.075 C 
ENDBRANCH   1   4
BRANCH   1   6
ATOM      6  O   UNL     1      35.394 -22.425 -18.125  0.00  0.00    -0.377 OA
ATOM      7  H   UNL     1      34.634 -22.343 -17.528  0.00  0.00    +0.211 HD
ENDBRANCH   1   6
TORSDOF 2
ENDMDL
MODEL 2
REMARK VINA RESULT:      -4.0      9.395      9.883
REMARK  Name = 439314
REMARK  2 active torsions:
REMARK  status: ('A' for Active; 'I' for Inactive)
REMARK    1  A    between atoms: C_1  and  C_4
REMARK    2  A    between atoms: C_1  and  O_6
REMARK                            x       y       z     vdW  Elec       q    Type
REMARK                         _______ _______ _______ _____ _____    ______ ____
ROOT
ATOM      1  C   UNL     1      41.136 -15.723 -15.366  0.00  0.00    +0.167 C 
ATOM      2  C   UNL     1      40.970 -14.249 -15.042  0.00  0.00    +0.040 C 
ENDROOT
BRANCH   1   4
ATOM      3  O   UNL     1      42.164 -16.985 -17.147  0.00  0.00    -0.294 OA
ATOM      4  C   UNL     1      41.649 -15.928 -16.784  0.00  0.00    +0.178 C 
ATOM      5  C   UNL     1      41.496 -14.775 -17.744  0.00  0.00    +0.075 C 
ENDBRANCH   1   4
BRANCH   1   6
ATOM      6  O   UNL     1      39.871 -16.350 -15.233  0.00  0.00    -0.377 OA
ATOM      7  H   UNL     1      39.646 -16.430 -14.293  0.00  0.00    +0.211 HD
ENDBRANCH   1   6
TORSDOF 2
ENDMDL
MODEL 3
REMARK VINA RESULT:      -4.0      6.613      7.781
REMARK  Name = 439314
REMARK  2 active torsions:
REMARK  status: ('A' for Active; 'I' for Inactive)
REMARK    1  A    between atoms: C_1  and  C_4
REMARK    2  A    between atoms: C_1  and  O_6
REMARK                            x       y       z     vdW  Elec       q    Type
REMARK                         _______ _______ _______ _____ _____    ______ ____
ROOT
ATOM      1  C   UNL     1      36.775 -26.639 -14.923  0.00  0.00    +0.167 C 
ATOM      2  C   UNL     1      35.910 -25.398 -15.049  0.00  0.00    +0.040 C 
ENDROOT
BRANCH   1   4
ATOM      3  O   UNL     1      39.184 -26.762 -14.863  0.00  0.00    -0.294 OA
ATOM      4  C   UNL     1      38.154 -26.304 -14.371  0.00  0.00    +0.178 C 
ATOM      5  C   UNL     1      38.212 -25.371 -13.188  0.00  0.00    +0.075 C 
ENDBRANCH   1   4
BRANCH   1   6
ATOM      6  O   UNL     1      36.917 -27.212 -16.213  0.00  0.00    -0.377 OA
ATOM      7  H   UNL     1      36.836 -26.518 -16.886  0.00  0.00    +0.211 HD
ENDBRANCH   1   6
TORSDOF 2
ENDMDL
MODEL 4
REMARK VINA RESULT:      -3.9      6.897      7.153
REMARK  Name = 439314
REMARK  2 active torsions:
REMARK  status: ('A' for Active; 'I' for Inactive)
REMARK    1  A    between atoms: C_1  and  C_4
REMARK    2  A    between atoms: C_1  and  O_6
REMARK                            x       y       z     vdW  Elec       q    Type
REMARK                         _______ _______ _______ _____ _____    ______ ____
ROOT
ATOM      1  C   UNL     1      29.385 -24.413 -15.499  0.00  0.00    +0.167 C 
ATOM      2  C   UNL     1      30.183 -23.334 -14.788  0.00  0.00    +0.040 C 
ENDROOT
BRANCH   1   4
ATOM      3  O   UNL     1      27.860 -24.373 -17.369  0.00  0.00    -0.294 OA
ATOM      4  C   UNL     1      28.277 -23.815 -16.354  0.00  0.00    +0.178 C 
ATOM      5  C   UNL     1      27.697 -22.497 -15.906  0.00  0.00    +0.075 C 
ENDBRANCH   1   4
BRANCH   1   6
ATOM      6  O   UNL     1      28.808 -25.257 -14.515  0.00  0.00    -0.377 OA
ATOM      7  H   UNL     1      27.956 -25.591 -14.835  0.00  0.00    +0.211 HD
ENDBRANCH   1   6
TORSDOF 2
ENDMDL
MODEL 5
REMARK VINA RESULT:      -3.9      6.402      6.851
REMARK  Name = 439314
REMARK  2 active torsions:
REMARK  status: ('A' for Active; 'I' for Inactive)
REMARK    1  A    between atoms: C_1  and  C_4
REMARK    2  A    between atoms: C_1  and  O_6
REMARK                            x       y       z     vdW  Elec       q    Type
REMARK                         _______ _______ _______ _____ _____    ______ ____
ROOT
ATOM      1  C   UNL     1      34.659 -16.928 -23.446  0.00  0.00    +0.167 C 
ATOM      2  C   UNL     1      35.005 -17.902 -22.333  0.00  0.00    +0.040 C 
ENDROOT
BRANCH   1   4
ATOM      3  O   UNL     1      34.730 -16.992 -25.857  0.00  0.00    -0.294 OA
ATOM      4  C   UNL     1      34.631 -17.618 -24.802  0.00  0.00    +0.178 C 
ATOM      5  C   UNL     1      34.482 -19.119 -24.807  0.00  0.00    +0.075 C 
ENDBRANCH   1   4
BRANCH   1   6
ATOM      6  O   UNL     1      35.644 -15.907 -23.463  0.00  0.00    -0.377 OA
ATOM      7  H   UNL     1      36.443 -16.237 -23.902  0.00  0.00    +0.211 HD
ENDBRANCH   1   6
TORSDOF 2
ENDMDL
MODEL 6
REMARK VINA RESULT:      -3.9      7.854      8.732
REMARK  Name = 439314
REMARK  2 active torsions:
REMARK  status: ('A' for Active; 'I' for Inactive)
REMARK    1  A    between atoms: C_1  and  C_4
REMARK    2  A    between atoms: C_1  and  O_6
REMARK                            x       y       z     vdW  Elec       q    Type
REMARK                         _______ _______ _______ _____ _____    ______ ____
ROOT
ATOM      1  C   UNL     1      35.557 -24.002 -11.507  0.00  0.00    +0.167 C 
ATOM      2  C   UNL     1      34.985 -24.341 -12.872  0.00  0.00    +0.040 C 
ENDROOT
BRANCH   1   4
ATOM      3  O   UNL     1      37.525 -22.651 -11.158  0.00  0.00    -0.294 OA
ATOM      4  C   UNL     1      37.046 -23.701 -11.586  0.00  0.00    +0.178 C 
ATOM      5  C   UNL     1      37.929 -24.752 -12.211  0.00  0.00    +0.075 C 
ENDBRANCH   1   4
BRANCH   1   6
ATOM      6  O   UNL     1      35.352 -25.117 -10.653  0.00  0.00    -0.377 OA
ATOM      7  H   UNL     1      34.437 -25.426 -10.740  0.00  0.00    +0.211 HD
ENDBRANCH   1   6
TORSDOF 2
ENDMDL
MODEL 7
REMARK VINA RESULT:      -3.9      8.183      8.562
REMARK  Name = 439314
REMARK  2 active torsions:
REMARK  status: ('A' for Active; 'I' for Inactive)
REMARK    1  A    between atoms: C_1  and  C_4
REMARK    2  A    between atoms: C_1  and  O_6
REMARK                            x       y       z     vdW  Elec       q    Type
REMARK                         _______ _______ _______ _____ _____    ______ ____
ROOT
ATOM      1  C   UNL     1      38.465 -25.808 -14.045  0.00  0.00    +0.167 C 
ATOM      2  C   UNL     1      39.973 -25.632 -13.998  0.00  0.00    +0.040 C 
ENDROOT
BRANCH   1   4
ATOM      3  O   UNL     1      37.154 -26.446 -12.123  0.00  0.00    -0.294 OA
ATOM      4  C   UNL     1      37.835 -25.584 -12.678  0.00  0.00    +0.178 C 
ATOM      5  C   UNL     1      38.082 -24.252 -12.016  0.00  0.00    +0.075 C 
ENDBRANCH   1   4
BRANCH   1   6
ATOM      6  O   UNL     1      38.188 -27.131 -14.475  0.00  0.00    -0.377 OA
ATOM      7  H   UNL     1      37.244 -27.211 -14.686  0.00  0.00    +0.211 HD
ENDBRANCH   1   6
TORSDOF 2
ENDMDL
MODEL 8
REMARK VINA RESULT:      -3.9      7.450      7.972
REMARK  Name = 439314
REMARK  2 active torsions:
REMARK  status: ('A' for Active; 'I' for Inactive)
REMARK    1  A    between atoms: C_1  and  C_4
REMARK    2  A    between atoms: C_1  and  O_6
REMARK                            x       y       z     vdW  Elec       q    Type
REMARK                         _______ _______ _______ _____ _____    ______ ____
ROOT
ATOM      1  C   UNL     1      34.427 -16.607 -24.150  0.00  0.00    +0.167 C 
ATOM      2  C   UNL     1      34.650 -17.940 -24.843  0.00  0.00    +0.040 C 
ENDROOT
BRANCH   1   4
ATOM      3  O   UNL     1      33.730 -15.773 -26.305  0.00  0.00    -0.294 OA
ATOM      4  C   UNL     1      33.799 -15.588 -25.090  0.00  0.00    +0.178 C 
ATOM      5  C   UNL     1      33.249 -14.328 -24.470  0.00  0.00    +0.075 C 
ENDBRANCH   1   4
BRANCH   1   6
ATOM      6  O   UNL     1      35.685 -16.121 -23.711  0.00  0.00    -0.377 OA
ATOM      7  H   UNL     1      36.294 -16.866 -23.588  0.00  0.00    +0.211 HD
ENDBRANCH   1   6
TORSDOF 2
ENDMDL
MODEL 9
REMARK VINA RESULT:      -3.9      6.119      6.676
REMARK  Name = 439314
REMARK  2 active torsions:
REMARK  status: ('A' for Active; 'I' for Inactive)
REMARK    1  A    between atoms: C_1  and  C_4
REMARK    2  A    between atoms: C_1  and  O_6
REMARK                            x       y       z     vdW  Elec       q    Type
REMARK                         _______ _______ _______ _____ _____    ______ ____
ROOT
ATOM      1  C   UNL     1      34.569 -15.849 -22.699  0.00  0.00    +0.167 C 
ATOM      2  C   UNL     1      34.330 -14.349 -22.697  0.00  0.00    +0.040 C 
ENDROOT
BRANCH   1   4
ATOM      3  O   UNL     1      34.885 -15.628 -20.317  0.00  0.00    -0.294 OA
ATOM      4  C   UNL     1      34.870 -16.367 -21.301  0.00  0.00    +0.178 C 
ATOM      5  C   UNL     1      35.150 -17.843 -21.160  0.00  0.00    +0.075 C 
ENDBRANCH   1   4
BRANCH   1   6
ATOM      6  O   UNL     1      35.675 -16.118 -23.545  0.00  0.00    -0.377 OA
ATOM      7  H   UNL     1      36.067 -16.972 -23.302  0.00  0.00    +0.211 HD
ENDBRANCH   1   6
TORSDOF 2
ENDMDL
