MODEL 1
REMARK VINA RESULT:      -7.4      0.000      0.000
REMARK  Name = 9298
REMARK  4 active torsions:
REMARK  status: ('A' for Active; 'I' for Inactive)
REMARK    1  A    between atoms: C_4  and  O_10
REMARK    2  A    between atoms: O_10  and  P_12
REMARK    3  A    between atoms: P_12  and  O_13
REMARK    4  A    between atoms: P_12  and  O_15
REMARK                            x       y       z     vdW  Elec       q    Type
REMARK                         _______ _______ _______ _____ _____    ______ ____
ROOT
ATOM      1 CL   UNL     1      34.642 -14.761 -20.454  0.00  0.00    -0.079 Cl
ATOM      2 CL   UNL     1      34.920 -19.533 -24.469  0.00  0.00    -0.081 Cl
ATOM      3 CL   UNL     1      34.826 -20.054 -21.276  0.00  0.00    -0.081 Cl
ATOM      4  C   UNL     1      34.760 -15.859 -22.939  0.00  0.00    +0.158 C 
ATOM      5  C   UNL     1      34.719 -16.078 -21.565  0.00  0.00    +0.093 C 
ATOM      6  C   UNL     1      34.822 -16.934 -23.822  0.00  0.00    +0.050 C 
ATOM      7  C   UNL     1      34.843 -18.238 -23.327  0.00  0.00    +0.071 C 
ATOM      8  C   UNL     1      34.740 -17.382 -21.070  0.00  0.00    +0.027 C 
ATOM      9  C   UNL     1      34.802 -18.461 -21.950  0.00  0.00    +0.069 C 
ENDROOT
BRANCH   4  10
ATOM     10  O   UNL     1      34.739 -14.590 -23.452  0.00  0.00    -0.424 OA
BRANCH  10  12
ATOM     11  S   UNL     1      32.967 -14.474 -25.931  0.00  0.00    +0.036 S 
ATOM     12  P   UNL     1      33.476 -13.855 -24.153  0.00  0.00    +0.363 P 
BRANCH  12  13
ATOM     13  O   UNL     1      33.925 -12.293 -24.047  0.00  0.00    -0.286 OA
ATOM     14  C   UNL     1      33.988 -11.495 -25.217  0.00  0.00    +0.185 C 
ENDBRANCH  12  13
BRANCH  12  15
ATOM     15  O   UNL     1      32.347 -13.931 -22.985  0.00  0.00    -0.286 OA
ATOM     16  C   UNL     1      32.114 -12.805 -22.155  0.00  0.00    +0.185 C 
ENDBRANCH  12  15
ENDBRANCH  10  12
ENDBRANCH   4  10
TORSDOF 4
ENDMDL
MODEL 2
REMARK VINA RESULT:      -6.8     10.362     12.008
REMARK  Name = 9298
REMARK  4 active torsions:
REMARK  status: ('A' for Active; 'I' for Inactive)
REMARK    1  A    between atoms: C_4  and  O_10
REMARK    2  A    between atoms: O_10  and  P_12
REMARK    3  A    between atoms: P_12  and  O_13
REMARK    4  A    between atoms: P_12  and  O_15
REMARK                            x       y       z     vdW  Elec       q    Type
REMARK                         _______ _______ _______ _____ _____    ______ ____
ROOT
ATOM      1 CL   UNL     1      34.074 -24.086 -14.501  0.00  0.00    -0.079 Cl
ATOM      2 CL   UNL     1      36.636 -21.173 -19.392  0.00  0.00    -0.081 Cl
ATOM      3 CL   UNL     1      33.538 -22.106 -19.452  0.00  0.00    -0.081 Cl
ATOM      4  C   UNL     1      36.117 -22.878 -15.830  0.00  0.00    +0.158 C 
ATOM      5  C   UNL     1      34.784 -23.281 -15.851  0.00  0.00    +0.093 C 
ATOM      6  C   UNL     1      36.673 -22.229 -16.929  0.00  0.00    +0.050 C 
ATOM      7  C   UNL     1      35.893 -21.982 -18.058  0.00  0.00    +0.071 C 
ATOM      8  C   UNL     1      34.003 -23.034 -16.980  0.00  0.00    +0.027 C 
ATOM      9  C   UNL     1      34.557 -22.384 -18.083  0.00  0.00    +0.069 C 
ENDROOT
BRANCH   4  10
ATOM     10  O   UNL     1      36.905 -23.107 -14.735  0.00  0.00    -0.424 OA
BRANCH  10  12
ATOM     11  S   UNL     1      37.743 -25.016 -12.509  0.00  0.00    +0.036 S 
ATOM     12  P   UNL     1      37.690 -24.482 -14.384  0.00  0.00    +0.363 P 
BRANCH  12  13
ATOM     13  O   UNL     1      39.134 -24.205 -15.085  0.00  0.00    -0.286 OA
ATOM     14  C   UNL     1      40.145 -25.198 -15.036  0.00  0.00    +0.185 C 
ENDBRANCH  12  13
BRANCH  12  15
ATOM     15  O   UNL     1      37.031 -25.529 -15.440  0.00  0.00    -0.286 OA
ATOM     16  C   UNL     1      36.817 -26.876 -15.055  0.00  0.00    +0.185 C 
ENDBRANCH  12  15
ENDBRANCH  10  12
ENDBRANCH   4  10
TORSDOF 4
ENDMDL
MODEL 3
REMARK VINA RESULT:      -6.6     11.290     12.935
REMARK  Name = 9298
REMARK  4 active torsions:
REMARK  status: ('A' for Active; 'I' for Inactive)
REMARK    1  A    between atoms: C_4  and  O_10
REMARK    2  A    between atoms: O_10  and  P_12
REMARK    3  A    between atoms: P_12  and  O_13
REMARK    4  A    between atoms: P_12  and  O_15
REMARK                            x       y       z     vdW  Elec       q    Type
REMARK                         _______ _______ _______ _____ _____    ______ ____
ROOT
ATOM      1 CL   UNL     1      34.733 -24.290 -12.284  0.00  0.00    -0.079 Cl
ATOM      2 CL   UNL     1      33.747 -22.718 -18.245  0.00  0.00    -0.081 Cl
ATOM      3 CL   UNL     1      31.266 -23.301 -16.250  0.00  0.00    -0.081 Cl
ATOM      4  C   UNL     1      35.527 -23.603 -14.793  0.00  0.00    +0.158 C 
ATOM      5  C   UNL     1      34.462 -23.855 -13.931  0.00  0.00    +0.093 C 
ATOM      6  C   UNL     1      35.290 -23.254 -16.120  0.00  0.00    +0.050 C 
ATOM      7  C   UNL     1      33.981 -23.156 -16.589  0.00  0.00    +0.071 C 
ATOM      8  C   UNL     1      33.153 -23.757 -14.400  0.00  0.00    +0.027 C 
ATOM      9  C   UNL     1      32.911 -23.407 -15.728  0.00  0.00    +0.069 C 
ENDROOT
BRANCH   4  10
ATOM     10  O   UNL     1      36.821 -23.692 -14.360  0.00  0.00    -0.424 OA
BRANCH  10  12
ATOM     11  S   UNL     1      36.973 -26.648 -15.094  0.00  0.00    +0.036 S 
ATOM     12  P   UNL     1      37.726 -25.035 -14.296  0.00  0.00    +0.363 P 
BRANCH  12  13
ATOM     13  O   UNL     1      38.053 -25.117 -12.702  0.00  0.00    -0.286 OA
ATOM     14  C   UNL     1      38.242 -23.925 -11.958  0.00  0.00    +0.185 C 
ENDBRANCH  12  13
BRANCH  12  15
ATOM     15  O   UNL     1      39.153 -24.513 -14.876  0.00  0.00    -0.286 OA
ATOM     16  C   UNL     1      40.241 -25.414 -14.990  0.00  0.00    +0.185 C 
ENDBRANCH  12  15
ENDBRANCH  10  12
ENDBRANCH   4  10
TORSDOF 4
ENDMDL
MODEL 4
REMARK VINA RESULT:      -6.5     10.952     12.326
REMARK  Name = 9298
REMARK  4 active torsions:
REMARK  status: ('A' for Active; 'I' for Inactive)
REMARK    1  A    between atoms: C_4  and  O_10
REMARK    2  A    between atoms: O_10  and  P_12
REMARK    3  A    between atoms: P_12  and  O_13
REMARK    4  A    between atoms: P_12  and  O_15
REMARK                            x       y       z     vdW  Elec       q    Type
REMARK                         _______ _______ _______ _____ _____    ______ ____
ROOT
ATOM      1 CL   UNL     1      34.291 -22.638 -17.909  0.00  0.00    -0.079 Cl
ATOM      2 CL   UNL     1      30.658 -24.404 -13.149  0.00  0.00    -0.081 Cl
ATOM      3 CL   UNL     1      29.450 -24.105 -16.136  0.00  0.00    -0.081 Cl
ATOM      4  C   UNL     1      33.805 -23.256 -15.305  0.00  0.00    +0.158 C 
ATOM      5  C   UNL     1      33.289 -23.126 -16.592  0.00  0.00    +0.093 C 
ATOM      6  C   UNL     1      32.981 -23.650 -14.254  0.00  0.00    +0.050 C 
ATOM      7  C   UNL     1      31.633 -23.917 -14.490  0.00  0.00    +0.071 C 
ATOM      8  C   UNL     1      31.941 -23.393 -16.829  0.00  0.00    +0.027 C 
ATOM      9  C   UNL     1      31.113 -23.788 -15.779  0.00  0.00    +0.069 C 
ENDROOT
BRANCH   4  10
ATOM     10  O   UNL     1      35.123 -23.001 -15.044  0.00  0.00    -0.424 OA
BRANCH  10  12
ATOM     11  S   UNL     1      36.120 -24.469 -12.564  0.00  0.00    +0.036 S 
ATOM     12  P   UNL     1      36.212 -24.055 -14.467  0.00  0.00    +0.363 P 
BRANCH  12  13
ATOM     13  O   UNL     1      37.603 -23.380 -14.981  0.00  0.00    -0.286 OA
ATOM     14  C   UNL     1      37.587 -22.477 -16.074  0.00  0.00    +0.185 C 
ENDBRANCH  12  13
BRANCH  12  15
ATOM     15  O   UNL     1      36.069 -25.296 -15.508  0.00  0.00    -0.286 OA
ATOM     16  C   UNL     1      36.738 -26.518 -15.245  0.00  0.00    +0.185 C 
ENDBRANCH  12  15
ENDBRANCH  10  12
ENDBRANCH   4  10
TORSDOF 4
ENDMDL
MODEL 5
REMARK VINA RESULT:      -6.5     11.646     13.303
REMARK  Name = 9298
REMARK  4 active torsions:
REMARK  status: ('A' for Active; 'I' for Inactive)
REMARK    1  A    between atoms: C_4  and  O_10
REMARK    2  A    between atoms: O_10  and  P_12
REMARK    3  A    between atoms: P_12  and  O_13
REMARK    4  A    between atoms: P_12  and  O_15
REMARK                            x       y       z     vdW  Elec       q    Type
REMARK                         _______ _______ _______ _____ _____    ______ ____
ROOT
ATOM      1 CL   UNL     1      37.641 -22.425 -16.354  0.00  0.00    -0.079 Cl
ATOM      2 CL   UNL     1      32.178 -24.320 -14.001  0.00  0.00    -0.081 Cl
ATOM      3 CL   UNL     1      32.380 -23.195 -17.029  0.00  0.00    -0.081 Cl
ATOM      4  C   UNL     1      36.041 -23.434 -14.400  0.00  0.00    +0.158 C 
ATOM      5  C   UNL     1      36.132 -22.949 -15.702  0.00  0.00    +0.093 C 
ATOM      6  C   UNL     1      34.814 -23.852 -13.890  0.00  0.00    +0.050 C 
ATOM      7  C   UNL     1      33.672 -23.786 -14.687  0.00  0.00    +0.071 C 
ATOM      8  C   UNL     1      34.990 -22.883 -16.499  0.00  0.00    +0.027 C 
ATOM      9  C   UNL     1      33.760 -23.302 -15.992  0.00  0.00    +0.069 C 
ENDROOT
BRANCH   4  10
ATOM     10  O   UNL     1      37.145 -23.511 -13.597  0.00  0.00    -0.424 OA
BRANCH  10  12
ATOM     11  S   UNL     1      37.162 -26.557 -13.735  0.00  0.00    +0.036 S 
ATOM     12  P   UNL     1      37.837 -24.866 -13.037  0.00  0.00    +0.363 P 
BRANCH  12  13
ATOM     13  O   UNL     1      37.688 -24.651 -11.429  0.00  0.00    -0.286 OA
ATOM     14  C   UNL     1      36.656 -23.822 -10.920  0.00  0.00    +0.185 C 
ENDBRANCH  12  13
BRANCH  12  15
ATOM     15  O   UNL     1      39.419 -24.551 -13.244  0.00  0.00    -0.286 OA
ATOM     16  C   UNL     1      40.186 -25.350 -14.129  0.00  0.00    +0.185 C 
ENDBRANCH  12  15
ENDBRANCH  10  12
ENDBRANCH   4  10
TORSDOF 4
ENDMDL
MODEL 6
REMARK VINA RESULT:      -6.4      3.581      5.629
REMARK  Name = 9298
REMARK  4 active torsions:
REMARK  status: ('A' for Active; 'I' for Inactive)
REMARK    1  A    between atoms: C_4  and  O_10
REMARK    2  A    between atoms: O_10  and  P_12
REMARK    3  A    between atoms: P_12  and  O_13
REMARK    4  A    between atoms: P_12  and  O_15
REMARK                            x       y       z     vdW  Elec       q    Type
REMARK                         _______ _______ _______ _____ _____    ______ ____
ROOT
ATOM      1 CL   UNL     1      34.676 -19.085 -24.934  0.00  0.00    -0.079 Cl
ATOM      2 CL   UNL     1      33.854 -12.972 -23.972  0.00  0.00    -0.081 Cl
ATOM      3 CL   UNL     1      32.567 -14.432 -26.558  0.00  0.00    -0.081 Cl
ATOM      4  C   UNL     1      35.001 -16.763 -23.556  0.00  0.00    +0.158 C 
ATOM      5  C   UNL     1      34.449 -17.396 -24.667  0.00  0.00    +0.093 C 
ATOM      6  C   UNL     1      34.809 -15.399 -23.355  0.00  0.00    +0.050 C 
ATOM      7  C   UNL     1      34.060 -14.661 -24.272  0.00  0.00    +0.071 C 
ATOM      8  C   UNL     1      33.701 -16.658 -25.583  0.00  0.00    +0.027 C 
ATOM      9  C   UNL     1      33.505 -15.292 -25.386  0.00  0.00    +0.069 C 
ENDROOT
BRANCH   4  10
ATOM     10  O   UNL     1      35.740 -17.462 -22.640  0.00  0.00    -0.424 OA
BRANCH  10  12
ATOM     11  S   UNL     1      33.486 -18.944 -21.216  0.00  0.00    +0.036 S 
ATOM     12  P   UNL     1      35.215 -18.041 -21.220  0.00  0.00    +0.363 P 
BRANCH  12  13
ATOM     13  O   UNL     1      35.326 -16.714 -20.282  0.00  0.00    -0.286 OA
ATOM     14  C   UNL     1      34.252 -15.788 -20.240  0.00  0.00    +0.185 C 
ENDBRANCH  12  13
BRANCH  12  15
ATOM     15  O   UNL     1      36.502 -18.892 -20.703  0.00  0.00    -0.286 OA
ATOM     16  C   UNL     1      36.340 -20.242 -20.302  0.00  0.00    +0.185 C 
ENDBRANCH  12  15
ENDBRANCH  10  12
ENDBRANCH   4  10
TORSDOF 4
ENDMDL
MODEL 7
REMARK VINA RESULT:      -6.3     11.343     12.894
REMARK  Name = 9298
REMARK  4 active torsions:
REMARK  status: ('A' for Active; 'I' for Inactive)
REMARK    1  A    between atoms: C_4  and  O_10
REMARK    2  A    between atoms: O_10  and  P_12
REMARK    3  A    between atoms: P_12  and  O_13
REMARK    4  A    between atoms: P_12  and  O_15
REMARK                            x       y       z     vdW  Elec       q    Type
REMARK                         _______ _______ _______ _____ _____    ______ ____
ROOT
ATOM      1 CL   UNL     1      36.469 -22.201 -17.133  0.00  0.00    -0.079 Cl
ATOM      2 CL   UNL     1      32.005 -24.781 -13.613  0.00  0.00    -0.081 Cl
ATOM      3 CL   UNL     1      31.292 -23.414 -16.459  0.00  0.00    -0.081 Cl
ATOM      4  C   UNL     1      35.539 -23.504 -14.934  0.00  0.00    +0.158 C 
ATOM      5  C   UNL     1      35.237 -22.915 -16.159  0.00  0.00    +0.093 C 
ATOM      6  C   UNL     1      34.532 -24.075 -14.160  0.00  0.00    +0.050 C 
ATOM      7  C   UNL     1      33.213 -24.057 -14.614  0.00  0.00    +0.071 C 
ATOM      8  C   UNL     1      33.919 -22.897 -16.613  0.00  0.00    +0.027 C 
ATOM      9  C   UNL     1      32.907 -23.468 -15.842  0.00  0.00    +0.069 C 
ENDROOT
BRANCH   4  10
ATOM     10  O   UNL     1      36.824 -23.536 -14.464  0.00  0.00    -0.424 OA
BRANCH  10  12
ATOM     11  S   UNL     1      37.630 -25.691 -12.462  0.00  0.00    +0.036 S 
ATOM     12  P   UNL     1      37.728 -24.860 -14.224  0.00  0.00    +0.363 P 
BRANCH  12  13
ATOM     13  O   UNL     1      39.198 -24.320 -14.673  0.00  0.00    -0.286 OA
ATOM     14  C   UNL     1      40.206 -25.245 -15.047  0.00  0.00    +0.185 C 
ENDBRANCH  12  13
BRANCH  12  15
ATOM     15  O   UNL     1      37.333 -25.780 -15.505  0.00  0.00    -0.286 OA
ATOM     16  C   UNL     1      36.767 -27.064 -15.304  0.00  0.00    +0.185 C 
ENDBRANCH  12  15
ENDBRANCH  10  12
ENDBRANCH   4  10
TORSDOF 4
ENDMDL
MODEL 8
REMARK VINA RESULT:      -6.3     10.489     12.105
REMARK  Name = 9298
REMARK  4 active torsions:
REMARK  status: ('A' for Active; 'I' for Inactive)
REMARK    1  A    between atoms: C_4  and  O_10
REMARK    2  A    between atoms: O_10  and  P_12
REMARK    3  A    between atoms: P_12  and  O_13
REMARK    4  A    between atoms: P_12  and  O_15
REMARK                            x       y       z     vdW  Elec       q    Type
REMARK                         _______ _______ _______ _____ _____    ______ ____
ROOT
ATOM      1 CL   UNL     1      34.138 -22.741 -18.341  0.00  0.00    -0.079 Cl
ATOM      2 CL   UNL     1      30.851 -24.313 -13.271  0.00  0.00    -0.081 Cl
ATOM      3 CL   UNL     1      29.482 -22.650 -15.687  0.00  0.00    -0.081 Cl
ATOM      4  C   UNL     1      33.817 -23.891 -15.897  0.00  0.00    +0.158 C 
ATOM      5  C   UNL     1      33.232 -23.176 -16.939  0.00  0.00    +0.093 C 
ATOM      6  C   UNL     1      33.070 -24.234 -14.773  0.00  0.00    +0.050 C 
ATOM      7  C   UNL     1      31.729 -23.860 -14.689  0.00  0.00    +0.071 C 
ATOM      8  C   UNL     1      31.891 -22.802 -16.855  0.00  0.00    +0.027 C 
ATOM      9  C   UNL     1      31.140 -23.143 -15.732  0.00  0.00    +0.069 C 
ENDROOT
BRANCH   4  10
ATOM     10  O   UNL     1      35.130 -24.272 -15.953  0.00  0.00    -0.424 OA
BRANCH  10  12
ATOM     11  S   UNL     1      37.116 -21.980 -16.275  0.00  0.00    +0.036 S 
ATOM     12  P   UNL     1      36.387 -23.496 -15.286  0.00  0.00    +0.363 P 
BRANCH  12  13
ATOM     13  O   UNL     1      37.414 -24.732 -15.023  0.00  0.00    -0.286 OA
ATOM     14  C   UNL     1      36.934 -26.067 -15.052  0.00  0.00    +0.185 C 
ENDBRANCH  12  13
BRANCH  12  15
ATOM     15  O   UNL     1      35.852 -23.214 -13.777  0.00  0.00    -0.286 OA
ATOM     16  C   UNL     1      36.766 -23.211 -12.694  0.00  0.00    +0.185 C 
ENDBRANCH  12  15
ENDBRANCH  10  12
ENDBRANCH   4  10
TORSDOF 4
ENDMDL
MODEL 9
REMARK VINA RESULT:      -6.3      4.151      5.127
REMARK  Name = 9298
REMARK  4 active torsions:
REMARK  status: ('A' for Active; 'I' for Inactive)
REMARK    1  A    between atoms: C_4  and  O_10
REMARK    2  A    between atoms: O_10  and  P_12
REMARK    3  A    between atoms: P_12  and  O_13
REMARK    4  A    between atoms: P_12  and  O_15
REMARK                            x       y       z     vdW  Elec       q    Type
REMARK                         _______ _______ _______ _____ _____    ______ ____
ROOT
ATOM      1 CL   UNL     1      31.233 -11.165 -19.552  0.00  0.00    -0.079 Cl
ATOM      2 CL   UNL     1      33.413 -14.923 -24.035  0.00  0.00    -0.081 Cl
ATOM      3 CL   UNL     1      33.387 -15.872 -20.941  0.00  0.00    -0.081 Cl
ATOM      4  C   UNL     1      31.848 -11.797 -22.125  0.00  0.00    +0.158 C 
ATOM      5  C   UNL     1      31.835 -12.202 -20.792  0.00  0.00    +0.093 C 
ATOM      6  C   UNL     1      32.338 -12.647 -23.113  0.00  0.00    +0.050 C 
ATOM      7  C   UNL     1      32.818 -13.910 -22.767  0.00  0.00    +0.071 C 
ATOM      8  C   UNL     1      32.315 -13.465 -20.447  0.00  0.00    +0.027 C 
ATOM      9  C   UNL     1      32.806 -14.319 -21.433  0.00  0.00    +0.069 C 
ENDROOT
BRANCH   4  10
ATOM     10  O   UNL     1      31.383 -10.565 -22.492  0.00  0.00    -0.424 OA
BRANCH  10  12
ATOM     11  S   UNL     1      32.522  -8.120 -21.069  0.00  0.00    +0.036 S 
ATOM     12  P   UNL     1      32.263  -9.214 -22.663  0.00  0.00    +0.363 P 
BRANCH  12  13
ATOM     13  O   UNL     1      31.491  -8.492 -23.902  0.00  0.00    -0.286 OA
ATOM     14  C   UNL     1      31.174  -7.111 -23.828  0.00  0.00    +0.185 C 
ENDBRANCH  12  13
BRANCH  12  15
ATOM     15  O   UNL     1      33.596  -9.768 -23.412  0.00  0.00    -0.286 OA
ATOM     16  C   UNL     1      34.545  -8.853 -23.931  0.00  0.00    +0.185 C 
ENDBRANCH  12  15
ENDBRANCH  10  12
ENDBRANCH   4  10
TORSDOF 4
ENDMDL
