MODEL 1
REMARK VINA RESULT:      -9.5      0.000      0.000
REMARK  Name = 24864077
REMARK  3 active torsions:
REMARK  status: ('A' for Active; 'I' for Inactive)
REMARK    1  A    between atoms: C_3  and  C_14
REMARK    2  A    between atoms: C_4  and  N_8
REMARK    3  A    between atoms: N_13  and  C_17
REMARK                            x       y       z     vdW  Elec       q    Type
REMARK                         _______ _______ _______ _____ _____    ______ ____
ROOT
ATOM      1  N   UNL     1      35.065 -17.370 -24.662  0.00  0.00    -0.230 N 
ATOM      2  N   UNL     1      34.768 -16.575 -25.705  0.00  0.00    -0.178 NA
ATOM      3  C   UNL     1      34.533 -16.949 -23.479  0.00  0.00    +0.134 C 
ATOM      4  C   UNL     1      33.839 -15.799 -23.768  0.00  0.00    +0.091 C 
ATOM      5  C   UNL     1      34.019 -15.617 -25.151  0.00  0.00    +0.134 C 
ATOM      6  H   UNL     1      35.617 -18.181 -24.745  0.00  0.00    +0.175 HD
ENDROOT
BRANCH   4   8
ATOM      7  O   UNL     1      33.792 -12.808 -23.418  0.00  0.00    -0.275 OA
ATOM      8  N   UNL     1      33.132 -15.015 -22.889  0.00  0.00    -0.282 N 
ATOM      9  C   UNL     1      33.138 -13.606 -22.754  0.00  0.00    +0.227 C 
ATOM     10  C   UNL     1      32.214 -13.128 -21.662  0.00  0.00    +0.095 C 
ATOM     11  H   UNL     1      32.540 -15.498 -22.268  0.00  0.00    +0.155 HD
ENDBRANCH   4   8
BRANCH   3  14
ATOM     12  O   UNL     1      35.071 -16.987 -21.216  0.00  0.00    -0.268 OA
ATOM     13  N   UNL     1      34.431 -19.024 -22.200  0.00  0.00    -0.279 N 
ATOM     14  C   UNL     1      34.714 -17.653 -22.183  0.00  0.00    +0.266 C 
ATOM     15  H   UNL     1      34.156 -19.398 -23.068  0.00  0.00    +0.155 HD
BRANCH  13  17
ATOM     16  F   UNL     1      34.662 -22.597 -17.992  0.00  0.00    -0.204 F 
ATOM     17  C   UNL     1      34.489 -19.927 -21.137  0.00  0.00    +0.051 C 
ATOM     18  C   UNL     1      35.723 -20.391 -20.683  0.00  0.00    +0.017 C 
ATOM     19  C   UNL     1      33.312 -20.366 -20.530  0.00  0.00    +0.017 C 
ATOM     20  C   UNL     1      35.782 -21.293 -19.621  0.00  0.00    +0.031 C 
ATOM     21  C   UNL     1      33.371 -21.267 -19.467  0.00  0.00    +0.031 C 
ATOM     22  C   UNL     1      34.605 -21.732 -19.013  0.00  0.00    +0.140 C 
ENDBRANCH  13  17
ENDBRANCH   3  14
TORSDOF 3
ENDMDL
MODEL 2
REMARK VINA RESULT:      -9.4      1.074      1.543
REMARK  Name = 24864077
REMARK  3 active torsions:
REMARK  status: ('A' for Active; 'I' for Inactive)
REMARK    1  A    between atoms: C_3  and  C_14
REMARK    2  A    between atoms: C_4  and  N_8
REMARK    3  A    between atoms: N_13  and  C_17
REMARK                            x       y       z     vdW  Elec       q    Type
REMARK                         _______ _______ _______ _____ _____    ______ ____
ROOT
ATOM      1  N   UNL     1      34.568 -17.313 -24.744  0.00  0.00    -0.230 N 
ATOM      2  N   UNL     1      34.213 -16.460 -25.721  0.00  0.00    -0.178 NA
ATOM      3  C   UNL     1      34.408 -16.808 -23.487  0.00  0.00    +0.134 C 
ATOM      4  C   UNL     1      33.913 -15.538 -23.653  0.00  0.00    +0.091 C 
ATOM      5  C   UNL     1      33.813 -15.378 -25.047  0.00  0.00    +0.134 C 
ATOM      6  H   UNL     1      34.914 -18.218 -24.920  0.00  0.00    +0.175 HD
ENDROOT
BRANCH   4   8
ATOM      7  O   UNL     1      31.970 -15.759 -21.363  0.00  0.00    -0.275 OA
ATOM      8  N   UNL     1      33.591 -14.638 -22.666  0.00  0.00    -0.282 N 
ATOM      9  C   UNL     1      32.668 -14.780 -21.603  0.00  0.00    +0.227 C 
ATOM     10  C   UNL     1      32.607 -13.553 -20.727  0.00  0.00    +0.095 C 
ATOM     11  H   UNL     1      34.069 -13.778 -22.702  0.00  0.00    +0.155 HD
ENDBRANCH   4   8
BRANCH   3  14
ATOM     12  O   UNL     1      35.300 -16.943 -21.343  0.00  0.00    -0.268 OA
ATOM     13  N   UNL     1      34.313 -18.890 -22.216  0.00  0.00    -0.279 N 
ATOM     14  C   UNL     1      34.728 -17.552 -22.240  0.00  0.00    +0.266 C 
ATOM     15  H   UNL     1      33.866 -19.218 -23.030  0.00  0.00    +0.155 HD
BRANCH  13  17
ATOM     16  F   UNL     1      34.874 -22.553 -18.118  0.00  0.00    -0.204 F 
ATOM     17  C   UNL     1      34.455 -19.815 -21.181  0.00  0.00    +0.051 C 
ATOM     18  C   UNL     1      33.324 -20.343 -20.558  0.00  0.00    +0.017 C 
ATOM     19  C   UNL     1      35.727 -20.210 -20.769  0.00  0.00    +0.017 C 
ATOM     20  C   UNL     1      33.466 -21.268 -19.523  0.00  0.00    +0.031 C 
ATOM     21  C   UNL     1      35.869 -21.136 -19.735  0.00  0.00    +0.031 C 
ATOM     22  C   UNL     1      34.738 -21.663 -19.112  0.00  0.00    +0.140 C 
ENDBRANCH  13  17
ENDBRANCH   3  14
TORSDOF 3
ENDMDL
MODEL 3
REMARK VINA RESULT:      -9.2      7.839     11.545
REMARK  Name = 24864077
REMARK  3 active torsions:
REMARK  status: ('A' for Active; 'I' for Inactive)
REMARK    1  A    between atoms: C_3  and  C_14
REMARK    2  A    between atoms: C_4  and  N_8
REMARK    3  A    between atoms: N_13  and  C_17
REMARK                            x       y       z     vdW  Elec       q    Type
REMARK                         _______ _______ _______ _____ _____    ______ ____
ROOT
ATOM      1  N   UNL     1      34.847 -24.688 -12.732  0.00  0.00    -0.230 N 
ATOM      2  N   UNL     1      35.205 -24.896 -11.453  0.00  0.00    -0.178 NA
ATOM      3  C   UNL     1      35.898 -24.669 -13.602  0.00  0.00    +0.134 C 
ATOM      4  C   UNL     1      37.020 -24.880 -12.839  0.00  0.00    +0.091 C 
ATOM      5  C   UNL     1      36.534 -25.013 -11.525  0.00  0.00    +0.134 C 
ATOM      6  H   UNL     1      33.913 -24.559 -13.014  0.00  0.00    +0.175 HD
ENDROOT
BRANCH   4   8
ATOM      7  O   UNL     1      38.412 -26.948 -14.529  0.00  0.00    -0.275 OA
ATOM      8  N   UNL     1      38.321 -24.945 -13.278  0.00  0.00    -0.282 N 
ATOM      9  C   UNL     1      38.939 -25.938 -14.073  0.00  0.00    +0.227 C 
ATOM     10  C   UNL     1      40.394 -25.639 -14.339  0.00  0.00    +0.095 C 
ATOM     11  H   UNL     1      38.901 -24.199 -13.002  0.00  0.00    +0.155 HD
ENDBRANCH   4   8
BRANCH   3  14
ATOM     12  O   UNL     1      35.688 -25.449 -15.783  0.00  0.00    -0.268 OA
ATOM     13  N   UNL     1      35.721 -23.118 -15.478  0.00  0.00    -0.279 N 
ATOM     14  C   UNL     1      35.766 -24.457 -15.067  0.00  0.00    +0.266 C 
ATOM     15  H   UNL     1      35.799 -22.444 -14.764  0.00  0.00    +0.155 HD
BRANCH  13  17
ATOM     16  F   UNL     1      35.160 -21.151 -20.610  0.00  0.00    -0.204 F 
ATOM     17  C   UNL     1      35.580 -22.621 -16.775  0.00  0.00    +0.051 C 
ATOM     18  C   UNL     1      34.378 -22.797 -17.461  0.00  0.00    +0.017 C 
ATOM     19  C   UNL     1      36.640 -21.950 -17.383  0.00  0.00    +0.017 C 
ATOM     20  C   UNL     1      34.237 -22.300 -18.757  0.00  0.00    +0.031 C 
ATOM     21  C   UNL     1      36.498 -21.453 -18.679  0.00  0.00    +0.031 C 
ATOM     22  C   UNL     1      35.297 -21.629 -19.366  0.00  0.00    +0.140 C 
ENDBRANCH  13  17
ENDBRANCH   3  14
TORSDOF 3
ENDMDL
MODEL 4
REMARK VINA RESULT:      -9.0      1.420      2.111
REMARK  Name = 24864077
REMARK  3 active torsions:
REMARK  status: ('A' for Active; 'I' for Inactive)
REMARK    1  A    between atoms: C_3  and  C_14
REMARK    2  A    between atoms: C_4  and  N_8
REMARK    3  A    between atoms: N_13  and  C_17
REMARK                            x       y       z     vdW  Elec       q    Type
REMARK                         _______ _______ _______ _____ _____    ______ ____
ROOT
ATOM      1  N   UNL     1      34.114 -16.060 -25.520  0.00  0.00    -0.230 N 
ATOM      2  N   UNL     1      33.601 -15.297 -26.501  0.00  0.00    -0.178 NA
ATOM      3  C   UNL     1      33.798 -15.630 -24.265  0.00  0.00    +0.134 C 
ATOM      4  C   UNL     1      33.023 -14.508 -24.437  0.00  0.00    +0.091 C 
ATOM      5  C   UNL     1      32.936 -14.352 -25.833  0.00  0.00    +0.134 C 
ATOM      6  H   UNL     1      34.669 -16.855 -25.692  0.00  0.00    +0.175 HD
ENDROOT
BRANCH   4   8
ATOM      7  O   UNL     1      33.610 -11.667 -23.631  0.00  0.00    -0.275 OA
ATOM      8  N   UNL     1      32.466 -13.727 -23.454  0.00  0.00    -0.282 N 
ATOM      9  C   UNL     1      32.771 -12.391 -23.104  0.00  0.00    +0.227 C 
ATOM     10  C   UNL     1      31.928 -11.889 -21.958  0.00  0.00    +0.095 C 
ATOM     11  H   UNL     1      31.758 -14.155 -22.921  0.00  0.00    +0.155 HD
ENDBRANCH   4   8
BRANCH   3  14
ATOM     12  O   UNL     1      34.254 -15.635 -21.984  0.00  0.00    -0.268 OA
ATOM     13  N   UNL     1      34.584 -17.651 -23.147  0.00  0.00    -0.279 N 
ATOM     14  C   UNL     1      34.242 -16.299 -23.015  0.00  0.00    +0.266 C 
ATOM     15  H   UNL     1      34.516 -18.028 -24.055  0.00  0.00    +0.155 HD
BRANCH  13  17
ATOM     16  F   UNL     1      36.264 -21.138 -19.204  0.00  0.00    -0.204 F 
ATOM     17  C   UNL     1      35.008 -18.532 -22.150  0.00  0.00    +0.051 C 
ATOM     18  C   UNL     1      34.096 -19.401 -21.553  0.00  0.00    +0.017 C 
ATOM     19  C   UNL     1      36.345 -18.542 -21.753  0.00  0.00    +0.017 C 
ATOM     20  C   UNL     1      34.520 -20.281 -20.557  0.00  0.00    +0.031 C 
ATOM     21  C   UNL     1      36.769 -19.423 -20.758  0.00  0.00    +0.031 C 
ATOM     22  C   UNL     1      35.856 -20.291 -20.160  0.00  0.00    +0.140 C 
ENDBRANCH  13  17
ENDBRANCH   3  14
TORSDOF 3
ENDMDL
MODEL 5
REMARK VINA RESULT:      -8.9      5.686      8.866
REMARK  Name = 24864077
REMARK  3 active torsions:
REMARK  status: ('A' for Active; 'I' for Inactive)
REMARK    1  A    between atoms: C_3  and  C_14
REMARK    2  A    between atoms: C_4  and  N_8
REMARK    3  A    between atoms: N_13  and  C_17
REMARK                            x       y       z     vdW  Elec       q    Type
REMARK                         _______ _______ _______ _____ _____    ______ ____
ROOT
ATOM      1  N   UNL     1      38.468 -23.286 -16.056  0.00  0.00    -0.230 N 
ATOM      2  N   UNL     1      38.578 -24.222 -15.097  0.00  0.00    -0.178 NA
ATOM      3  C   UNL     1      37.217 -22.756 -16.168  0.00  0.00    +0.134 C 
ATOM      4  C   UNL     1      36.455 -23.388 -15.215  0.00  0.00    +0.091 C 
ATOM      5  C   UNL     1      37.345 -24.279 -14.588  0.00  0.00    +0.134 C 
ATOM      6  H   UNL     1      39.222 -23.010 -16.626  0.00  0.00    +0.175 HD
ENDROOT
BRANCH   4   8
ATOM      7  O   UNL     1      34.015 -23.982 -16.878  0.00  0.00    -0.275 OA
ATOM      8  N   UNL     1      35.123 -23.183 -14.949  0.00  0.00    -0.282 N 
ATOM      9  C   UNL     1      34.001 -23.476 -15.760  0.00  0.00    +0.227 C 
ATOM     10  C   UNL     1      32.699 -23.096 -15.100  0.00  0.00    +0.095 C 
ATOM     11  H   UNL     1      34.921 -22.778 -14.075  0.00  0.00    +0.155 HD
ENDBRANCH   4   8
BRANCH   3  14
ATOM     12  O   UNL     1      37.344 -20.597 -17.024  0.00  0.00    -0.268 OA
ATOM     13  N   UNL     1      35.942 -22.113 -18.147  0.00  0.00    -0.279 N 
ATOM     14  C   UNL     1      36.837 -21.706 -17.150  0.00  0.00    +0.266 C 
ATOM     15  H   UNL     1      35.632 -23.047 -18.096  0.00  0.00    +0.155 HD
BRANCH  13  17
ATOM     16  F   UNL     1      33.928 -19.126 -22.336  0.00  0.00    -0.204 F 
ATOM     17  C   UNL     1      35.433 -21.358 -19.205  0.00  0.00    +0.051 C 
ATOM     18  C   UNL     1      36.299 -20.643 -20.031  0.00  0.00    +0.017 C 
ATOM     19  C   UNL     1      34.058 -21.318 -19.435  0.00  0.00    +0.017 C 
ATOM     20  C   UNL     1      35.791 -19.889 -21.089  0.00  0.00    +0.031 C 
ATOM     21  C   UNL     1      33.550 -20.565 -20.493  0.00  0.00    +0.031 C 
ATOM     22  C   UNL     1      34.416 -19.849 -21.319  0.00  0.00    +0.140 C 
ENDBRANCH  13  17
ENDBRANCH   3  14
TORSDOF 3
ENDMDL
MODEL 6
REMARK VINA RESULT:      -8.8      3.901      7.182
REMARK  Name = 24864077
REMARK  3 active torsions:
REMARK  status: ('A' for Active; 'I' for Inactive)
REMARK    1  A    between atoms: C_3  and  C_14
REMARK    2  A    between atoms: C_4  and  N_8
REMARK    3  A    between atoms: N_13  and  C_17
REMARK                            x       y       z     vdW  Elec       q    Type
REMARK                         _______ _______ _______ _____ _____    ______ ____
ROOT
ATOM      1  N   UNL     1      33.318 -15.058 -25.309  0.00  0.00    -0.230 N 
ATOM      2  N   UNL     1      33.592 -16.042 -26.183  0.00  0.00    -0.178 NA
ATOM      3  C   UNL     1      33.905 -15.225 -24.089  0.00  0.00    +0.134 C 
ATOM      4  C   UNL     1      34.613 -16.399 -24.171  0.00  0.00    +0.091 C 
ATOM      5  C   UNL     1      34.384 -16.858 -25.481  0.00  0.00    +0.134 C 
ATOM      6  H   UNL     1      32.746 -14.288 -25.529  0.00  0.00    +0.175 HD
ENDROOT
BRANCH   4   8
ATOM      7  O   UNL     1      34.392 -19.110 -22.878  0.00  0.00    -0.275 OA
ATOM      8  N   UNL     1      35.370 -16.981 -23.183  0.00  0.00    -0.282 N 
ATOM      9  C   UNL     1      35.234 -18.262 -22.599  0.00  0.00    +0.227 C 
ATOM     10  C   UNL     1      36.273 -18.525 -21.538  0.00  0.00    +0.095 C 
ATOM     11  H   UNL     1      36.109 -16.432 -22.834  0.00  0.00    +0.155 HD
ENDBRANCH   4   8
BRANCH   3  14
ATOM     12  O   UNL     1      34.630 -14.279 -22.092  0.00  0.00    -0.268 OA
ATOM     13  N   UNL     1      32.628 -13.452 -23.004  0.00  0.00    -0.279 N 
ATOM     14  C   UNL     1      33.758 -14.277 -22.953  0.00  0.00    +0.266 C 
ATOM     15  H   UNL     1      32.027 -13.586 -23.773  0.00  0.00    +0.155 HD
BRANCH  13  17
ATOM     16  F   UNL     1      31.120  -9.529 -19.417  0.00  0.00    -0.204 F 
ATOM     17  C   UNL     1      32.246 -12.460 -22.097  0.00  0.00    +0.051 C 
ATOM     18  C   UNL     1      32.020 -12.787 -20.761  0.00  0.00    +0.017 C 
ATOM     19  C   UNL     1      32.092 -11.143 -22.530  0.00  0.00    +0.017 C 
ATOM     20  C   UNL     1      31.639 -11.797 -19.855  0.00  0.00    +0.031 C 
ATOM     21  C   UNL     1      31.711 -10.153 -21.624  0.00  0.00    +0.031 C 
ATOM     22  C   UNL     1      31.485 -10.480 -20.287  0.00  0.00    +0.140 C 
ENDBRANCH  13  17
ENDBRANCH   3  14
TORSDOF 3
ENDMDL
MODEL 7
REMARK VINA RESULT:      -8.7      9.087     11.453
REMARK  Name = 24864077
REMARK  3 active torsions:
REMARK  status: ('A' for Active; 'I' for Inactive)
REMARK    1  A    between atoms: C_3  and  C_14
REMARK    2  A    between atoms: C_4  and  N_8
REMARK    3  A    between atoms: N_13  and  C_17
REMARK                            x       y       z     vdW  Elec       q    Type
REMARK                         _______ _______ _______ _____ _____    ______ ____
ROOT
ATOM      1  N   UNL     1      38.596 -25.047 -15.323  0.00  0.00    -0.230 N 
ATOM      2  N   UNL     1      39.702 -25.039 -14.559  0.00  0.00    -0.178 NA
ATOM      3  C   UNL     1      37.434 -25.017 -14.610  0.00  0.00    +0.134 C 
ATOM      4  C   UNL     1      37.806 -24.988 -13.288  0.00  0.00    +0.091 C 
ATOM      5  C   UNL     1      39.212 -25.003 -13.317  0.00  0.00    +0.134 C 
ATOM      6  H   UNL     1      38.622 -25.072 -16.307  0.00  0.00    +0.175 HD
ENDROOT
BRANCH   4   8
ATOM      7  O   UNL     1      37.319 -22.801 -11.275  0.00  0.00    -0.275 OA
ATOM      8  N   UNL     1      36.975 -24.951 -12.193  0.00  0.00    -0.282 N 
ATOM      9  C   UNL     1      36.774 -23.901 -11.267  0.00  0.00    +0.227 C 
ATOM     10  C   UNL     1      35.770 -24.259 -10.200  0.00  0.00    +0.095 C 
ATOM     11  H   UNL     1      36.448 -25.767 -12.032  0.00  0.00    +0.155 HD
ENDBRANCH   4   8
BRANCH   3  14
ATOM     12  O   UNL     1      35.692 -26.053 -15.751  0.00  0.00    -0.268 OA
ATOM     13  N   UNL     1      35.364 -23.819 -15.096  0.00  0.00    -0.279 N 
ATOM     14  C   UNL     1      36.078 -25.018 -15.219  0.00  0.00    +0.266 C 
ATOM     15  H   UNL     1      35.830 -23.084 -14.636  0.00  0.00    +0.155 HD
BRANCH  13  17
ATOM     16  F   UNL     1      30.253 -22.708 -16.876  0.00  0.00    -0.204 F 
ATOM     17  C   UNL     1      34.073 -23.538 -15.546  0.00  0.00    +0.051 C 
ATOM     18  C   UNL     1      33.848 -23.268 -16.895  0.00  0.00    +0.017 C 
ATOM     19  C   UNL     1      33.008 -23.527 -14.645  0.00  0.00    +0.017 C 
ATOM     20  C   UNL     1      32.557 -22.987 -17.345  0.00  0.00    +0.031 C 
ATOM     21  C   UNL     1      31.718 -23.247 -15.095  0.00  0.00    +0.031 C 
ATOM     22  C   UNL     1      31.493 -22.976 -16.444  0.00  0.00    +0.140 C 
ENDBRANCH  13  17
ENDBRANCH   3  14
TORSDOF 3
ENDMDL
MODEL 8
REMARK VINA RESULT:      -8.6      4.876      8.665
REMARK  Name = 24864077
REMARK  3 active torsions:
REMARK  status: ('A' for Active; 'I' for Inactive)
REMARK    1  A    between atoms: C_3  and  C_14
REMARK    2  A    between atoms: C_4  and  N_8
REMARK    3  A    between atoms: N_13  and  C_17
REMARK                            x       y       z     vdW  Elec       q    Type
REMARK                         _______ _______ _______ _____ _____    ______ ____
ROOT
ATOM      1  N   UNL     1      33.265 -14.202 -25.945  0.00  0.00    -0.230 N 
ATOM      2  N   UNL     1      33.477 -15.428 -26.455  0.00  0.00    -0.178 NA
ATOM      3  C   UNL     1      33.466 -14.123 -24.598  0.00  0.00    +0.134 C 
ATOM      4  C   UNL     1      33.835 -15.385 -24.199  0.00  0.00    +0.091 C 
ATOM      5  C   UNL     1      33.824 -16.146 -25.383  0.00  0.00    +0.134 C 
ATOM      6  H   UNL     1      32.990 -13.433 -26.494  0.00  0.00    +0.175 HD
ENDROOT
BRANCH   4   8
ATOM      7  O   UNL     1      35.510 -17.695 -23.237  0.00  0.00    -0.275 OA
ATOM      8  N   UNL     1      34.142 -15.794 -22.924  0.00  0.00    -0.282 N 
ATOM      9  C   UNL     1      34.935 -16.890 -22.511  0.00  0.00    +0.227 C 
ATOM     10  C   UNL     1      35.029 -17.000 -21.010  0.00  0.00    +0.095 C 
ATOM     11  H   UNL     1      33.758 -15.251 -22.198  0.00  0.00    +0.155 HD
ENDBRANCH   4   8
BRANCH   3  14
ATOM     12  O   UNL     1      32.939 -12.997 -22.632  0.00  0.00    -0.268 OA
ATOM     13  N   UNL     1      33.596 -11.690 -24.473  0.00  0.00    -0.279 N 
ATOM     14  C   UNL     1      33.298 -12.881 -23.799  0.00  0.00    +0.266 C 
ATOM     15  H   UNL     1      33.870 -11.782 -25.414  0.00  0.00    +0.155 HD
BRANCH  13  17
ATOM     16  F   UNL     1      33.423  -6.533 -22.497  0.00  0.00    -0.204 F 
ATOM     17  C   UNL     1      33.552 -10.387 -23.974  0.00  0.00    +0.051 C 
ATOM     18  C   UNL     1      32.424  -9.941 -23.286  0.00  0.00    +0.017 C 
ATOM     19  C   UNL     1      34.637  -9.531 -24.164  0.00  0.00    +0.017 C 
ATOM     20  C   UNL     1      32.380  -8.639 -22.788  0.00  0.00    +0.031 C 
ATOM     21  C   UNL     1      34.594  -8.229 -23.664  0.00  0.00    +0.031 C 
ATOM     22  C   UNL     1      33.465  -7.783 -22.978  0.00  0.00    +0.140 C 
ENDBRANCH  13  17
ENDBRANCH   3  14
TORSDOF 3
ENDMDL
MODEL 9
REMARK VINA RESULT:      -8.5      5.137      8.603
REMARK  Name = 24864077
REMARK  3 active torsions:
REMARK  status: ('A' for Active; 'I' for Inactive)
REMARK    1  A    between atoms: C_3  and  C_14
REMARK    2  A    between atoms: C_4  and  N_8
REMARK    3  A    between atoms: N_13  and  C_17
REMARK                            x       y       z     vdW  Elec       q    Type
REMARK                         _______ _______ _______ _____ _____    ______ ____
ROOT
ATOM      1  N   UNL     1      33.121 -14.325 -25.941  0.00  0.00    -0.230 N 
ATOM      2  N   UNL     1      33.456 -15.564 -26.342  0.00  0.00    -0.178 NA
ATOM      3  C   UNL     1      33.408 -14.074 -24.631  0.00  0.00    +0.134 C 
ATOM      4  C   UNL     1      33.969 -15.228 -24.142  0.00  0.00    +0.091 C 
ATOM      5  C   UNL     1      33.973 -16.110 -25.238  0.00  0.00    +0.134 C 
ATOM      6  H   UNL     1      32.706 -13.661 -26.537  0.00  0.00    +0.175 HD
ENDROOT
BRANCH   4   8
ATOM      7  O   UNL     1      32.449 -15.667 -21.580  0.00  0.00    -0.275 OA
ATOM      8  N   UNL     1      34.421 -15.453 -22.864  0.00  0.00    -0.282 N 
ATOM      9  C   UNL     1      33.671 -15.655 -21.681  0.00  0.00    +0.227 C 
ATOM     10  C   UNL     1      34.549 -15.870 -20.473  0.00  0.00    +0.095 C 
ATOM     11  H   UNL     1      35.399 -15.478 -22.756  0.00  0.00    +0.155 HD
ENDBRANCH   4   8
BRANCH   3  14
ATOM     12  O   UNL     1      32.441 -12.805 -22.938  0.00  0.00    -0.268 OA
ATOM     13  N   UNL     1      33.732 -11.658 -24.532  0.00  0.00    -0.279 N 
ATOM     14  C   UNL     1      33.135 -12.782 -23.948  0.00  0.00    +0.266 C 
ATOM     15  H   UNL     1      34.260 -11.822 -25.347  0.00  0.00    +0.155 HD
BRANCH  13  17
ATOM     16  F   UNL     1      33.495  -6.408 -22.827  0.00  0.00    -0.204 F 
ATOM     17  C   UNL     1      33.672 -10.331 -24.101  0.00  0.00    +0.051 C 
ATOM     18  C   UNL     1      34.793  -9.509 -24.217  0.00  0.00    +0.017 C 
ATOM     19  C   UNL     1      32.492  -9.829 -23.554  0.00  0.00    +0.017 C 
ATOM     20  C   UNL     1      34.733  -8.184 -23.786  0.00  0.00    +0.031 C 
ATOM     21  C   UNL     1      32.432  -8.503 -23.124  0.00  0.00    +0.031 C 
ATOM     22  C   UNL     1      33.553  -7.682 -23.239  0.00  0.00    +0.140 C 
ENDBRANCH  13  17
ENDBRANCH   3  14
TORSDOF 3
ENDMDL
