MODEL 1
REMARK VINA RESULT:      -7.5      0.000      0.000
REMARK  Name = 2717
REMARK  1 active torsions:
REMARK  status: ('A' for Active; 'I' for Inactive)
REMARK    1  A    between atoms: C_6  and  C_12
REMARK                            x       y       z     vdW  Elec       q    Type
REMARK                         _______ _______ _______ _____ _____    ______ ____
ROOT
ATOM      1  S   UNL     1      36.094 -23.539 -15.369  0.00  0.00    +0.010 S 
ATOM      2  O   UNL     1      36.673 -22.224 -15.567  0.00  0.00    -0.171 OA
ATOM      3  O   UNL     1      35.262 -24.139 -16.396  0.00  0.00    -0.171 OA
ATOM      4  O   UNL     1      36.885 -26.292 -11.989  0.00  0.00    -0.275 OA
ATOM      5  N   UNL     1      35.813 -24.359 -12.710  0.00  0.00    -0.257 N 
ATOM      6  C   UNL     1      35.230 -23.539 -13.792  0.00  0.00    +0.229 C 
ATOM      7  C   UNL     1      37.430 -24.664 -15.067  0.00  0.00    +0.163 C 
ATOM      8  C   UNL     1      36.914 -25.876 -14.325  0.00  0.00    +0.111 C 
ATOM      9  C   UNL     1      36.544 -25.532 -12.899  0.00  0.00    +0.229 C 
ATOM     10  C   UNL     1      35.478 -23.950 -11.347  0.00  0.00    +0.117 C 
ENDROOT
BRANCH   6  12
ATOM     11 CL   UNL     1      29.380 -24.558 -14.802  0.00  0.00    -0.082 Cl
ATOM     12  C   UNL     1      33.759 -23.796 -14.048  0.00  0.00    +0.018 C 
ATOM     13  C   UNL     1      33.015 -22.889 -14.800  0.00  0.00    -0.000 C 
ATOM     14  C   UNL     1      33.152 -24.938 -13.528  0.00  0.00    -0.000 C 
ATOM     15  C   UNL     1      31.660 -23.125 -15.034  0.00  0.00    +0.011 C 
ATOM     16  C   UNL     1      31.798 -25.174 -13.762  0.00  0.00    +0.011 C 
ATOM     17  C   UNL     1      31.052 -24.268 -14.515  0.00  0.00    +0.058 C 
ENDBRANCH   6  12
TORSDOF 1
ENDMDL
MODEL 2
REMARK VINA RESULT:      -7.4      3.421      4.358
REMARK  Name = 2717
REMARK  1 active torsions:
REMARK  status: ('A' for Active; 'I' for Inactive)
REMARK    1  A    between atoms: C_6  and  C_12
REMARK                            x       y       z     vdW  Elec       q    Type
REMARK                         _______ _______ _______ _____ _____    ______ ____
ROOT
ATOM      1  S   UNL     1      36.139 -23.816 -12.704  0.00  0.00    +0.010 S 
ATOM      2  O   UNL     1      34.945 -24.186 -11.969  0.00  0.00    -0.171 OA
ATOM      3  O   UNL     1      36.425 -22.422 -12.992  0.00  0.00    -0.171 OA
ATOM      4  O   UNL     1      39.424 -26.521 -13.938  0.00  0.00    -0.275 OA
ATOM      5  N   UNL     1      37.242 -25.814 -14.320  0.00  0.00    -0.257 N 
ATOM      6  C   UNL     1      36.187 -24.785 -14.218  0.00  0.00    +0.229 C 
ATOM      7  C   UNL     1      37.529 -24.451 -11.805  0.00  0.00    +0.163 C 
ATOM      8  C   UNL     1      38.709 -24.602 -12.738  0.00  0.00    +0.111 C 
ATOM      9  C   UNL     1      38.497 -25.738 -13.715  0.00  0.00    +0.229 C 
ATOM     10  C   UNL     1      36.965 -26.926 -15.228  0.00  0.00    +0.117 C 
ENDROOT
BRANCH   6  12
ATOM     11 CL   UNL     1      35.928 -21.027 -18.918  0.00  0.00    -0.082 Cl
ATOM     12  C   UNL     1      36.121 -23.838 -15.399  0.00  0.00    +0.018 C 
ATOM     13  C   UNL     1      34.917 -23.651 -16.074  0.00  0.00    -0.000 C 
ATOM     14  C   UNL     1      37.267 -23.159 -15.810  0.00  0.00    -0.000 C 
ATOM     15  C   UNL     1      34.856 -22.781 -17.163  0.00  0.00    +0.011 C 
ATOM     16  C   UNL     1      37.207 -22.288 -16.898  0.00  0.00    +0.011 C 
ATOM     17  C   UNL     1      36.002 -22.100 -17.574  0.00  0.00    +0.058 C 
ENDBRANCH   6  12
TORSDOF 1
ENDMDL
MODEL 3
REMARK VINA RESULT:      -7.4      2.096      3.232
REMARK  Name = 2717
REMARK  1 active torsions:
REMARK  status: ('A' for Active; 'I' for Inactive)
REMARK    1  A    between atoms: C_6  and  C_12
REMARK                            x       y       z     vdW  Elec       q    Type
REMARK                         _______ _______ _______ _____ _____    ______ ____
ROOT
ATOM      1  S   UNL     1      35.552 -24.312 -11.788  0.00  0.00    +0.010 S 
ATOM      2  O   UNL     1      35.333 -25.315 -10.762  0.00  0.00    -0.171 OA
ATOM      3  O   UNL     1      34.757 -23.098 -11.812  0.00  0.00    -0.171 OA
ATOM      4  O   UNL     1      38.782 -24.298 -14.820  0.00  0.00    -0.275 OA
ATOM      5  N   UNL     1      36.758 -25.221 -14.141  0.00  0.00    -0.257 N 
ATOM      6  C   UNL     1      35.491 -25.127 -13.389  0.00  0.00    +0.229 C 
ATOM      7  C   UNL     1      37.250 -23.813 -11.683  0.00  0.00    +0.163 C 
ATOM      8  C   UNL     1      37.688 -23.228 -13.006  0.00  0.00    +0.111 C 
ATOM      9  C   UNL     1      37.802 -24.297 -14.070  0.00  0.00    +0.229 C 
ATOM     10  C   UNL     1      36.846 -26.308 -15.113  0.00  0.00    +0.117 C 
ENDROOT
BRANCH   6  12
ATOM     11 CL   UNL     1      30.901 -22.829 -16.542  0.00  0.00    -0.082 Cl
ATOM     12  C   UNL     1      34.336 -24.547 -14.181  0.00  0.00    +0.018 C 
ATOM     13  C   UNL     1      33.024 -24.814 -13.794  0.00  0.00    -0.000 C 
ATOM     14  C   UNL     1      34.588 -23.752 -15.297  0.00  0.00    -0.000 C 
ATOM     15  C   UNL     1      31.961 -24.281 -14.524  0.00  0.00    +0.011 C 
ATOM     16  C   UNL     1      33.526 -23.220 -16.027  0.00  0.00    +0.011 C 
ATOM     17  C   UNL     1      32.213 -23.484 -15.641  0.00  0.00    +0.058 C 
ENDBRANCH   6  12
TORSDOF 1
ENDMDL
MODEL 4
REMARK VINA RESULT:      -7.4     13.566     15.107
REMARK  Name = 2717
REMARK  1 active torsions:
REMARK  status: ('A' for Active; 'I' for Inactive)
REMARK    1  A    between atoms: C_6  and  C_12
REMARK                            x       y       z     vdW  Elec       q    Type
REMARK                         _______ _______ _______ _____ _____    ______ ____
ROOT
ATOM      1  S   UNL     1      33.229 -14.860 -22.112  0.00  0.00    +0.010 S 
ATOM      2  O   UNL     1      31.993 -15.282 -21.481  0.00  0.00    -0.171 OA
ATOM      3  O   UNL     1      34.120 -13.934 -21.439  0.00  0.00    -0.171 OA
ATOM      4  O   UNL     1      34.921 -16.412 -25.901  0.00  0.00    -0.275 OA
ATOM      5  N   UNL     1      33.305 -15.073 -24.900  0.00  0.00    -0.257 N 
ATOM      6  C   UNL     1      32.836 -14.258 -23.761  0.00  0.00    +0.229 C 
ATOM      7  C   UNL     1      34.170 -16.321 -22.459  0.00  0.00    +0.163 C 
ATOM      8  C   UNL     1      35.156 -16.038 -23.569  0.00  0.00    +0.111 C 
ATOM      9  C   UNL     1      34.453 -15.867 -24.898  0.00  0.00    +0.229 C 
ATOM     10  C   UNL     1      32.556 -14.922 -26.145  0.00  0.00    +0.117 C 
ENDROOT
BRANCH   6  12
ATOM     11 CL   UNL     1      34.344  -8.435 -24.091  0.00  0.00    -0.082 Cl
ATOM     12  C   UNL     1      33.217 -12.793 -23.842  0.00  0.00    +0.018 C 
ATOM     13  C   UNL     1      32.603 -11.867 -23.001  0.00  0.00    -0.000 C 
ATOM     14  C   UNL     1      34.178 -12.375 -24.761  0.00  0.00    -0.000 C 
ATOM     15  C   UNL     1      32.952 -10.518 -23.077  0.00  0.00    +0.011 C 
ATOM     16  C   UNL     1      34.527 -11.027 -24.838  0.00  0.00    +0.011 C 
ATOM     17  C   UNL     1      33.914 -10.099 -23.996  0.00  0.00    +0.058 C 
ENDBRANCH   6  12
TORSDOF 1
ENDMDL
MODEL 5
REMARK VINA RESULT:      -7.3      3.225      3.832
REMARK  Name = 2717
REMARK  1 active torsions:
REMARK  status: ('A' for Active; 'I' for Inactive)
REMARK    1  A    between atoms: C_6  and  C_12
REMARK                            x       y       z     vdW  Elec       q    Type
REMARK                         _______ _______ _______ _____ _____    ______ ____
ROOT
ATOM      1  S   UNL     1      39.014 -25.163 -14.403  0.00  0.00    +0.010 S 
ATOM      2  O   UNL     1      40.400 -24.749 -14.293  0.00  0.00    -0.171 OA
ATOM      3  O   UNL     1      38.507 -25.715 -15.646  0.00  0.00    -0.171 OA
ATOM      4  O   UNL     1      36.037 -25.320 -11.126  0.00  0.00    -0.275 OA
ATOM      5  N   UNL     1      37.242 -23.978 -12.593  0.00  0.00    -0.257 N 
ATOM      6  C   UNL     1      37.978 -23.797 -13.862  0.00  0.00    +0.229 C 
ATOM      7  C   UNL     1      38.726 -26.378 -13.145  0.00  0.00    +0.163 C 
ATOM      8  C   UNL     1      37.248 -26.441 -12.831  0.00  0.00    +0.111 C 
ATOM      9  C   UNL     1      36.788 -25.200 -12.098  0.00  0.00    +0.229 C 
ATOM     10  C   UNL     1      36.873 -22.752 -11.888  0.00  0.00    +0.117 C 
ENDROOT
BRANCH   6  12
ATOM     11 CL   UNL     1      34.546 -22.035 -18.488  0.00  0.00    -0.082 Cl
ATOM     12  C   UNL     1      37.115 -23.355 -15.027  0.00  0.00    +0.018 C 
ATOM     13  C   UNL     1      37.645 -22.516 -16.005  0.00  0.00    -0.000 C 
ATOM     14  C   UNL     1      35.793 -23.787 -15.116  0.00  0.00    -0.000 C 
ATOM     15  C   UNL     1      36.850 -22.108 -17.077  0.00  0.00    +0.011 C 
ATOM     16  C   UNL     1      34.998 -23.379 -16.187  0.00  0.00    +0.011 C 
ATOM     17  C   UNL     1      35.527 -22.539 -17.167  0.00  0.00    +0.058 C 
ENDBRANCH   6  12
TORSDOF 1
ENDMDL
MODEL 6
REMARK VINA RESULT:      -7.3      3.219      3.932
REMARK  Name = 2717
REMARK  1 active torsions:
REMARK  status: ('A' for Active; 'I' for Inactive)
REMARK    1  A    between atoms: C_6  and  C_12
REMARK                            x       y       z     vdW  Elec       q    Type
REMARK                         _______ _______ _______ _____ _____    ______ ____
ROOT
ATOM      1  S   UNL     1      39.010 -25.164 -14.402  0.00  0.00    +0.010 S 
ATOM      2  O   UNL     1      40.395 -24.748 -14.292  0.00  0.00    -0.171 OA
ATOM      3  O   UNL     1      38.502 -25.714 -15.645  0.00  0.00    -0.171 OA
ATOM      4  O   UNL     1      36.036 -25.330 -11.122  0.00  0.00    -0.275 OA
ATOM      5  N   UNL     1      37.238 -23.983 -12.588  0.00  0.00    -0.257 N 
ATOM      6  C   UNL     1      37.973 -23.800 -13.857  0.00  0.00    +0.229 C 
ATOM      7  C   UNL     1      38.724 -26.381 -13.146  0.00  0.00    +0.163 C 
ATOM      8  C   UNL     1      37.246 -26.447 -12.831  0.00  0.00    +0.111 C 
ATOM      9  C   UNL     1      36.785 -25.208 -12.095  0.00  0.00    +0.229 C 
ATOM     10  C   UNL     1      36.869 -22.760 -11.880  0.00  0.00    +0.117 C 
ENDROOT
BRANCH   6  12
ATOM     11 CL   UNL     1      34.541 -22.043 -18.486  0.00  0.00    -0.082 Cl
ATOM     12  C   UNL     1      37.109 -23.356 -15.020  0.00  0.00    +0.018 C 
ATOM     13  C   UNL     1      35.787 -23.788 -15.108  0.00  0.00    -0.000 C 
ATOM     14  C   UNL     1      37.639 -22.520 -16.001  0.00  0.00    -0.000 C 
ATOM     15  C   UNL     1      34.991 -23.381 -16.181  0.00  0.00    +0.011 C 
ATOM     16  C   UNL     1      36.845 -22.113 -17.073  0.00  0.00    +0.011 C 
ATOM     17  C   UNL     1      35.521 -22.544 -17.162  0.00  0.00    +0.058 C 
ENDBRANCH   6  12
TORSDOF 1
ENDMDL
MODEL 7
REMARK VINA RESULT:      -6.6      2.095      2.520
REMARK  Name = 2717
REMARK  1 active torsions:
REMARK  status: ('A' for Active; 'I' for Inactive)
REMARK    1  A    between atoms: C_6  and  C_12
REMARK                            x       y       z     vdW  Elec       q    Type
REMARK                         _______ _______ _______ _____ _____    ______ ____
ROOT
ATOM      1  S   UNL     1      37.329 -25.931 -14.839  0.00  0.00    +0.010 S 
ATOM      2  O   UNL     1      38.495 -25.886 -15.700  0.00  0.00    -0.171 OA
ATOM      3  O   UNL     1      36.138 -26.653 -15.247  0.00  0.00    -0.171 OA
ATOM      4  O   UNL     1      37.042 -24.370 -10.702  0.00  0.00    -0.275 OA
ATOM      5  N   UNL     1      37.117 -23.861 -12.970  0.00  0.00    -0.257 N 
ATOM      6  C   UNL     1      36.907 -24.244 -14.381  0.00  0.00    +0.229 C 
ATOM      7  C   UNL     1      37.844 -26.624 -13.290  0.00  0.00    +0.163 C 
ATOM      8  C   UNL     1      36.884 -26.202 -12.202  0.00  0.00    +0.111 C 
ATOM      9  C   UNL     1      37.026 -24.730 -11.882  0.00  0.00    +0.229 C 
ATOM     10  C   UNL     1      37.313 -22.435 -12.717  0.00  0.00    +0.117 C 
ENDROOT
BRANCH   6  12
ATOM     11 CL   UNL     1      31.405 -22.998 -16.495  0.00  0.00    -0.082 Cl
ATOM     12  C   UNL     1      35.523 -23.932 -14.914  0.00  0.00    +0.018 C 
ATOM     13  C   UNL     1      35.371 -23.432 -16.205  0.00  0.00    -0.000 C 
ATOM     14  C   UNL     1      34.404 -24.144 -14.109  0.00  0.00    -0.000 C 
ATOM     15  C   UNL     1      34.097 -23.143 -16.695  0.00  0.00    +0.011 C 
ATOM     16  C   UNL     1      33.130 -23.856 -14.599  0.00  0.00    +0.011 C 
ATOM     17  C   UNL     1      32.977 -23.355 -15.891  0.00  0.00    +0.058 C 
ENDBRANCH   6  12
TORSDOF 1
ENDMDL
MODEL 8
REMARK VINA RESULT:      -6.6      3.322      4.252
REMARK  Name = 2717
REMARK  1 active torsions:
REMARK  status: ('A' for Active; 'I' for Inactive)
REMARK    1  A    between atoms: C_6  and  C_12
REMARK                            x       y       z     vdW  Elec       q    Type
REMARK                         _______ _______ _______ _____ _____    ______ ____
ROOT
ATOM      1  S   UNL     1      33.621 -24.010 -13.871  0.00  0.00    +0.010 S 
ATOM      2  O   UNL     1      32.529 -24.959 -13.763  0.00  0.00    -0.171 OA
ATOM      3  O   UNL     1      33.357 -22.613 -14.162  0.00  0.00    -0.171 OA
ATOM      4  O   UNL     1      37.895 -24.794 -13.006  0.00  0.00    -0.275 OA
ATOM      5  N   UNL     1      36.123 -25.100 -14.481  0.00  0.00    -0.257 N 
ATOM      6  C   UNL     1      34.822 -24.671 -15.034  0.00  0.00    +0.229 C 
ATOM      7  C   UNL     1      34.513 -24.056 -12.340  0.00  0.00    +0.163 C 
ATOM      8  C   UNL     1      35.922 -23.553 -12.559  0.00  0.00    +0.111 C 
ATOM      9  C   UNL     1      36.741 -24.542 -13.361  0.00  0.00    +0.229 C 
ATOM     10  C   UNL     1      36.849 -26.102 -15.258  0.00  0.00    +0.117 C 
ENDROOT
BRANCH   6  12
ATOM     11 CL   UNL     1      35.238 -20.906 -19.718  0.00  0.00    -0.082 Cl
ATOM     12  C   UNL     1      34.926 -23.722 -16.211  0.00  0.00    +0.018 C 
ATOM     13  C   UNL     1      33.893 -23.656 -17.144  0.00  0.00    -0.000 C 
ATOM     14  C   UNL     1      36.056 -22.921 -16.361  0.00  0.00    -0.000 C 
ATOM     15  C   UNL     1      33.988 -22.784 -18.229  0.00  0.00    +0.011 C 
ATOM     16  C   UNL     1      36.152 -22.049 -17.445  0.00  0.00    +0.011 C 
ATOM     17  C   UNL     1      35.119 -21.981 -18.379  0.00  0.00    +0.058 C 
ENDBRANCH   6  12
TORSDOF 1
ENDMDL
MODEL 9
REMARK VINA RESULT:      -6.6      9.228     10.781
REMARK  Name = 2717
REMARK  1 active torsions:
REMARK  status: ('A' for Active; 'I' for Inactive)
REMARK    1  A    between atoms: C_6  and  C_12
REMARK                            x       y       z     vdW  Elec       q    Type
REMARK                         _______ _______ _______ _____ _____    ______ ____
ROOT
ATOM      1  S   UNL     1      34.518 -18.488 -24.088  0.00  0.00    +0.010 S 
ATOM      2  O   UNL     1      33.434 -18.992 -24.909  0.00  0.00    -0.171 OA
ATOM      3  O   UNL     1      35.779 -19.202 -24.013  0.00  0.00    -0.171 OA
ATOM      4  O   UNL     1      34.621 -14.615 -21.939  0.00  0.00    -0.275 OA
ATOM      5  N   UNL     1      33.773 -16.779 -22.003  0.00  0.00    -0.257 N 
ATOM      6  C   UNL     1      33.875 -18.187 -22.436  0.00  0.00    +0.229 C 
ATOM      7  C   UNL     1      34.888 -16.848 -24.652  0.00  0.00    +0.163 C 
ATOM      8  C   UNL     1      35.574 -16.075 -23.549  0.00  0.00    +0.111 C 
ATOM      9  C   UNL     1      34.612 -15.747 -22.427  0.00  0.00    +0.229 C 
ATOM     10  C   UNL     1      32.786 -16.500 -20.962  0.00  0.00    +0.117 C 
ENDROOT
BRANCH   6  12
ATOM     11 CL   UNL     1      36.791 -21.761 -18.560  0.00  0.00    -0.082 Cl
ATOM     12  C   UNL     1      34.609 -19.088 -21.462  0.00  0.00    +0.018 C 
ATOM     13  C   UNL     1      33.925 -20.113 -20.812  0.00  0.00    -0.000 C 
ATOM     14  C   UNL     1      35.967 -18.887 -21.217  0.00  0.00    -0.000 C 
ATOM     15  C   UNL     1      34.600 -20.941 -19.914  0.00  0.00    +0.011 C 
ATOM     16  C   UNL     1      36.641 -19.714 -20.320  0.00  0.00    +0.011 C 
ATOM     17  C   UNL     1      35.958 -20.741 -19.669  0.00  0.00    +0.058 C 
ENDBRANCH   6  12
TORSDOF 1
ENDMDL
