MODEL 1
REMARK VINA RESULT:     -11.7      0.000      0.000
REMARK  Name = 24871491
REMARK  6 active torsions:
REMARK  status: ('A' for Active; 'I' for Inactive)
REMARK    1  A    between atoms: N_1  and  C_11
REMARK    2  A    between atoms: N_2  and  C_18
REMARK    3  A    between atoms: C_6  and  C_31
REMARK    4  A    between atoms: C_19  and  C_24
REMARK    5  A    between atoms: C_24  and  C_26
REMARK    6  A    between atoms: C_26  and  O_27
REMARK                            x       y       z     vdW  Elec       q    Type
REMARK                         _______ _______ _______ _____ _____    ______ ____
ROOT
ATOM      1  N   UNL     1      32.034 -22.995 -17.622  0.00  0.00    -0.287 N 
ATOM      2  N   UNL     1      33.977 -24.316 -13.535  0.00  0.00    -0.247 N 
ATOM      3  N   UNL     1      33.023 -23.659 -15.573  0.00  0.00    -0.322 NA
ATOM      4  N   UNL     1      31.646 -24.102 -13.646  0.00  0.00    -0.169 NA
ATOM      5  C   UNL     1      31.899 -23.373 -16.264  0.00  0.00    +0.202 C 
ATOM      6  C   UNL     1      30.632 -23.429 -15.721  0.00  0.00    +0.118 C 
ATOM      7  C   UNL     1      32.825 -24.011 -14.288  0.00  0.00    +0.150 C 
ATOM      8  C   UNL     1      30.564 -23.804 -14.395  0.00  0.00    +0.120 C 
ATOM      9  H   UNL     1      31.263 -23.243 -18.181  0.00  0.00    +0.155 HD
ATOM     10  H   UNL     1      33.785 -24.567 -12.603  0.00  0.00    +0.165 HD
ENDROOT
BRANCH   1  11
ATOM     11  C   UNL     1      33.054 -22.334 -18.325  0.00  0.00    +0.050 C 
ATOM     12  C   UNL     1      32.731 -21.357 -19.268  0.00  0.00    +0.010 C 
ATOM     13  C   UNL     1      33.745 -20.701 -19.966  0.00  0.00    -0.021 C 
ATOM     14  C   UNL     1      34.389 -22.653 -18.081  0.00  0.00    +0.015 C 
ATOM     15  C   UNL     1      35.080 -21.020 -19.721  0.00  0.00    -0.004 C 
ATOM     16  C   UNL     1      35.403 -21.997 -18.780  0.00  0.00    +0.001 C 
ATOM     17  C   UNL     1      33.401 -19.658 -20.975  0.00  0.00    +0.031 C 
ENDBRANCH   1  11
BRANCH   2  18
ATOM     18  C   UNL     1      35.350 -24.332 -13.855  0.00  0.00    +0.058 C 
ATOM     19  C   UNL     1      38.067 -24.364 -14.487  0.00  0.00    -0.011 C 
ATOM     20  C   UNL     1      36.196 -23.347 -13.347  0.00  0.00    +0.015 C 
ATOM     21  C   UNL     1      35.863 -25.334 -14.679  0.00  0.00    +0.015 C 
ATOM     22  C   UNL     1      37.555 -23.362 -13.663  0.00  0.00    -0.002 C 
ATOM     23  C   UNL     1      37.221 -25.350 -14.995  0.00  0.00    -0.002 C 
BRANCH  19  24
ATOM     24  C   UNL     1      39.520 -24.381 -14.825  0.00  0.00    +0.136 C 
BRANCH  24  26
ATOM     25  O   UNL     1      40.210 -26.504 -13.852  0.00  0.00    -0.250 OA
ATOM     26  C   UNL     1      40.123 -25.771 -14.828  0.00  0.00    +0.318 C 
BRANCH  26  27
ATOM     27  O   UNL     1      40.571 -26.126 -16.062  0.00  0.00    -0.480 OA
ATOM     28  H   UNL     1      41.470 -25.997 -16.289  0.00  0.00    +0.295 HD
ENDBRANCH  26  27
ENDBRANCH  24  26
ENDBRANCH  19  24
ENDBRANCH   2  18
BRANCH   6  31
ATOM     29  O   UNL     1      29.205 -21.982 -16.915  0.00  0.00    -0.270 OA
ATOM     30  N   UNL     1      28.510 -24.154 -16.674  0.00  0.00    -0.325 N 
ATOM     31  C   UNL     1      29.420 -23.122 -16.464  0.00  0.00    +0.248 C 
ATOM     32  H   UNL     1      27.678 -23.984 -17.172  0.00  0.00    +0.145 HD
ATOM     33  H   UNL     1      28.698 -25.054 -16.323  0.00  0.00    +0.145 HD
ENDBRANCH   6  31
TORSDOF 6
ENDMDL
MODEL 2
REMARK VINA RESULT:     -11.2      2.193      7.404
REMARK  Name = 24871491
REMARK  6 active torsions:
REMARK  status: ('A' for Active; 'I' for Inactive)
REMARK    1  A    between atoms: N_1  and  C_11
REMARK    2  A    between atoms: N_2  and  C_18
REMARK    3  A    between atoms: C_6  and  C_31
REMARK    4  A    between atoms: C_19  and  C_24
REMARK    5  A    between atoms: C_24  and  C_26
REMARK    6  A    between atoms: C_26  and  O_27
REMARK                            x       y       z     vdW  Elec       q    Type
REMARK                         _______ _______ _______ _____ _____    ______ ____
ROOT
ATOM      1  N   UNL     1      35.701 -22.561 -15.573  0.00  0.00    -0.287 N 
ATOM      2  N   UNL     1      31.881 -24.481 -13.587  0.00  0.00    -0.247 N 
ATOM      3  N   UNL     1      33.773 -23.521 -14.584  0.00  0.00    -0.322 NA
ATOM      4  N   UNL     1      33.947 -24.738 -12.512  0.00  0.00    -0.169 NA
ATOM      5  C   UNL     1      35.104 -23.304 -14.526  0.00  0.00    +0.202 C 
ATOM      6  C   UNL     1      35.911 -23.766 -13.507  0.00  0.00    +0.118 C 
ATOM      7  C   UNL     1      33.268 -24.234 -13.559  0.00  0.00    +0.150 C 
ATOM      8  C   UNL     1      35.273 -24.484 -12.516  0.00  0.00    +0.120 C 
ATOM      9  H   UNL     1      36.493 -22.048 -15.293  0.00  0.00    +0.155 HD
ATOM     10  H   UNL     1      31.557 -25.005 -12.820  0.00  0.00    +0.165 HD
ENDROOT
BRANCH   1  11
ATOM     11  C   UNL     1      35.382 -22.413 -16.932  0.00  0.00    +0.050 C 
ATOM     12  C   UNL     1      36.270 -21.763 -17.790  0.00  0.00    +0.010 C 
ATOM     13  C   UNL     1      35.953 -21.617 -19.141  0.00  0.00    -0.021 C 
ATOM     14  C   UNL     1      34.179 -22.917 -17.425  0.00  0.00    +0.015 C 
ATOM     15  C   UNL     1      34.750 -22.121 -19.634  0.00  0.00    -0.004 C 
ATOM     16  C   UNL     1      33.862 -22.770 -18.776  0.00  0.00    +0.001 C 
ATOM     17  C   UNL     1      36.901 -20.922 -20.058  0.00  0.00    +0.031 C 
ENDBRANCH   1  11
BRANCH   2  18
ATOM     18  C   UNL     1      30.865 -24.123 -14.498  0.00  0.00    +0.058 C 
ATOM     19  C   UNL     1      28.857 -23.417 -16.300  0.00  0.00    -0.011 C 
ATOM     20  C   UNL     1      30.096 -25.113 -15.106  0.00  0.00    +0.015 C 
ATOM     21  C   UNL     1      30.632 -22.780 -14.790  0.00  0.00    +0.015 C 
ATOM     22  C   UNL     1      29.091 -24.761 -16.008  0.00  0.00    -0.002 C 
ATOM     23  C   UNL     1      29.628 -22.427 -15.691  0.00  0.00    -0.002 C 
BRANCH  19  24
ATOM     24  C   UNL     1      27.783 -23.040 -17.263  0.00  0.00    +0.136 C 
BRANCH  24  26
ATOM     25  O   UNL     1      26.153 -22.187 -15.668  0.00  0.00    -0.250 OA
ATOM     26  C   UNL     1      26.791 -22.041 -16.702  0.00  0.00    +0.318 C 
BRANCH  26  27
ATOM     27  O   UNL     1      26.681 -20.938 -17.489  0.00  0.00    -0.480 OA
ATOM     28  H   UNL     1      25.901 -20.794 -17.987  0.00  0.00    +0.295 HD
ENDBRANCH  26  27
ENDBRANCH  24  26
ENDBRANCH  19  24
ENDBRANCH   2  18
BRANCH   6  31
ATOM     29  O   UNL     1      38.060 -23.599 -14.458  0.00  0.00    -0.270 OA
ATOM     30  N   UNL     1      37.894 -23.213 -12.204  0.00  0.00    -0.325 N 
ATOM     31  C   UNL     1      37.345 -23.533 -13.442  0.00  0.00    +0.248 C 
ATOM     32  H   UNL     1      38.861 -23.049 -12.121  0.00  0.00    +0.145 HD
ATOM     33  H   UNL     1      37.315 -23.152 -11.410  0.00  0.00    +0.145 HD
ENDBRANCH   6  31
TORSDOF 6
ENDMDL
MODEL 3
REMARK VINA RESULT:     -10.8      2.616      7.252
REMARK  Name = 24871491
REMARK  6 active torsions:
REMARK  status: ('A' for Active; 'I' for Inactive)
REMARK    1  A    between atoms: N_1  and  C_11
REMARK    2  A    between atoms: N_2  and  C_18
REMARK    3  A    between atoms: C_6  and  C_31
REMARK    4  A    between atoms: C_19  and  C_24
REMARK    5  A    between atoms: C_24  and  C_26
REMARK    6  A    between atoms: C_26  and  O_27
REMARK                            x       y       z     vdW  Elec       q    Type
REMARK                         _______ _______ _______ _____ _____    ______ ____
ROOT
ATOM      1  N   UNL     1      36.362 -22.569 -14.751  0.00  0.00    -0.287 N 
ATOM      2  N   UNL     1      32.511 -24.783 -13.175  0.00  0.00    -0.247 N 
ATOM      3  N   UNL     1      34.419 -23.677 -13.968  0.00  0.00    -0.322 NA
ATOM      4  N   UNL     1      34.508 -25.022 -11.972  0.00  0.00    -0.169 NA
ATOM      5  C   UNL     1      35.730 -23.407 -13.800  0.00  0.00    +0.202 C 
ATOM      6  C   UNL     1      36.487 -23.901 -12.758  0.00  0.00    +0.118 C 
ATOM      7  C   UNL     1      33.879 -24.479 -13.030  0.00  0.00    +0.150 C 
ATOM      8  C   UNL     1      35.817 -24.711 -11.864  0.00  0.00    +0.120 C 
ATOM      9  H   UNL     1      37.107 -22.042 -14.383  0.00  0.00    +0.155 HD
ATOM     10  H   UNL     1      32.161 -25.372 -12.468  0.00  0.00    +0.165 HD
ENDROOT
BRANCH   1  11
ATOM     11  C   UNL     1      36.132 -22.344 -16.118  0.00  0.00    +0.050 C 
ATOM     12  C   UNL     1      34.929 -22.750 -16.699  0.00  0.00    +0.010 C 
ATOM     13  C   UNL     1      34.701 -22.525 -18.056  0.00  0.00    -0.021 C 
ATOM     14  C   UNL     1      37.103 -21.713 -16.895  0.00  0.00    +0.015 C 
ATOM     15  C   UNL     1      35.673 -21.895 -18.833  0.00  0.00    -0.004 C 
ATOM     16  C   UNL     1      36.875 -21.490 -18.253  0.00  0.00    +0.001 C 
ATOM     17  C   UNL     1      33.417 -22.961 -18.678  0.00  0.00    +0.031 C 
ENDBRANCH   1  11
BRANCH   2  18
ATOM     18  C   UNL     1      31.545 -24.410 -14.131  0.00  0.00    +0.058 C 
ATOM     19  C   UNL     1      29.634 -23.670 -16.023  0.00  0.00    -0.011 C 
ATOM     20  C   UNL     1      31.651 -23.184 -14.786  0.00  0.00    +0.015 C 
ATOM     21  C   UNL     1      30.483 -25.266 -14.421  0.00  0.00    +0.015 C 
ATOM     22  C   UNL     1      30.695 -22.814 -15.733  0.00  0.00    -0.002 C 
ATOM     23  C   UNL     1      29.527 -24.897 -15.367  0.00  0.00    -0.002 C 
BRANCH  19  24
ATOM     24  C   UNL     1      28.611 -23.275 -17.035  0.00  0.00    +0.136 C 
BRANCH  24  26
ATOM     25  O   UNL     1      27.003 -22.487 -15.385  0.00  0.00    -0.250 OA
ATOM     26  C   UNL     1      27.533 -22.365 -16.481  0.00  0.00    +0.318 C 
BRANCH  26  27
ATOM     27  O   UNL     1      27.208 -21.375 -17.355  0.00  0.00    -0.480 OA
ATOM     28  H   UNL     1      27.683 -20.568 -17.345  0.00  0.00    +0.295 HD
ENDBRANCH  26  27
ENDBRANCH  24  26
ENDBRANCH  19  24
ENDBRANCH   2  18
BRANCH   6  31
ATOM     29  O   UNL     1      38.282 -22.546 -12.056  0.00  0.00    -0.270 OA
ATOM     30  N   UNL     1      38.817 -24.574 -12.982  0.00  0.00    -0.325 N 
ATOM     31  C   UNL     1      37.900 -23.611 -12.574  0.00  0.00    +0.248 C 
ATOM     32  H   UNL     1      39.783 -24.412 -12.874  0.00  0.00    +0.145 HD
ATOM     33  H   UNL     1      38.502 -25.418 -13.379  0.00  0.00    +0.145 HD
ENDBRANCH   6  31
TORSDOF 6
ENDMDL
MODEL 4
REMARK VINA RESULT:     -10.5      3.130      6.691
REMARK  Name = 24871491
REMARK  6 active torsions:
REMARK  status: ('A' for Active; 'I' for Inactive)
REMARK    1  A    between atoms: N_1  and  C_11
REMARK    2  A    between atoms: N_2  and  C_18
REMARK    3  A    between atoms: C_6  and  C_31
REMARK    4  A    between atoms: C_19  and  C_24
REMARK    5  A    between atoms: C_24  and  C_26
REMARK    6  A    between atoms: C_26  and  O_27
REMARK                            x       y       z     vdW  Elec       q    Type
REMARK                         _______ _______ _______ _____ _____    ______ ____
ROOT
ATOM      1  N   UNL     1      34.198 -23.572 -14.541  0.00  0.00    -0.287 N 
ATOM      2  N   UNL     1      32.116 -22.113 -18.511  0.00  0.00    -0.247 N 
ATOM      3  N   UNL     1      33.163 -22.833 -16.541  0.00  0.00    -0.322 NA
ATOM      4  N   UNL     1      30.826 -23.271 -16.934  0.00  0.00    -0.169 NA
ATOM      5  C   UNL     1      33.045 -23.470 -15.357  0.00  0.00    +0.202 C 
ATOM      6  C   UNL     1      31.867 -24.026 -14.900  0.00  0.00    +0.118 C 
ATOM      7  C   UNL     1      32.030 -22.771 -17.268  0.00  0.00    +0.150 C 
ATOM      8  C   UNL     1      30.779 -23.895 -15.738  0.00  0.00    +0.120 C 
ATOM      9  H   UNL     1      34.001 -23.599 -13.577  0.00  0.00    +0.155 HD
ATOM     10  H   UNL     1      31.267 -22.093 -19.007  0.00  0.00    +0.165 HD
ENDROOT
BRANCH   1  11
ATOM     11  C   UNL     1      35.568 -23.642 -14.841  0.00  0.00    +0.050 C 
ATOM     12  C   UNL     1      36.314 -24.750 -14.438  0.00  0.00    +0.010 C 
ATOM     13  C   UNL     1      37.675 -24.819 -14.736  0.00  0.00    -0.021 C 
ATOM     14  C   UNL     1      36.183 -22.605 -15.541  0.00  0.00    +0.015 C 
ATOM     15  C   UNL     1      38.290 -23.782 -15.437  0.00  0.00    -0.004 C 
ATOM     16  C   UNL     1      37.544 -22.674 -15.839  0.00  0.00    +0.001 C 
ATOM     17  C   UNL     1      38.474 -26.003 -14.304  0.00  0.00    +0.031 C 
ENDBRANCH   1  11
BRANCH   2  18
ATOM     18  C   UNL     1      33.180 -21.478 -19.184  0.00  0.00    +0.058 C 
ATOM     19  C   UNL     1      35.284 -20.222 -20.517  0.00  0.00    -0.011 C 
ATOM     20  C   UNL     1      32.917 -20.451 -20.089  0.00  0.00    +0.015 C 
ATOM     21  C   UNL     1      34.495 -21.878 -18.945  0.00  0.00    +0.015 C 
ATOM     22  C   UNL     1      33.970 -19.822 -20.756  0.00  0.00    -0.002 C 
ATOM     23  C   UNL     1      35.547 -21.250 -19.612  0.00  0.00    -0.002 C 
BRANCH  19  24
ATOM     24  C   UNL     1      36.409 -19.550 -21.229  0.00  0.00    +0.136 C 
BRANCH  24  26
ATOM     25  O   UNL     1      35.532 -17.278 -21.247  0.00  0.00    -0.250 OA
ATOM     26  C   UNL     1      36.024 -18.222 -21.851  0.00  0.00    +0.318 C 
BRANCH  26  27
ATOM     27  O   UNL     1      36.288 -18.191 -23.184  0.00  0.00    -0.480 OA
ATOM     28  H   UNL     1      36.500 -17.379 -23.600  0.00  0.00    +0.295 HD
ENDBRANCH  26  27
ENDBRANCH  24  26
ENDBRANCH  19  24
ENDBRANCH   2  18
BRANCH   6  31
ATOM     29  O   UNL     1      32.736 -25.012 -12.945  0.00  0.00    -0.270 OA
ATOM     30  N   UNL     1      30.455 -25.008 -13.175  0.00  0.00    -0.325 N 
ATOM     31  C   UNL     1      31.738 -24.712 -13.624  0.00  0.00    +0.248 C 
ATOM     32  H   UNL     1      30.329 -25.472 -12.316  0.00  0.00    +0.145 HD
ATOM     33  H   UNL     1      29.673 -24.753 -13.717  0.00  0.00    +0.145 HD
ENDBRANCH   6  31
TORSDOF 6
ENDMDL
MODEL 5
REMARK VINA RESULT:     -10.2      3.093      6.339
REMARK  Name = 24871491
REMARK  6 active torsions:
REMARK  status: ('A' for Active; 'I' for Inactive)
REMARK    1  A    between atoms: N_1  and  C_11
REMARK    2  A    between atoms: N_2  and  C_18
REMARK    3  A    between atoms: C_6  and  C_31
REMARK    4  A    between atoms: C_19  and  C_24
REMARK    5  A    between atoms: C_24  and  C_26
REMARK    6  A    between atoms: C_26  and  O_27
REMARK                            x       y       z     vdW  Elec       q    Type
REMARK                         _______ _______ _______ _____ _____    ______ ____
ROOT
ATOM      1  N   UNL     1      33.798 -23.616 -14.277  0.00  0.00    -0.287 N 
ATOM      2  N   UNL     1      31.966 -22.261 -18.403  0.00  0.00    -0.247 N 
ATOM      3  N   UNL     1      32.888 -22.929 -16.355  0.00  0.00    -0.322 NA
ATOM      4  N   UNL     1      30.577 -23.369 -16.875  0.00  0.00    -0.169 NA
ATOM      5  C   UNL     1      32.696 -23.532 -15.163  0.00  0.00    +0.202 C 
ATOM      6  C   UNL     1      31.491 -24.070 -14.762  0.00  0.00    +0.118 C 
ATOM      7  C   UNL     1      31.802 -22.883 -17.150  0.00  0.00    +0.150 C 
ATOM      8  C   UNL     1      30.455 -23.958 -15.667  0.00  0.00    +0.120 C 
ATOM      9  H   UNL     1      33.544 -23.615 -13.326  0.00  0.00    +0.155 HD
ATOM     10  H   UNL     1      31.147 -22.251 -18.949  0.00  0.00    +0.165 HD
ENDROOT
BRANCH   1  11
ATOM     11  C   UNL     1      35.183 -23.700 -14.492  0.00  0.00    +0.050 C 
ATOM     12  C   UNL     1      35.811 -22.801 -15.354  0.00  0.00    +0.010 C 
ATOM     13  C   UNL     1      37.187 -22.885 -15.567  0.00  0.00    -0.021 C 
ATOM     14  C   UNL     1      35.932 -24.682 -13.843  0.00  0.00    +0.015 C 
ATOM     15  C   UNL     1      37.936 -23.867 -14.918  0.00  0.00    -0.004 C 
ATOM     16  C   UNL     1      37.308 -24.766 -14.057  0.00  0.00    +0.001 C 
ATOM     17  C   UNL     1      37.859 -21.925 -16.490  0.00  0.00    +0.031 C 
ENDBRANCH   1  11
BRANCH   2  18
ATOM     18  C   UNL     1      33.071 -21.649 -19.029  0.00  0.00    +0.058 C 
ATOM     19  C   UNL     1      35.259 -20.439 -20.266  0.00  0.00    -0.011 C 
ATOM     20  C   UNL     1      34.364 -22.085 -18.742  0.00  0.00    +0.015 C 
ATOM     21  C   UNL     1      32.872 -20.607 -19.935  0.00  0.00    +0.015 C 
ATOM     22  C   UNL     1      35.458 -21.480 -19.361  0.00  0.00    -0.002 C 
ATOM     23  C   UNL     1      33.965 -20.002 -20.553  0.00  0.00    -0.002 C 
BRANCH  19  24
ATOM     24  C   UNL     1      36.429 -19.792 -20.928  0.00  0.00    +0.136 C 
BRANCH  24  26
ATOM     25  O   UNL     1      35.631 -17.496 -20.778  0.00  0.00    -0.250 OA
ATOM     26  C   UNL     1      36.139 -18.394 -21.436  0.00  0.00    +0.318 C 
BRANCH  26  27
ATOM     27  O   UNL     1      36.511 -18.240 -22.735  0.00  0.00    -0.480 OA
ATOM     28  H   UNL     1      36.151 -17.541 -23.245  0.00  0.00    +0.295 HD
ENDBRANCH  26  27
ENDBRANCH  24  26
ENDBRANCH  19  24
ENDBRANCH   2  18
BRANCH   6  31
ATOM     29  O   UNL     1      32.187 -25.370 -12.924  0.00  0.00    -0.270 OA
ATOM     30  N   UNL     1      30.037 -24.575 -12.874  0.00  0.00    -0.325 N 
ATOM     31  C   UNL     1      31.282 -24.720 -13.478  0.00  0.00    +0.248 C 
ATOM     32  H   UNL     1      29.858 -25.001 -12.005  0.00  0.00    +0.145 HD
ATOM     33  H   UNL     1      29.333 -24.048 -13.317  0.00  0.00    +0.145 HD
ENDBRANCH   6  31
TORSDOF 6
ENDMDL
