MODEL 1
REMARK VINA RESULT:     -12.7      0.000      0.000
REMARK  Name = 24180720
REMARK  6 active torsions:
REMARK  status: ('A' for Active; 'I' for Inactive)
REMARK    1  A    between atoms: C_2  and  C_6
REMARK    2  A    between atoms: C_2  and  C_21
REMARK    3  A    between atoms: C_10  and  C_14
REMARK    4  A    between atoms: C_22  and  N_27
REMARK    5  A    between atoms: N_27  and  S_29
REMARK    6  A    between atoms: S_29  and  C_32
REMARK                            x       y       z     vdW  Elec       q    Type
REMARK                         _______ _______ _______ _____ _____    ______ ____
ROOT
ATOM      1  O   UNL     1      35.286 -16.909 -20.648  0.00  0.00    -0.286 OA
ATOM      2  C   UNL     1      35.181 -17.867 -21.435  0.00  0.00    +0.201 C 
ENDROOT
BRANCH   2   6
ATOM      3  N   UNL     1      34.626 -18.223 -24.982  0.00  0.00    -0.297 N 
ATOM      4  N   UNL     1      33.871 -16.109 -25.856  0.00  0.00    -0.229 NA
ATOM      5  C   UNL     1      34.429 -16.554 -23.511  0.00  0.00    +0.036 C 
ATOM      6  C   UNL     1      34.882 -17.716 -22.830  0.00  0.00    +0.056 C 
ATOM      7  C   UNL     1      34.280 -16.904 -24.850  0.00  0.00    +0.132 C 
ATOM      8  C   UNL     1      34.123 -15.232 -23.149  0.00  0.00    +0.005 C 
ATOM      9  C   UNL     1      34.994 -18.727 -23.761  0.00  0.00    +0.066 C 
ATOM     10  C   UNL     1      33.694 -14.367 -24.154  0.00  0.00    +0.021 C 
ATOM     11  C   UNL     1      33.591 -14.848 -25.451  0.00  0.00    +0.100 C 
ATOM     12  H   UNL     1      34.614 -18.730 -25.825  0.00  0.00    +0.154 HD
BRANCH  10  14
ATOM     13  N   UNL     1      32.113 -11.419 -22.507  0.00  0.00    -0.242 NA
ATOM     14  C   UNL     1      33.364 -12.993 -23.849  0.00  0.00    +0.021 C 
ATOM     15  C   UNL     1      33.936 -11.943 -24.560  0.00  0.00    +0.003 C 
ATOM     16  C   UNL     1      32.466 -12.680 -22.841  0.00  0.00    +0.099 C 
ATOM     17  C   UNL     1      33.597 -10.632 -24.245  0.00  0.00    +0.021 C 
ATOM     18  C   UNL     1      32.689 -10.425 -23.220  0.00  0.00    +0.099 C 
ENDBRANCH  10  14
ENDBRANCH   2   6
BRANCH   2  21
ATOM     19  F   UNL     1      33.037 -19.439 -20.501  0.00  0.00    -0.203 F 
ATOM     20  F   UNL     1      37.726 -19.064 -21.133  0.00  0.00    -0.204 F 
ATOM     21  C   UNL     1      35.374 -19.222 -20.831  0.00  0.00    +0.095 C 
ATOM     22  C   UNL     1      34.452 -21.214 -19.823  0.00  0.00    +0.092 C 
ATOM     23  C   UNL     1      34.271 -19.952 -20.387  0.00  0.00    +0.160 C 
ATOM     24  C   UNL     1      36.658 -19.755 -20.711  0.00  0.00    +0.145 C 
ATOM     25  C   UNL     1      35.735 -21.748 -19.703  0.00  0.00    +0.020 C 
ATOM     26  C   UNL     1      36.838 -21.018 -20.147  0.00  0.00    +0.031 C 
BRANCH  22  27
ATOM     27  N   UNL     1      33.325 -21.963 -19.366  0.00  0.00    -0.217 N 
ATOM     28  H   UNL     1      32.436 -21.836 -19.771  0.00  0.00    +0.173 HD
BRANCH  27  29
ATOM     29  S   UNL     1      33.562 -23.094 -18.090  0.00  0.00    +0.054 S 
ATOM     30  O   UNL     1      33.499 -24.433 -18.647  0.00  0.00    -0.154 OA
ATOM     31  O   UNL     1      34.673 -22.698 -17.247  0.00  0.00    -0.154 OA
BRANCH  29  32
ATOM     32  C   UNL     1      32.061 -22.847 -17.168  0.00  0.00    +0.172 C 
ATOM     33  C   UNL     1      32.098 -23.575 -15.843  0.00  0.00    +0.029 C 
ENDBRANCH  29  32
ENDBRANCH  27  29
ENDBRANCH  22  27
ENDBRANCH   2  21
TORSDOF 6
ENDMDL
MODEL 2
REMARK VINA RESULT:     -12.2      3.250      9.331
REMARK  Name = 24180720
REMARK  6 active torsions:
REMARK  status: ('A' for Active; 'I' for Inactive)
REMARK    1  A    between atoms: C_2  and  C_6
REMARK    2  A    between atoms: C_2  and  C_21
REMARK    3  A    between atoms: C_10  and  C_14
REMARK    4  A    between atoms: C_22  and  N_27
REMARK    5  A    between atoms: N_27  and  S_29
REMARK    6  A    between atoms: S_29  and  C_32
REMARK                            x       y       z     vdW  Elec       q    Type
REMARK                         _______ _______ _______ _____ _____    ______ ____
ROOT
ATOM      1  O   UNL     1      36.731 -19.399 -20.760  0.00  0.00    -0.286 OA
ATOM      2  C   UNL     1      35.541 -19.247 -21.091  0.00  0.00    +0.201 C 
ENDROOT
BRANCH   2   6
ATOM      3  N   UNL     1      32.456 -20.996 -20.432  0.00  0.00    -0.297 N 
ATOM      4  N   UNL     1      32.800 -22.485 -18.570  0.00  0.00    -0.229 NA
ATOM      5  C   UNL     1      34.499 -21.002 -19.531  0.00  0.00    +0.036 C 
ATOM      6  C   UNL     1      34.473 -20.075 -20.606  0.00  0.00    +0.056 C 
ATOM      7  C   UNL     1      33.226 -21.558 -19.448  0.00  0.00    +0.132 C 
ATOM      8  C   UNL     1      35.459 -21.442 -18.606  0.00  0.00    +0.005 C 
ATOM      9  C   UNL     1      33.203 -20.093 -21.142  0.00  0.00    +0.066 C 
ATOM     10  C   UNL     1      35.070 -22.402 -17.673  0.00  0.00    +0.021 C 
ATOM     11  C   UNL     1      33.765 -22.873 -17.704  0.00  0.00    +0.100 C 
ATOM     12  H   UNL     1      31.510 -21.208 -20.602  0.00  0.00    +0.154 HD
BRANCH  10  14
ATOM     13  N   UNL     1      38.234 -22.834 -15.749  0.00  0.00    -0.242 NA
ATOM     14  C   UNL     1      36.010 -22.898 -16.693  0.00  0.00    +0.021 C 
ATOM     15  C   UNL     1      35.640 -23.878 -15.778  0.00  0.00    +0.003 C 
ATOM     16  C   UNL     1      37.306 -22.414 -16.637  0.00  0.00    +0.099 C 
ATOM     17  C   UNL     1      36.568 -24.337 -14.849  0.00  0.00    +0.021 C 
ATOM     18  C   UNL     1      37.839 -23.788 -14.875  0.00  0.00    +0.099 C 
ENDBRANCH  10  14
ENDBRANCH   2   6
BRANCH   2  21
ATOM     19  F   UNL     1      34.993 -16.609 -20.268  0.00  0.00    -0.203 F 
ATOM     20  F   UNL     1      35.550 -19.619 -23.895  0.00  0.00    -0.204 F 
ATOM     21  C   UNL     1      35.278 -18.137 -22.058  0.00  0.00    +0.095 C 
ATOM     22  C   UNL     1      34.766 -15.815 -22.489  0.00  0.00    +0.092 C 
ATOM     23  C   UNL     1      35.012 -16.850 -21.588  0.00  0.00    +0.160 C 
ATOM     24  C   UNL     1      35.297 -18.388 -23.430  0.00  0.00    +0.145 C 
ATOM     25  C   UNL     1      34.786 -16.066 -23.861  0.00  0.00    +0.020 C 
ATOM     26  C   UNL     1      35.051 -17.352 -24.331  0.00  0.00    +0.031 C 
BRANCH  22  27
ATOM     27  N   UNL     1      34.494 -14.498 -22.011  0.00  0.00    -0.217 N 
ATOM     28  H   UNL     1      35.222 -13.850 -21.872  0.00  0.00    +0.173 HD
BRANCH  27  29
ATOM     29  S   UNL     1      32.857 -14.074 -21.684  0.00  0.00    +0.054 S 
ATOM     30  O   UNL     1      32.077 -15.295 -21.592  0.00  0.00    -0.154 OA
ATOM     31  O   UNL     1      32.781 -13.070 -20.641  0.00  0.00    -0.154 OA
BRANCH  29  32
ATOM     32  C   UNL     1      32.421 -13.297 -23.224  0.00  0.00    +0.172 C 
ATOM     33  C   UNL     1      33.556 -12.456 -23.762  0.00  0.00    +0.029 C 
ENDBRANCH  29  32
ENDBRANCH  27  29
ENDBRANCH  22  27
ENDBRANCH   2  21
TORSDOF 6
ENDMDL
MODEL 3
REMARK VINA RESULT:     -11.7      3.797     10.533
REMARK  Name = 24180720
REMARK  6 active torsions:
REMARK  status: ('A' for Active; 'I' for Inactive)
REMARK    1  A    between atoms: C_2  and  C_6
REMARK    2  A    between atoms: C_2  and  C_21
REMARK    3  A    between atoms: C_10  and  C_14
REMARK    4  A    between atoms: C_22  and  N_27
REMARK    5  A    between atoms: N_27  and  S_29
REMARK    6  A    between atoms: S_29  and  C_32
REMARK                            x       y       z     vdW  Elec       q    Type
REMARK                         _______ _______ _______ _____ _____    ______ ____
ROOT
ATOM      1  O   UNL     1      34.181 -23.770 -19.941  0.00  0.00    -0.286 OA
ATOM      2  C   UNL     1      34.137 -22.813 -19.147  0.00  0.00    +0.201 C 
ENDROOT
BRANCH   2   6
ATOM      3  N   UNL     1      31.880 -22.708 -16.335  0.00  0.00    -0.297 N 
ATOM      4  N   UNL     1      33.067 -23.442 -14.371  0.00  0.00    -0.229 NA
ATOM      5  C   UNL     1      34.021 -23.277 -16.623  0.00  0.00    +0.036 C 
ATOM      6  C   UNL     1      33.480 -22.872 -17.873  0.00  0.00    +0.056 C 
ATOM      7  C   UNL     1      32.998 -23.162 -15.686  0.00  0.00    +0.132 C 
ATOM      8  C   UNL     1      35.268 -23.732 -16.168  0.00  0.00    +0.005 C 
ATOM      9  C   UNL     1      32.161 -22.527 -17.664  0.00  0.00    +0.066 C 
ATOM     10  C   UNL     1      35.393 -24.036 -14.814  0.00  0.00    +0.021 C 
ATOM     11  C   UNL     1      34.290 -23.876 -13.988  0.00  0.00    +0.100 C 
ATOM     12  H   UNL     1      31.009 -22.536 -15.911  0.00  0.00    +0.154 HD
BRANCH  10  14
ATOM     13  N   UNL     1      39.059 -24.617 -14.457  0.00  0.00    -0.242 NA
ATOM     14  C   UNL     1      36.651 -24.510 -14.280  0.00  0.00    +0.021 C 
ATOM     15  C   UNL     1      36.693 -25.288 -13.128  0.00  0.00    +0.003 C 
ATOM     16  C   UNL     1      37.851 -24.205 -14.901  0.00  0.00    +0.099 C 
ATOM     17  C   UNL     1      37.918 -25.731 -12.640  0.00  0.00    +0.021 C 
ATOM     18  C   UNL     1      39.061 -25.371 -13.335  0.00  0.00    +0.099 C 
ENDBRANCH  10  14
ENDBRANCH   2   6
BRANCH   2  21
ATOM     19  F   UNL     1      32.765 -20.756 -20.498  0.00  0.00    -0.203 F 
ATOM     20  F   UNL     1      36.891 -22.311 -18.743  0.00  0.00    -0.204 F 
ATOM     21  C   UNL     1      34.810 -21.560 -19.611  0.00  0.00    +0.095 C 
ATOM     22  C   UNL     1      34.704 -19.410 -20.707  0.00  0.00    +0.092 C 
ATOM     23  C   UNL     1      34.076 -20.578 -20.275  0.00  0.00    +0.160 C 
ATOM     24  C   UNL     1      36.173 -21.375 -19.379  0.00  0.00    +0.145 C 
ATOM     25  C   UNL     1      36.067 -19.225 -20.476  0.00  0.00    +0.020 C 
ATOM     26  C   UNL     1      36.802 -20.207 -19.812  0.00  0.00    +0.031 C 
BRANCH  22  27
ATOM     27  N   UNL     1      33.955 -18.403 -21.388  0.00  0.00    -0.217 N 
ATOM     28  H   UNL     1      33.066 -18.602 -21.764  0.00  0.00    +0.173 HD
BRANCH  27  29
ATOM     29  S   UNL     1      34.646 -16.833 -21.533  0.00  0.00    +0.054 S 
ATOM     30  O   UNL     1      35.158 -16.436 -20.234  0.00  0.00    -0.154 OA
ATOM     31  O   UNL     1      35.482 -16.742 -22.714  0.00  0.00    -0.154 OA
BRANCH  29  32
ATOM     32  C   UNL     1      33.179 -15.870 -21.825  0.00  0.00    +0.172 C 
ATOM     33  C   UNL     1      32.788 -15.070 -20.603  0.00  0.00    +0.029 C 
ENDBRANCH  29  32
ENDBRANCH  27  29
ENDBRANCH  22  27
ENDBRANCH   2  21
TORSDOF 6
ENDMDL
MODEL 4
REMARK VINA RESULT:     -11.5      1.809      2.354
REMARK  Name = 24180720
REMARK  6 active torsions:
REMARK  status: ('A' for Active; 'I' for Inactive)
REMARK    1  A    between atoms: C_2  and  C_6
REMARK    2  A    between atoms: C_2  and  C_21
REMARK    3  A    between atoms: C_10  and  C_14
REMARK    4  A    between atoms: C_22  and  N_27
REMARK    5  A    between atoms: N_27  and  S_29
REMARK    6  A    between atoms: S_29  and  C_32
REMARK                            x       y       z     vdW  Elec       q    Type
REMARK                         _______ _______ _______ _____ _____    ______ ____
ROOT
ATOM      1  O   UNL     1      35.599 -17.410 -20.671  0.00  0.00    -0.286 OA
ATOM      2  C   UNL     1      35.116 -18.320 -21.369  0.00  0.00    +0.201 C 
ENDROOT
BRANCH   2   6
ATOM      3  N   UNL     1      34.614 -18.710 -24.920  0.00  0.00    -0.297 N 
ATOM      4  N   UNL     1      33.894 -16.598 -25.829  0.00  0.00    -0.229 NA
ATOM      5  C   UNL     1      34.410 -17.023 -23.470  0.00  0.00    +0.036 C 
ATOM      6  C   UNL     1      34.840 -18.181 -22.770  0.00  0.00    +0.056 C 
ATOM      7  C   UNL     1      34.279 -17.386 -24.808  0.00  0.00    +0.132 C 
ATOM      8  C   UNL     1      34.112 -15.694 -23.129  0.00  0.00    +0.005 C 
ATOM      9  C   UNL     1      34.956 -19.204 -23.688  0.00  0.00    +0.066 C 
ATOM     10  C   UNL     1      33.709 -14.836 -24.149  0.00  0.00    +0.021 C 
ATOM     11  C   UNL     1      33.620 -15.331 -25.443  0.00  0.00    +0.100 C 
ATOM     12  H   UNL     1      34.610 -19.226 -25.757  0.00  0.00    +0.154 HD
BRANCH  10  14
ATOM     13  N   UNL     1      32.170 -11.852 -22.527  0.00  0.00    -0.242 NA
ATOM     14  C   UNL     1      33.388 -13.455 -23.865  0.00  0.00    +0.021 C 
ATOM     15  C   UNL     1      33.946 -12.421 -24.610  0.00  0.00    +0.003 C 
ATOM     16  C   UNL     1      32.513 -13.120 -22.844  0.00  0.00    +0.099 C 
ATOM     17  C   UNL     1      33.616 -11.103 -24.314  0.00  0.00    +0.021 C 
ATOM     18  C   UNL     1      32.732 -10.874 -23.273  0.00  0.00    +0.099 C 
ENDBRANCH  10  14
ENDBRANCH   2   6
BRANCH   2  21
ATOM     19  F   UNL     1      37.109 -19.863 -20.111  0.00  0.00    -0.203 F 
ATOM     20  F   UNL     1      32.504 -19.385 -21.154  0.00  0.00    -0.204 F 
ATOM     21  C   UNL     1      34.816 -19.596 -20.647  0.00  0.00    +0.095 C 
ATOM     22  C   UNL     1      35.568 -21.504 -19.371  0.00  0.00    +0.092 C 
ATOM     23  C   UNL     1      35.848 -20.315 -20.044  0.00  0.00    +0.160 C 
ATOM     24  C   UNL     1      33.505 -20.066 -20.577  0.00  0.00    +0.145 C 
ATOM     25  C   UNL     1      34.257 -21.974 -19.302  0.00  0.00    +0.020 C 
ATOM     26  C   UNL     1      33.225 -21.255 -19.905  0.00  0.00    +0.031 C 
BRANCH  22  27
ATOM     27  N   UNL     1      36.623 -22.243 -18.753  0.00  0.00    -0.217 N 
ATOM     28  H   UNL     1      37.082 -22.968 -19.236  0.00  0.00    +0.173 HD
BRANCH  27  29
ATOM     29  S   UNL     1      37.070 -21.830 -17.143  0.00  0.00    +0.054 S 
ATOM     30  O   UNL     1      38.094 -22.758 -16.699  0.00  0.00    -0.154 OA
ATOM     31  O   UNL     1      37.264 -20.400 -17.010  0.00  0.00    -0.154 OA
BRANCH  29  32
ATOM     32  C   UNL     1      35.574 -22.261 -16.281  0.00  0.00    +0.172 C 
ATOM     33  C   UNL     1      35.787 -23.439 -15.357  0.00  0.00    +0.029 C 
ENDBRANCH  29  32
ENDBRANCH  27  29
ENDBRANCH  22  27
ENDBRANCH   2  21
TORSDOF 6
ENDMDL
MODEL 5
REMARK VINA RESULT:     -11.3      3.239      9.910
REMARK  Name = 24180720
REMARK  6 active torsions:
REMARK  status: ('A' for Active; 'I' for Inactive)
REMARK    1  A    between atoms: C_2  and  C_6
REMARK    2  A    between atoms: C_2  and  C_21
REMARK    3  A    between atoms: C_10  and  C_14
REMARK    4  A    between atoms: C_22  and  N_27
REMARK    5  A    between atoms: N_27  and  S_29
REMARK    6  A    between atoms: S_29  and  C_32
REMARK                            x       y       z     vdW  Elec       q    Type
REMARK                         _______ _______ _______ _____ _____    ______ ____
ROOT
ATOM      1  O   UNL     1      34.344 -23.027 -19.981  0.00  0.00    -0.286 OA
ATOM      2  C   UNL     1      34.958 -22.186 -19.300  0.00  0.00    +0.201 C 
ENDROOT
BRANCH   2   6
ATOM      3  N   UNL     1      36.440 -22.405 -16.019  0.00  0.00    -0.297 N 
ATOM      4  N   UNL     1      34.766 -23.181 -14.470  0.00  0.00    -0.229 NA
ATOM      5  C   UNL     1      34.416 -22.813 -16.868  0.00  0.00    +0.036 C 
ATOM      6  C   UNL     1      35.271 -22.368 -17.911  0.00  0.00    +0.056 C 
ATOM      7  C   UNL     1      35.176 -22.825 -15.702  0.00  0.00    +0.132 C 
ATOM      8  C   UNL     1      33.073 -23.211 -16.770  0.00  0.00    +0.005 C 
ATOM      9  C   UNL     1      36.511 -22.125 -17.359  0.00  0.00    +0.066 C 
ATOM     10  C   UNL     1      32.598 -23.590 -15.516  0.00  0.00    +0.021 C 
ATOM     11  C   UNL     1      33.466 -23.556 -14.434  0.00  0.00    +0.100 C 
ATOM     12  H   UNL     1      37.185 -22.319 -15.382  0.00  0.00    +0.154 HD
BRANCH  10  14
ATOM     13  N   UNL     1      29.650 -25.590 -14.415  0.00  0.00    -0.242 NA
ATOM     14  C   UNL     1      31.226 -24.011 -15.347  0.00  0.00    +0.021 C 
ATOM     15  C   UNL     1      30.180 -23.296 -15.922  0.00  0.00    +0.003 C 
ATOM     16  C   UNL     1      30.910 -25.141 -14.610  0.00  0.00    +0.099 C 
ATOM     17  C   UNL     1      28.870 -23.727 -15.744  0.00  0.00    +0.021 C 
ATOM     18  C   UNL     1      28.660 -24.869 -14.988  0.00  0.00    +0.099 C 
ENDBRANCH  10  14
ENDBRANCH   2   6
BRANCH   2  21
ATOM     19  F   UNL     1      33.107 -20.169 -19.966  0.00  0.00    -0.203 F 
ATOM     20  F   UNL     1      37.614 -21.648 -20.109  0.00  0.00    -0.204 F 
ATOM     21  C   UNL     1      35.349 -20.935 -20.021  0.00  0.00    +0.095 C 
ATOM     22  C   UNL     1      34.750 -18.807 -20.995  0.00  0.00    +0.092 C 
ATOM     23  C   UNL     1      34.385 -19.973 -20.323  0.00  0.00    +0.160 C 
ATOM     24  C   UNL     1      36.678 -20.731 -20.392  0.00  0.00    +0.145 C 
ATOM     25  C   UNL     1      36.079 -18.603 -21.366  0.00  0.00    +0.020 C 
ATOM     26  C   UNL     1      37.043 -19.565 -21.065  0.00  0.00    +0.031 C 
BRANCH  22  27
ATOM     27  N   UNL     1      33.765 -17.821 -21.306  0.00  0.00    -0.217 N 
ATOM     28  H   UNL     1      32.854 -18.084 -21.575  0.00  0.00    +0.173 HD
BRANCH  27  29
ATOM     29  S   UNL     1      34.212 -16.162 -21.198  0.00  0.00    +0.054 S 
ATOM     30  O   UNL     1      34.947 -15.965 -19.962  0.00  0.00    -0.154 OA
ATOM     31  O   UNL     1      34.749 -15.687 -22.458  0.00  0.00    -0.154 OA
BRANCH  29  32
ATOM     32  C   UNL     1      32.612 -15.420 -20.971  0.00  0.00    +0.172 C 
ATOM     33  C   UNL     1      32.576 -14.005 -21.505  0.00  0.00    +0.029 C 
ENDBRANCH  29  32
ENDBRANCH  27  29
ENDBRANCH  22  27
ENDBRANCH   2  21
TORSDOF 6
ENDMDL
MODEL 6
REMARK VINA RESULT:     -11.3      3.440      9.468
REMARK  Name = 24180720
REMARK  6 active torsions:
REMARK  status: ('A' for Active; 'I' for Inactive)
REMARK    1  A    between atoms: C_2  and  C_6
REMARK    2  A    between atoms: C_2  and  C_21
REMARK    3  A    between atoms: C_10  and  C_14
REMARK    4  A    between atoms: C_22  and  N_27
REMARK    5  A    between atoms: N_27  and  S_29
REMARK    6  A    between atoms: S_29  and  C_32
REMARK                            x       y       z     vdW  Elec       q    Type
REMARK                         _______ _______ _______ _____ _____    ______ ____
ROOT
ATOM      1  O   UNL     1      33.996 -23.665 -19.729  0.00  0.00    -0.286 OA
ATOM      2  C   UNL     1      34.365 -22.791 -18.923  0.00  0.00    +0.201 C 
ENDROOT
BRANCH   2   6
ATOM      3  N   UNL     1      34.764 -23.147 -15.356  0.00  0.00    -0.297 N 
ATOM      4  N   UNL     1      32.584 -23.108 -14.332  0.00  0.00    -0.229 NA
ATOM      5  C   UNL     1      33.024 -22.911 -16.736  0.00  0.00    +0.036 C 
ATOM      6  C   UNL     1      34.220 -22.915 -17.501  0.00  0.00    +0.056 C 
ATOM      7  C   UNL     1      33.398 -23.059 -15.403  0.00  0.00    +0.132 C 
ATOM      8  C   UNL     1      31.652 -22.800 -17.014  0.00  0.00    +0.005 C 
ATOM      9  C   UNL     1      35.275 -23.061 -16.625  0.00  0.00    +0.066 C 
ATOM     10  C   UNL     1      30.765 -22.846 -15.940  0.00  0.00    +0.021 C 
ATOM     11  C   UNL     1      31.276 -22.996 -14.658  0.00  0.00    +0.100 C 
ATOM     12  H   UNL     1      35.297 -23.257 -14.536  0.00  0.00    +0.154 HD
BRANCH  10  14
ATOM     13  N   UNL     1      27.436 -23.127 -17.596  0.00  0.00    -0.242 NA
ATOM     14  C   UNL     1      29.341 -22.737 -16.159  0.00  0.00    +0.021 C 
ATOM     15  C   UNL     1      28.511 -22.163 -15.202  0.00  0.00    +0.003 C 
ATOM     16  C   UNL     1      28.759 -23.199 -17.328  0.00  0.00    +0.099 C 
ATOM     17  C   UNL     1      27.144 -22.070 -15.442  0.00  0.00    +0.021 C 
ATOM     18  C   UNL     1      26.661 -22.563 -16.643  0.00  0.00    +0.099 C 
ENDBRANCH  10  14
ENDBRANCH   2   6
BRANCH   2  21
ATOM     19  F   UNL     1      32.838 -20.860 -20.293  0.00  0.00    -0.203 F 
ATOM     20  F   UNL     1      37.132 -22.220 -18.800  0.00  0.00    -0.204 F 
ATOM     21  C   UNL     1      34.969 -21.566 -19.533  0.00  0.00    +0.095 C 
ATOM     22  C   UNL     1      34.723 -19.504 -20.769  0.00  0.00    +0.092 C 
ATOM     23  C   UNL     1      34.159 -20.646 -20.199  0.00  0.00    +0.160 C 
ATOM     24  C   UNL     1      36.343 -21.344 -19.436  0.00  0.00    +0.145 C 
ATOM     25  C   UNL     1      36.097 -19.282 -20.672  0.00  0.00    +0.020 C 
ATOM     26  C   UNL     1      36.906 -20.202 -20.005  0.00  0.00    +0.031 C 
BRANCH  22  27
ATOM     27  N   UNL     1      33.896 -18.562 -21.452  0.00  0.00    -0.217 N 
ATOM     28  H   UNL     1      33.138 -18.861 -22.005  0.00  0.00    +0.173 HD
BRANCH  27  29
ATOM     29  S   UNL     1      34.260 -16.888 -21.282  0.00  0.00    +0.054 S 
ATOM     30  O   UNL     1      33.011 -16.151 -21.211  0.00  0.00    -0.154 OA
ATOM     31  O   UNL     1      35.294 -16.681 -20.288  0.00  0.00    -0.154 OA
BRANCH  29  32
ATOM     32  C   UNL     1      34.965 -16.555 -22.881  0.00  0.00    +0.172 C 
ATOM     33  C   UNL     1      34.860 -17.757 -23.794  0.00  0.00    +0.029 C 
ENDBRANCH  29  32
ENDBRANCH  27  29
ENDBRANCH  22  27
ENDBRANCH   2  21
TORSDOF 6
ENDMDL
MODEL 7
REMARK VINA RESULT:     -11.3      4.503      8.326
REMARK  Name = 24180720
REMARK  6 active torsions:
REMARK  status: ('A' for Active; 'I' for Inactive)
REMARK    1  A    between atoms: C_2  and  C_6
REMARK    2  A    between atoms: C_2  and  C_21
REMARK    3  A    between atoms: C_10  and  C_14
REMARK    4  A    between atoms: C_22  and  N_27
REMARK    5  A    between atoms: N_27  and  S_29
REMARK    6  A    between atoms: S_29  and  C_32
REMARK                            x       y       z     vdW  Elec       q    Type
REMARK                         _______ _______ _______ _____ _____    ______ ____
ROOT
ATOM      1  O   UNL     1      30.024 -11.547 -21.901  0.00  0.00    -0.286 OA
ATOM      2  C   UNL     1      31.236 -11.348 -21.695  0.00  0.00    +0.201 C 
ENDROOT
BRANCH   2   6
ATOM      3  N   UNL     1      32.539  -9.397 -18.955  0.00  0.00    -0.297 N 
ATOM      4  N   UNL     1      32.728  -7.103 -19.668  0.00  0.00    -0.229 NA
ATOM      5  C   UNL     1      31.907  -8.954 -21.051  0.00  0.00    +0.036 C 
ATOM      6  C   UNL     1      31.730 -10.341 -20.801  0.00  0.00    +0.056 C 
ATOM      7  C   UNL     1      32.412  -8.395 -19.880  0.00  0.00    +0.132 C 
ATOM      8  C   UNL     1      31.698  -8.094 -22.141  0.00  0.00    +0.005 C 
ATOM      9  C   UNL     1      32.128 -10.584 -19.503  0.00  0.00    +0.066 C 
ATOM     10  C   UNL     1      32.009  -6.746 -21.974  0.00  0.00    +0.021 C 
ATOM     11  C   UNL     1      32.507  -6.322 -20.750  0.00  0.00    +0.100 C 
ATOM     12  H   UNL     1      32.874  -9.282 -18.037  0.00  0.00    +0.154 HD
BRANCH  10  14
ATOM     13  N   UNL     1      30.802  -3.768 -23.866  0.00  0.00    -0.242 NA
ATOM     14  C   UNL     1      31.816  -5.808 -23.056  0.00  0.00    +0.021 C 
ATOM     15  C   UNL     1      32.418  -6.009 -24.295  0.00  0.00    +0.003 C 
ATOM     16  C   UNL     1      31.025  -4.682 -22.896  0.00  0.00    +0.099 C 
ATOM     17  C   UNL     1      32.211  -5.090 -25.318  0.00  0.00    +0.021 C 
ATOM     18  C   UNL     1      31.403  -3.997 -25.055  0.00  0.00    +0.099 C 
ENDBRANCH  10  14
ENDBRANCH   2   6
BRANCH   2  21
ATOM     19  F   UNL     1      31.559 -14.088 -21.123  0.00  0.00    -0.203 F 
ATOM     20  F   UNL     1      32.831 -10.403 -23.831  0.00  0.00    -0.204 F 
ATOM     21  C   UNL     1      32.173 -12.228 -22.459  0.00  0.00    +0.095 C 
ATOM     22  C   UNL     1      33.162 -14.399 -22.840  0.00  0.00    +0.092 C 
ATOM     23  C   UNL     1      32.288 -13.579 -22.128  0.00  0.00    +0.160 C 
ATOM     24  C   UNL     1      32.931 -11.699 -23.503  0.00  0.00    +0.145 C 
ATOM     25  C   UNL     1      33.921 -13.870 -23.884  0.00  0.00    +0.020 C 
ATOM     26  C   UNL     1      33.806 -12.520 -24.215  0.00  0.00    +0.031 C 
BRANCH  22  27
ATOM     27  N   UNL     1      33.283 -15.781 -22.502  0.00  0.00    -0.217 N 
ATOM     28  H   UNL     1      32.558 -16.417 -22.706  0.00  0.00    +0.173 HD
BRANCH  27  29
ATOM     29  S   UNL     1      34.730 -16.307 -21.731  0.00  0.00    +0.054 S 
ATOM     30  O   UNL     1      35.758 -16.465 -22.743  0.00  0.00    -0.154 OA
ATOM     31  O   UNL     1      34.988 -15.533 -20.533  0.00  0.00    -0.154 OA
BRANCH  29  32
ATOM     32  C   UNL     1      34.242 -17.943 -21.230  0.00  0.00    +0.172 C 
ATOM     33  C   UNL     1      34.663 -18.981 -22.246  0.00  0.00    +0.029 C 
ENDBRANCH  29  32
ENDBRANCH  27  29
ENDBRANCH  22  27
ENDBRANCH   2  21
TORSDOF 6
ENDMDL
MODEL 8
REMARK VINA RESULT:     -11.2      3.355      6.030
REMARK  Name = 24180720
REMARK  6 active torsions:
REMARK  status: ('A' for Active; 'I' for Inactive)
REMARK    1  A    between atoms: C_2  and  C_6
REMARK    2  A    between atoms: C_2  and  C_21
REMARK    3  A    between atoms: C_10  and  C_14
REMARK    4  A    between atoms: C_22  and  N_27
REMARK    5  A    between atoms: N_27  and  S_29
REMARK    6  A    between atoms: S_29  and  C_32
REMARK                            x       y       z     vdW  Elec       q    Type
REMARK                         _______ _______ _______ _____ _____    ______ ____
ROOT
ATOM      1  O   UNL     1      33.794 -12.781 -24.800  0.00  0.00    -0.286 OA
ATOM      2  C   UNL     1      33.500 -13.631 -23.939  0.00  0.00    +0.201 C 
ENDROOT
BRANCH   2   6
ATOM      3  N   UNL     1      31.870 -13.585 -20.721  0.00  0.00    -0.297 N 
ATOM      4  N   UNL     1      31.203 -11.322 -20.231  0.00  0.00    -0.229 NA
ATOM      5  C   UNL     1      32.363 -12.048 -22.265  0.00  0.00    +0.036 C 
ATOM      6  C   UNL     1      32.823 -13.315 -22.714  0.00  0.00    +0.056 C 
ATOM      7  C   UNL     1      31.773 -12.252 -21.021  0.00  0.00    +0.132 C 
ATOM      8  C   UNL     1      32.375 -10.738 -22.769  0.00  0.00    +0.005 C 
ATOM      9  C   UNL     1      32.506 -14.242 -21.743  0.00  0.00    +0.066 C 
ATOM     10  C   UNL     1      31.797  -9.737 -21.991  0.00  0.00    +0.021 C 
ATOM     11  C   UNL     1      31.243 -10.080 -20.765  0.00  0.00    +0.100 C 
ATOM     12  H   UNL     1      31.533 -14.007 -19.899  0.00  0.00    +0.154 HD
BRANCH  10  14
ATOM     13  N   UNL     1      32.277  -6.040 -22.034  0.00  0.00    -0.242 NA
ATOM     14  C   UNL     1      31.776  -8.368 -22.452  0.00  0.00    +0.021 C 
ATOM     15  C   UNL     1      31.258  -8.040 -23.701  0.00  0.00    +0.003 C 
ATOM     16  C   UNL     1      32.268  -7.340 -21.664  0.00  0.00    +0.099 C 
ATOM     17  C   UNL     1      31.249  -6.713 -24.116  0.00  0.00    +0.021 C 
ATOM     18  C   UNL     1      31.766  -5.760 -23.254  0.00  0.00    +0.099 C 
ENDBRANCH  10  14
ENDBRANCH   2   6
BRANCH   2  21
ATOM     19  F   UNL     1      35.306 -15.081 -22.335  0.00  0.00    -0.203 F 
ATOM     20  F   UNL     1      32.536 -15.049 -26.188  0.00  0.00    -0.204 F 
ATOM     21  C   UNL     1      33.913 -15.034 -24.252  0.00  0.00    +0.095 C 
ATOM     22  C   UNL     1      35.198 -17.007 -23.711  0.00  0.00    +0.092 C 
ATOM     23  C   UNL     1      34.812 -15.699 -23.418  0.00  0.00    +0.160 C 
ATOM     24  C   UNL     1      33.400 -15.677 -25.378  0.00  0.00    +0.145 C 
ATOM     25  C   UNL     1      34.685 -17.650 -24.837  0.00  0.00    +0.020 C 
ATOM     26  C   UNL     1      33.786 -16.985 -25.671  0.00  0.00    +0.031 C 
BRANCH  22  27
ATOM     27  N   UNL     1      36.118 -17.690 -22.859  0.00  0.00    -0.217 N 
ATOM     28  H   UNL     1      37.057 -17.819 -23.129  0.00  0.00    +0.173 HD
BRANCH  27  29
ATOM     29  S   UNL     1      35.544 -18.281 -21.348  0.00  0.00    +0.054 S 
ATOM     30  O   UNL     1      36.593 -19.076 -20.737  0.00  0.00    -0.154 OA
ATOM     31  O   UNL     1      34.884 -17.230 -20.597  0.00  0.00    -0.154 OA
BRANCH  29  32
ATOM     32  C   UNL     1      34.295 -19.418 -21.909  0.00  0.00    +0.172 C 
ATOM     33  C   UNL     1      33.357 -19.807 -20.789  0.00  0.00    +0.029 C 
ENDBRANCH  29  32
ENDBRANCH  27  29
ENDBRANCH  22  27
ENDBRANCH   2  21
TORSDOF 6
ENDMDL
MODEL 9
REMARK VINA RESULT:     -11.1      4.230      9.581
REMARK  Name = 24180720
REMARK  6 active torsions:
REMARK  status: ('A' for Active; 'I' for Inactive)
REMARK    1  A    between atoms: C_2  and  C_6
REMARK    2  A    between atoms: C_2  and  C_21
REMARK    3  A    between atoms: C_10  and  C_14
REMARK    4  A    between atoms: C_22  and  N_27
REMARK    5  A    between atoms: N_27  and  S_29
REMARK    6  A    between atoms: S_29  and  C_32
REMARK                            x       y       z     vdW  Elec       q    Type
REMARK                         _______ _______ _______ _____ _____    ______ ____
ROOT
ATOM      1  O   UNL     1      35.202 -14.494 -20.662  0.00  0.00    -0.286 OA
ATOM      2  C   UNL     1      34.413 -14.564 -21.622  0.00  0.00    +0.201 C 
ENDROOT
BRANCH   2   6
ATOM      3  N   UNL     1      34.702 -16.429 -24.696  0.00  0.00    -0.297 N 
ATOM      4  N   UNL     1      34.706 -18.780 -24.171  0.00  0.00    -0.229 NA
ATOM      5  C   UNL     1      34.536 -16.962 -22.534  0.00  0.00    +0.036 C 
ATOM      6  C   UNL     1      34.517 -15.548 -22.661  0.00  0.00    +0.056 C 
ATOM      7  C   UNL     1      34.651 -17.481 -23.821  0.00  0.00    +0.132 C 
ATOM      8  C   UNL     1      34.468 -17.877 -21.471  0.00  0.00    +0.005 C 
ATOM      9  C   UNL     1      34.621 -15.249 -24.003  0.00  0.00    +0.066 C 
ATOM     10  C   UNL     1      34.520 -19.235 -21.779  0.00  0.00    +0.021 C 
ATOM     11  C   UNL     1      34.636 -19.615 -23.109  0.00  0.00    +0.100 C 
ATOM     12  H   UNL     1      34.783 -16.508 -25.674  0.00  0.00    +0.154 HD
BRANCH  10  14
ATOM     13  N   UNL     1      33.107 -21.576 -19.244  0.00  0.00    -0.242 NA
ATOM     14  C   UNL     1      34.455 -20.229 -20.731  0.00  0.00    +0.021 C 
ATOM     15  C   UNL     1      35.613 -20.788 -20.200  0.00  0.00    +0.003 C 
ATOM     16  C   UNL     1      33.238 -20.653 -20.222  0.00  0.00    +0.099 C 
ATOM     17  C   UNL     1      35.518 -21.740 -19.191  0.00  0.00    +0.021 C 
ATOM     18  C   UNL     1      34.253 -22.097 -18.752  0.00  0.00    +0.099 C 
ENDBRANCH  10  14
ENDBRANCH   2   6
BRANCH   2  21
ATOM     19  F   UNL     1      34.296 -12.516 -23.553  0.00  0.00    -0.203 F 
ATOM     20  F   UNL     1      32.314 -14.505 -19.727  0.00  0.00    -0.204 F 
ATOM     21  C   UNL     1      33.330 -13.533 -21.642  0.00  0.00    +0.095 C 
ATOM     22  C   UNL     1      32.318 -11.581 -22.644  0.00  0.00    +0.092 C 
ATOM     23  C   UNL     1      33.328 -12.543 -22.625  0.00  0.00    +0.160 C 
ATOM     24  C   UNL     1      32.323 -13.560 -20.677  0.00  0.00    +0.145 C 
ATOM     25  C   UNL     1      31.311 -11.608 -21.679  0.00  0.00    +0.020 C 
ATOM     26  C   UNL     1      31.314 -12.597 -20.696  0.00  0.00    +0.031 C 
BRANCH  22  27
ATOM     27  N   UNL     1      32.314 -10.566 -23.648  0.00  0.00    -0.217 N 
ATOM     28  H   UNL     1      32.100 -10.783 -24.585  0.00  0.00    +0.173 HD
BRANCH  27  29
ATOM     29  S   UNL     1      32.692  -8.954 -23.178  0.00  0.00    +0.054 S 
ATOM     30  O   UNL     1      31.851  -8.045 -23.935  0.00  0.00    -0.154 OA
ATOM     31  O   UNL     1      32.785  -8.843 -21.735  0.00  0.00    -0.154 OA
BRANCH  29  32
ATOM     32  C   UNL     1      34.336  -8.810 -23.843  0.00  0.00    +0.172 C 
ATOM     33  C   UNL     1      34.920  -7.440 -23.586  0.00  0.00    +0.029 C 
ENDBRANCH  29  32
ENDBRANCH  27  29
ENDBRANCH  22  27
ENDBRANCH   2  21
TORSDOF 6
ENDMDL
