MODEL 1
REMARK VINA RESULT:      -9.7      0.000      0.000
REMARK  Name = 17753789
REMARK  10 active torsions:
REMARK  status: ('A' for Active; 'I' for Inactive)
REMARK    1  A    between atoms: N_1  and  C_29
REMARK    2  A    between atoms: C_3  and  C_8
REMARK    3  A    between atoms: C_4  and  C_17
REMARK    4  A    between atoms: C_5  and  O_6
REMARK    5  A    between atoms: C_8  and  N_9
REMARK    6  A    between atoms: C_8  and  C_13
REMARK    7  A    between atoms: C_13  and  O_15
REMARK    8  A    between atoms: C_17  and  C_20
REMARK    9  A    between atoms: C_29  and  C_31
REMARK   10  A    between atoms: C_31  and  O_32
REMARK                            x       y       z     vdW  Elec       q    Type
REMARK                         _______ _______ _______ _____ _____    ______ ____
ROOT
ATOM      1  N   UNL     1      36.160 -24.793 -13.216  0.00  0.00    -0.251 N 
ATOM      2  N   UNL     1      35.423 -24.840 -15.311  0.00  0.00    -0.398 NA
ATOM      3  C   UNL     1      36.347 -25.273 -14.483  0.00  0.00    +0.143 C 
ATOM      4  C   UNL     1      34.607 -24.048 -14.540  0.00  0.00    +0.139 C 
ATOM      5  C   UNL     1      35.044 -24.004 -13.237  0.00  0.00    +0.241 C 
ENDROOT
BRANCH   5   6
ATOM      6  O   UNL     1      34.591 -23.386 -12.158  0.00  0.00    -0.362 OA
ATOM      7  H   UNL     1      33.758 -23.623 -11.798  0.00  0.00    +0.213 HD
ENDBRANCH   5   6
BRANCH   3   8
ATOM      8  C   UNL     1      37.470 -26.168 -14.829  0.00  0.00    +0.031 C 
BRANCH   8   9
ATOM      9  N   UNL     1      37.068 -27.197 -15.821  0.00  0.00    +0.389 N 
ATOM     10  H   UNL     1      36.064 -27.364 -15.751  0.00  0.00    -0.088 HD
ATOM     11  H   UNL     1      37.570 -28.065 -15.632  0.00  0.00    -0.088 HD
ATOM     12  H   UNL     1      37.295 -26.871 -16.761  0.00  0.00    -0.088 HD
ENDBRANCH   8   9
BRANCH   8  13
ATOM     13  C   UNL     1      38.743 -25.408 -15.336  0.00  0.00    +0.099 C 
ATOM     14  C   UNL     1      40.030 -25.723 -14.576  0.00  0.00    +0.030 C 
BRANCH  13  15
ATOM     15  O   UNL     1      38.486 -24.009 -15.186  0.00  0.00    -0.386 OA
ATOM     16  H   UNL     1      38.085 -23.844 -14.319  0.00  0.00    +0.210 HD
ENDBRANCH  13  15
ENDBRANCH   8  13
ENDBRANCH   3   8
BRANCH   4  17
ATOM     17  C   UNL     1      33.408 -23.360 -15.152  0.00  0.00    +0.086 C 
BRANCH  17  20
ATOM     18  F   UNL     1      31.284 -22.149 -17.136  0.00  0.00    -0.204 F 
ATOM     19  N   UNL     1      30.609 -25.273 -13.798  0.00  0.00    -0.312 N 
ATOM     20  C   UNL     1      32.123 -23.998 -14.801  0.00  0.00    +0.003 C 
ATOM     21  C   UNL     1      30.864 -23.768 -15.425  0.00  0.00    +0.039 C 
ATOM     22  C   UNL     1      29.932 -24.582 -14.776  0.00  0.00    +0.050 C 
ATOM     23  C   UNL     1      31.934 -24.928 -13.805  0.00  0.00    +0.058 C 
ATOM     24  C   UNL     1      30.429 -22.945 -16.481  0.00  0.00    +0.141 C 
ATOM     25  C   UNL     1      28.579 -24.612 -15.134  0.00  0.00    +0.015 C 
ATOM     26  C   UNL     1      29.078 -22.966 -16.850  0.00  0.00    +0.030 C 
ATOM     27  C   UNL     1      28.169 -23.787 -16.185  0.00  0.00    +0.004 C 
ATOM     28  H   UNL     1      30.200 -25.923 -13.181  0.00  0.00    +0.152 HD
ENDBRANCH  17  20
ENDBRANCH   4  17
BRANCH   1  29
ATOM     29  C   UNL     1      36.988 -25.069 -12.063  0.00  0.00    +0.205 C 
BRANCH  29  31
ATOM     30  O   UNL     1      38.977 -23.665 -12.151  0.00  0.00    -0.248 OA
ATOM     31  C   UNL     1      37.867 -23.904 -11.698  0.00  0.00    +0.334 C 
BRANCH  31  32
ATOM     32  O   UNL     1      37.249 -23.131 -10.770  0.00  0.00    -0.479 OA
ATOM     33  H   UNL     1      37.751 -22.719 -10.095  0.00  0.00    +0.295 HD
ENDBRANCH  31  32
ENDBRANCH  29  31
ENDBRANCH   1  29
TORSDOF 10
ENDMDL
MODEL 2
REMARK VINA RESULT:      -9.5      4.554      6.357
REMARK  Name = 17753789
REMARK  10 active torsions:
REMARK  status: ('A' for Active; 'I' for Inactive)
REMARK    1  A    between atoms: N_1  and  C_29
REMARK    2  A    between atoms: C_3  and  C_8
REMARK    3  A    between atoms: C_4  and  C_17
REMARK    4  A    between atoms: C_5  and  O_6
REMARK    5  A    between atoms: C_8  and  N_9
REMARK    6  A    between atoms: C_8  and  C_13
REMARK    7  A    between atoms: C_13  and  O_15
REMARK    8  A    between atoms: C_17  and  C_20
REMARK    9  A    between atoms: C_29  and  C_31
REMARK   10  A    between atoms: C_31  and  O_32
REMARK                            x       y       z     vdW  Elec       q    Type
REMARK                         _______ _______ _______ _____ _____    ______ ____
ROOT
ATOM      1  N   UNL     1      32.657 -23.291 -15.582  0.00  0.00    -0.251 N 
ATOM      2  N   UNL     1      34.463 -23.340 -16.873  0.00  0.00    -0.398 NA
ATOM      3  C   UNL     1      33.998 -23.544 -15.661  0.00  0.00    +0.143 C 
ATOM      4  C   UNL     1      33.372 -22.940 -17.603  0.00  0.00    +0.139 C 
ATOM      5  C   UNL     1      32.239 -22.902 -16.823  0.00  0.00    +0.241 C 
ENDROOT
BRANCH   5   6
ATOM      6  O   UNL     1      30.981 -22.583 -17.082  0.00  0.00    -0.362 OA
ATOM      7  H   UNL     1      30.636 -21.763 -16.789  0.00  0.00    +0.213 HD
ENDBRANCH   5   6
BRANCH   3   8
ATOM      8  C   UNL     1      34.786 -23.990 -14.494  0.00  0.00    +0.031 C 
BRANCH   8   9
ATOM      9  N   UNL     1      35.057 -25.449 -14.538  0.00  0.00    +0.389 N 
ATOM     10  H   UNL     1      34.533 -25.869 -15.305  0.00  0.00    -0.088 HD
ATOM     11  H   UNL     1      34.769 -25.874 -13.656  0.00  0.00    -0.088 HD
ATOM     12  H   UNL     1      36.055 -25.606 -14.680  0.00  0.00    -0.088 HD
ENDBRANCH   8   9
BRANCH   8  13
ATOM     13  C   UNL     1      36.129 -23.205 -14.308  0.00  0.00    +0.099 C 
ATOM     14  C   UNL     1      37.375 -23.919 -14.828  0.00  0.00    +0.030 C 
BRANCH  13  15
ATOM     15  O   UNL     1      36.306 -22.999 -12.904  0.00  0.00    -0.386 OA
ATOM     16  H   UNL     1      35.464 -22.726 -12.508  0.00  0.00    +0.210 HD
ENDBRANCH  13  15
ENDBRANCH   8  13
ENDBRANCH   3   8
BRANCH   4  17
ATOM     17  C   UNL     1      33.512 -22.607 -19.071  0.00  0.00    +0.086 C 
BRANCH  17  20
ATOM     18  F   UNL     1      32.429 -20.454 -21.097  0.00  0.00    -0.204 F 
ATOM     19  N   UNL     1      36.693 -20.837 -19.355  0.00  0.00    -0.312 N 
ATOM     20  C   UNL     1      34.658 -21.722 -19.365  0.00  0.00    +0.003 C 
ATOM     21  C   UNL     1      34.657 -20.595 -20.234  0.00  0.00    +0.039 C 
ATOM     22  C   UNL     1      35.946 -20.058 -20.208  0.00  0.00    +0.050 C 
ATOM     23  C   UNL     1      35.923 -21.845 -18.839  0.00  0.00    +0.058 C 
ATOM     24  C   UNL     1      33.680 -19.978 -21.040  0.00  0.00    +0.141 C 
ATOM     25  C   UNL     1      36.308 -18.929 -20.954  0.00  0.00    +0.015 C 
ATOM     26  C   UNL     1      34.028 -18.848 -21.791  0.00  0.00    +0.030 C 
ATOM     27  C   UNL     1      35.323 -18.334 -21.746  0.00  0.00    +0.004 C 
ATOM     28  H   UNL     1      37.644 -20.691 -19.145  0.00  0.00    +0.152 HD
ENDBRANCH  17  20
ENDBRANCH   4  17
BRANCH   1  29
ATOM     29  C   UNL     1      31.828 -23.413 -14.403  0.00  0.00    +0.205 C 
BRANCH  29  31
ATOM     30  O   UNL     1      30.459 -25.394 -14.773  0.00  0.00    -0.248 OA
ATOM     31  C   UNL     1      31.361 -24.824 -14.176  0.00  0.00    +0.334 C 
BRANCH  31  32
ATOM     32  O   UNL     1      32.092 -25.400 -13.188  0.00  0.00    -0.479 OA
ATOM     33  H   UNL     1      31.968 -25.135 -12.298  0.00  0.00    +0.295 HD
ENDBRANCH  31  32
ENDBRANCH  29  31
ENDBRANCH   1  29
TORSDOF 10
ENDMDL
MODEL 3
REMARK VINA RESULT:      -9.2      3.984      5.604
REMARK  Name = 17753789
REMARK  10 active torsions:
REMARK  status: ('A' for Active; 'I' for Inactive)
REMARK    1  A    between atoms: N_1  and  C_29
REMARK    2  A    between atoms: C_3  and  C_8
REMARK    3  A    between atoms: C_4  and  C_17
REMARK    4  A    between atoms: C_5  and  O_6
REMARK    5  A    between atoms: C_8  and  N_9
REMARK    6  A    between atoms: C_8  and  C_13
REMARK    7  A    between atoms: C_13  and  O_15
REMARK    8  A    between atoms: C_17  and  C_20
REMARK    9  A    between atoms: C_29  and  C_31
REMARK   10  A    between atoms: C_31  and  O_32
REMARK                            x       y       z     vdW  Elec       q    Type
REMARK                         _______ _______ _______ _____ _____    ______ ____
ROOT
ATOM      1  N   UNL     1      36.802 -24.000 -14.646  0.00  0.00    -0.251 N 
ATOM      2  N   UNL     1      35.187 -23.120 -15.891  0.00  0.00    -0.398 NA
ATOM      3  C   UNL     1      35.459 -23.794 -14.796  0.00  0.00    +0.143 C 
ATOM      4  C   UNL     1      36.410 -22.884 -16.467  0.00  0.00    +0.139 C 
ATOM      5  C   UNL     1      37.427 -23.419 -15.713  0.00  0.00    +0.241 C 
ENDROOT
BRANCH   5   6
ATOM      6  O   UNL     1      38.742 -23.443 -15.865  0.00  0.00    -0.362 OA
ATOM      7  H   UNL     1      39.157 -22.841 -16.452  0.00  0.00    +0.213 HD
ENDBRANCH   5   6
BRANCH   3   8
ATOM      8  C   UNL     1      34.470 -24.290 -13.816  0.00  0.00    +0.031 C 
BRANCH   8   9
ATOM      9  N   UNL     1      34.465 -23.472 -12.577  0.00  0.00    +0.389 N 
ATOM     10  H   UNL     1      33.642 -23.703 -12.021  0.00  0.00    -0.088 HD
ATOM     11  H   UNL     1      34.443 -22.483 -12.823  0.00  0.00    -0.088 HD
ATOM     12  H   UNL     1      35.308 -23.668 -12.037  0.00  0.00    -0.088 HD
ENDBRANCH   8   9
BRANCH   8  13
ATOM     13  C   UNL     1      33.017 -24.395 -14.392  0.00  0.00    +0.099 C 
ATOM     14  C   UNL     1      32.134 -23.174 -14.147  0.00  0.00    +0.030 C 
BRANCH  13  15
ATOM     15  O   UNL     1      32.392 -25.513 -13.756  0.00  0.00    -0.386 OA
ATOM     16  H   UNL     1      31.503 -25.638 -14.122  0.00  0.00    +0.210 HD
ENDBRANCH  13  15
ENDBRANCH   8  13
ENDBRANCH   3   8
BRANCH   4  17
ATOM     17  C   UNL     1      36.509 -22.120 -17.769  0.00  0.00    +0.086 C 
BRANCH  17  20
ATOM     18  F   UNL     1      37.002 -19.929 -19.976  0.00  0.00    -0.204 F 
ATOM     19  N   UNL     1      33.055 -22.104 -18.953  0.00  0.00    -0.312 N 
ATOM     20  C   UNL     1      35.203 -21.916 -18.429  0.00  0.00    +0.003 C 
ATOM     21  C   UNL     1      34.925 -21.017 -19.497  0.00  0.00    +0.039 C 
ATOM     22  C   UNL     1      33.570 -21.156 -19.806  0.00  0.00    +0.050 C 
ATOM     23  C   UNL     1      34.034 -22.570 -18.117  0.00  0.00    +0.058 C 
ATOM     24  C   UNL     1      35.699 -20.098 -20.233  0.00  0.00    +0.141 C 
ATOM     25  C   UNL     1      32.948 -20.417 -20.819  0.00  0.00    +0.015 C 
ATOM     26  C   UNL     1      35.089 -19.352 -21.249  0.00  0.00    +0.030 C 
ATOM     27  C   UNL     1      33.734 -19.510 -21.535  0.00  0.00    +0.004 C 
ATOM     28  H   UNL     1      32.117 -22.404 -18.944  0.00  0.00    +0.152 HD
ENDBRANCH  17  20
ENDBRANCH   4  17
BRANCH   1  29
ATOM     29  C   UNL     1      37.446 -24.701 -13.558  0.00  0.00    +0.205 C 
BRANCH  29  31
ATOM     30  O   UNL     1      38.312 -26.686 -14.674  0.00  0.00    -0.248 OA
ATOM     31  C   UNL     1      37.590 -26.173 -13.832  0.00  0.00    +0.334 C 
BRANCH  31  32
ATOM     32  O   UNL     1      36.787 -26.880 -12.997  0.00  0.00    -0.479 OA
ATOM     33  H   UNL     1      36.807 -27.816 -13.009  0.00  0.00    +0.295 HD
ENDBRANCH  31  32
ENDBRANCH  29  31
ENDBRANCH   1  29
TORSDOF 10
ENDMDL
MODEL 4
REMARK VINA RESULT:      -9.0     14.424     16.134
REMARK  Name = 17753789
REMARK  10 active torsions:
REMARK  status: ('A' for Active; 'I' for Inactive)
REMARK    1  A    between atoms: N_1  and  C_29
REMARK    2  A    between atoms: C_3  and  C_8
REMARK    3  A    between atoms: C_4  and  C_17
REMARK    4  A    between atoms: C_5  and  O_6
REMARK    5  A    between atoms: C_8  and  N_9
REMARK    6  A    between atoms: C_8  and  C_13
REMARK    7  A    between atoms: C_13  and  O_15
REMARK    8  A    between atoms: C_17  and  C_20
REMARK    9  A    between atoms: C_29  and  C_31
REMARK   10  A    between atoms: C_31  and  O_32
REMARK                            x       y       z     vdW  Elec       q    Type
REMARK                         _______ _______ _______ _____ _____    ______ ____
ROOT
ATOM      1  N   UNL     1      33.184 -13.658 -23.456  0.00  0.00    -0.251 N 
ATOM      2  N   UNL     1      32.574 -11.525 -23.346  0.00  0.00    -0.398 NA
ATOM      3  C   UNL     1      33.315 -12.404 -23.984  0.00  0.00    +0.143 C 
ATOM      4  C   UNL     1      31.942 -12.248 -22.366  0.00  0.00    +0.139 C 
ATOM      5  C   UNL     1      32.304 -13.574 -22.414  0.00  0.00    +0.241 C 
ENDROOT
BRANCH   5   6
ATOM      6  O   UNL     1      31.962 -14.626 -21.687  0.00  0.00    -0.362 OA
ATOM      7  H   UNL     1      31.649 -14.508 -20.811  0.00  0.00    +0.213 HD
ENDBRANCH   5   6
BRANCH   3   8
ATOM      8  C   UNL     1      34.195 -12.121 -25.136  0.00  0.00    +0.031 C 
BRANCH   8   9
ATOM      9  N   UNL     1      33.568 -12.522 -26.421  0.00  0.00    +0.389 N 
ATOM     10  H   UNL     1      34.247 -13.027 -26.988  0.00  0.00    -0.088 HD
ATOM     11  H   UNL     1      33.258 -11.689 -26.921  0.00  0.00    -0.088 HD
ATOM     12  H   UNL     1      32.765 -13.123 -26.234  0.00  0.00    -0.088 HD
ENDBRANCH   8   9
BRANCH   8  13
ATOM     13  C   UNL     1      34.663 -10.628 -25.214  0.00  0.00    +0.099 C 
ATOM     14  C   UNL     1      35.705 -10.331 -26.292  0.00  0.00    +0.030 C 
BRANCH  13  15
ATOM     15  O   UNL     1      35.248 -10.303 -23.950  0.00  0.00    -0.386 OA
ATOM     16  H   UNL     1      34.631  -9.756 -23.440  0.00  0.00    +0.210 HD
ENDBRANCH  13  15
ENDBRANCH   8  13
ENDBRANCH   3   8
BRANCH   4  17
ATOM     17  C   UNL     1      30.988 -11.570 -21.409  0.00  0.00    +0.086 C 
BRANCH  17  20
ATOM     18  F   UNL     1      30.804  -9.101 -23.353  0.00  0.00    -0.204 F 
ATOM     19  N   UNL     1      32.582  -9.244 -19.090  0.00  0.00    -0.312 N 
ATOM     20  C   UNL     1      31.595 -10.439 -20.678  0.00  0.00    +0.003 C 
ATOM     21  C   UNL     1      31.741  -9.105 -21.152  0.00  0.00    +0.039 C 
ATOM     22  C   UNL     1      32.363  -8.376 -20.135  0.00  0.00    +0.050 C 
ATOM     23  C   UNL     1      32.120 -10.494 -19.408  0.00  0.00    +0.058 C 
ATOM     24  C   UNL     1      31.403  -8.446 -22.349  0.00  0.00    +0.141 C 
ATOM     25  C   UNL     1      32.664  -7.015 -20.258  0.00  0.00    +0.015 C 
ATOM     26  C   UNL     1      31.698  -7.084 -22.487  0.00  0.00    +0.030 C 
ATOM     27  C   UNL     1      32.320  -6.382 -21.456  0.00  0.00    +0.004 C 
ATOM     28  H   UNL     1      33.009  -9.002 -18.236  0.00  0.00    +0.152 HD
ENDBRANCH  17  20
ENDBRANCH   4  17
BRANCH   1  29
ATOM     29  C   UNL     1      33.853 -14.855 -23.913  0.00  0.00    +0.205 C 
BRANCH  29  31
ATOM     30  O   UNL     1      34.811 -15.165 -21.694  0.00  0.00    -0.248 OA
ATOM     31  C   UNL     1      34.820 -15.395 -22.894  0.00  0.00    +0.334 C 
BRANCH  31  32
ATOM     32  O   UNL     1      35.733 -16.194 -23.502  0.00  0.00    -0.479 OA
ATOM     33  H   UNL     1      36.060 -16.953 -23.060  0.00  0.00    +0.295 HD
ENDBRANCH  31  32
ENDBRANCH  29  31
ENDBRANCH   1  29
TORSDOF 10
ENDMDL
MODEL 5
REMARK VINA RESULT:      -8.9     13.386     15.437
REMARK  Name = 17753789
REMARK  10 active torsions:
REMARK  status: ('A' for Active; 'I' for Inactive)
REMARK    1  A    between atoms: N_1  and  C_29
REMARK    2  A    between atoms: C_3  and  C_8
REMARK    3  A    between atoms: C_4  and  C_17
REMARK    4  A    between atoms: C_5  and  O_6
REMARK    5  A    between atoms: C_8  and  N_9
REMARK    6  A    between atoms: C_8  and  C_13
REMARK    7  A    between atoms: C_13  and  O_15
REMARK    8  A    between atoms: C_17  and  C_20
REMARK    9  A    between atoms: C_29  and  C_31
REMARK   10  A    between atoms: C_31  and  O_32
REMARK                            x       y       z     vdW  Elec       q    Type
REMARK                         _______ _______ _______ _____ _____    ______ ____
ROOT
ATOM      1  N   UNL     1      32.904 -10.608 -23.517  0.00  0.00    -0.251 N 
ATOM      2  N   UNL     1      32.534 -12.601 -22.608  0.00  0.00    -0.398 NA
ATOM      3  C   UNL     1      32.242 -11.320 -22.555  0.00  0.00    +0.143 C 
ATOM      4  C   UNL     1      33.422 -12.713 -23.649  0.00  0.00    +0.139 C 
ATOM      5  C   UNL     1      33.667 -11.490 -24.228  0.00  0.00    +0.241 C 
ENDROOT
BRANCH   5   6
ATOM      6  O   UNL     1      34.434 -11.111 -25.238  0.00  0.00    -0.362 OA
ATOM      7  H   UNL     1      34.045 -10.799 -26.031  0.00  0.00    +0.213 HD
ENDBRANCH   5   6
BRANCH   3   8
ATOM      8  C   UNL     1      31.318 -10.681 -21.596  0.00  0.00    +0.031 C 
BRANCH   8   9
ATOM      9  N   UNL     1      30.157 -11.552 -21.285  0.00  0.00    +0.389 N 
ATOM     10  H   UNL     1      29.887 -11.425 -20.310  0.00  0.00    -0.088 HD
ATOM     11  H   UNL     1      30.412 -12.527 -21.444  0.00  0.00    -0.088 HD
ATOM     12  H   UNL     1      29.374 -11.304 -21.891  0.00  0.00    -0.088 HD
ENDBRANCH   8   9
BRANCH   8  13
ATOM     13  C   UNL     1      32.013 -10.226 -20.268  0.00  0.00    +0.099 C 
ATOM     14  C   UNL     1      31.371 -10.754 -18.986  0.00  0.00    +0.030 C 
BRANCH  13  15
ATOM     15  O   UNL     1      31.947  -8.798 -20.225  0.00  0.00    -0.386 OA
ATOM     16  H   UNL     1      32.807  -8.426 -20.475  0.00  0.00    +0.210 HD
ENDBRANCH  13  15
ENDBRANCH   8  13
ENDBRANCH   3   8
BRANCH   4  17
ATOM     17  C   UNL     1      33.996 -14.060 -24.024  0.00  0.00    +0.086 C 
BRANCH  17  20
ATOM     18  F   UNL     1      34.594 -16.926 -25.184  0.00  0.00    -0.204 F 
ATOM     19  N   UNL     1      34.686 -15.564 -20.769  0.00  0.00    -0.312 N 
ATOM     20  C   UNL     1      34.319 -14.906 -22.856  0.00  0.00    +0.003 C 
ATOM     21  C   UNL     1      34.659 -16.288 -22.879  0.00  0.00    +0.039 C 
ATOM     22  C   UNL     1      34.885 -16.675 -21.556  0.00  0.00    +0.050 C 
ATOM     23  C   UNL     1      34.344 -14.489 -21.545  0.00  0.00    +0.058 C 
ATOM     24  C   UNL     1      34.798 -17.247 -23.900  0.00  0.00    +0.141 C 
ATOM     25  C   UNL     1      35.244 -17.981 -21.203  0.00  0.00    +0.015 C 
ATOM     26  C   UNL     1      35.158 -18.558 -23.561  0.00  0.00    +0.030 C 
ATOM     27  C   UNL     1      35.376 -18.916 -22.232  0.00  0.00    +0.004 C 
ATOM     28  H   UNL     1      34.776 -15.544 -19.788  0.00  0.00    +0.152 HD
ENDBRANCH  17  20
ENDBRANCH   4  17
BRANCH   1  29
ATOM     29  C   UNL     1      32.815  -9.182 -23.742  0.00  0.00    +0.205 C 
BRANCH  29  31
ATOM     30  O   UNL     1      35.159  -8.525 -23.683  0.00  0.00    -0.248 OA
ATOM     31  C   UNL     1      34.025  -8.446 -23.236  0.00  0.00    +0.334 C 
BRANCH  31  32
ATOM     32  O   UNL     1      33.682  -7.659 -22.185  0.00  0.00    -0.479 OA
ATOM     33  H   UNL     1      33.867  -6.741 -22.207  0.00  0.00    +0.295 HD
ENDBRANCH  31  32
ENDBRANCH  29  31
ENDBRANCH   1  29
TORSDOF 10
ENDMDL
MODEL 6
REMARK VINA RESULT:      -8.9     10.035     11.978
REMARK  Name = 17753789
REMARK  10 active torsions:
REMARK  status: ('A' for Active; 'I' for Inactive)
REMARK    1  A    between atoms: N_1  and  C_29
REMARK    2  A    between atoms: C_3  and  C_8
REMARK    3  A    between atoms: C_4  and  C_17
REMARK    4  A    between atoms: C_5  and  O_6
REMARK    5  A    between atoms: C_8  and  N_9
REMARK    6  A    between atoms: C_8  and  C_13
REMARK    7  A    between atoms: C_13  and  O_15
REMARK    8  A    between atoms: C_17  and  C_20
REMARK    9  A    between atoms: C_29  and  C_31
REMARK   10  A    between atoms: C_31  and  O_32
REMARK                            x       y       z     vdW  Elec       q    Type
REMARK                         _______ _______ _______ _____ _____    ______ ____
ROOT
ATOM      1  N   UNL     1      34.249 -15.257 -22.218  0.00  0.00    -0.251 N 
ATOM      2  N   UNL     1      34.351 -16.859 -23.753  0.00  0.00    -0.398 NA
ATOM      3  C   UNL     1      34.002 -15.615 -23.514  0.00  0.00    +0.143 C 
ATOM      4  C   UNL     1      34.843 -17.319 -22.556  0.00  0.00    +0.139 C 
ATOM      5  C   UNL     1      34.790 -16.343 -21.589  0.00  0.00    +0.241 C 
ENDROOT
BRANCH   5   6
ATOM      6  O   UNL     1      35.144 -16.322 -20.313  0.00  0.00    -0.362 OA
ATOM      7  H   UNL     1      35.935 -15.892 -20.054  0.00  0.00    +0.213 HD
ENDBRANCH   5   6
BRANCH   3   8
ATOM      8  C   UNL     1      33.412 -14.678 -24.492  0.00  0.00    +0.031 C 
BRANCH   8   9
ATOM      9  N   UNL     1      33.862 -13.282 -24.258  0.00  0.00    +0.389 N 
ATOM     10  H   UNL     1      34.124 -13.169 -23.279  0.00  0.00    -0.088 HD
ATOM     11  H   UNL     1      33.104 -12.639 -24.484  0.00  0.00    -0.088 HD
ATOM     12  H   UNL     1      34.667 -13.080 -24.852  0.00  0.00    -0.088 HD
ENDBRANCH   8   9
BRANCH   8  13
ATOM     13  C   UNL     1      33.677 -15.080 -25.982  0.00  0.00    +0.099 C 
ATOM     14  C   UNL     1      33.243 -14.047 -27.020  0.00  0.00    +0.030 C 
BRANCH  13  15
ATOM     15  O   UNL     1      32.937 -16.279 -26.233  0.00  0.00    -0.386 OA
ATOM     16  H   UNL     1      33.487 -17.049 -26.022  0.00  0.00    +0.210 HD
ENDBRANCH  13  15
ENDBRANCH   8  13
ENDBRANCH   3   8
BRANCH   4  17
ATOM     17  C   UNL     1      35.353 -18.737 -22.432  0.00  0.00    +0.086 C 
BRANCH  17  20
ATOM     18  F   UNL     1      37.403 -20.145 -20.501  0.00  0.00    -0.204 F 
ATOM     19  N   UNL     1      32.800 -20.556 -20.560  0.00  0.00    -0.312 N 
ATOM     20  C   UNL     1      34.540 -19.575 -21.527  0.00  0.00    +0.003 C 
ATOM     21  C   UNL     1      35.024 -20.404 -20.476  0.00  0.00    +0.039 C 
ATOM     22  C   UNL     1      33.911 -21.008 -19.886  0.00  0.00    +0.050 C 
ATOM     23  C   UNL     1      33.169 -19.689 -21.553  0.00  0.00    +0.058 C 
ATOM     24  C   UNL     1      36.305 -20.699 -19.970  0.00  0.00    +0.141 C 
ATOM     25  C   UNL     1      34.017 -21.896 -18.809  0.00  0.00    +0.015 C 
ATOM     26  C   UNL     1      36.426 -21.586 -18.893  0.00  0.00    +0.030 C 
ATOM     27  C   UNL     1      35.298 -22.174 -18.323  0.00  0.00    +0.004 C 
ATOM     28  H   UNL     1      31.873 -20.819 -20.357  0.00  0.00    +0.152 HD
ENDBRANCH  17  20
ENDBRANCH   4  17
BRANCH   1  29
ATOM     29  C   UNL     1      33.987 -13.968 -21.619  0.00  0.00    +0.205 C 
BRANCH  29  31
ATOM     30  O   UNL     1      32.283 -14.419 -19.937  0.00  0.00    -0.248 OA
ATOM     31  C   UNL     1      32.623 -13.896 -20.988  0.00  0.00    +0.334 C 
BRANCH  31  32
ATOM     32  O   UNL     1      31.793 -13.154 -21.764  0.00  0.00    -0.479 OA
ATOM     33  H   UNL     1      31.165 -12.583 -21.366  0.00  0.00    +0.295 HD
ENDBRANCH  31  32
ENDBRANCH  29  31
ENDBRANCH   1  29
TORSDOF 10
ENDMDL
MODEL 7
REMARK VINA RESULT:      -8.9      4.769      7.438
REMARK  Name = 17753789
REMARK  10 active torsions:
REMARK  status: ('A' for Active; 'I' for Inactive)
REMARK    1  A    between atoms: N_1  and  C_29
REMARK    2  A    between atoms: C_3  and  C_8
REMARK    3  A    between atoms: C_4  and  C_17
REMARK    4  A    between atoms: C_5  and  O_6
REMARK    5  A    between atoms: C_8  and  N_9
REMARK    6  A    between atoms: C_8  and  C_13
REMARK    7  A    between atoms: C_13  and  O_15
REMARK    8  A    between atoms: C_17  and  C_20
REMARK    9  A    between atoms: C_29  and  C_31
REMARK   10  A    between atoms: C_31  and  O_32
REMARK                            x       y       z     vdW  Elec       q    Type
REMARK                         _______ _______ _______ _____ _____    ______ ____
ROOT
ATOM      1  N   UNL     1      32.522 -23.093 -15.513  0.00  0.00    -0.251 N 
ATOM      2  N   UNL     1      31.887 -22.971 -17.638  0.00  0.00    -0.398 NA
ATOM      3  C   UNL     1      31.476 -23.062 -16.393  0.00  0.00    +0.143 C 
ATOM      4  C   UNL     1      33.257 -22.943 -17.552  0.00  0.00    +0.139 C 
ATOM      5  C   UNL     1      33.674 -23.017 -16.244  0.00  0.00    +0.241 C 
ENDROOT
BRANCH   5   6
ATOM      6  O   UNL     1      34.873 -23.024 -15.682  0.00  0.00    -0.362 OA
ATOM      7  H   UNL     1      35.375 -22.233 -15.640  0.00  0.00    +0.213 HD
ENDBRANCH   5   6
BRANCH   3   8
ATOM      8  C   UNL     1      30.069 -23.124 -15.948  0.00  0.00    +0.031 C 
BRANCH   8   9
ATOM      9  N   UNL     1      29.197 -22.226 -16.747  0.00  0.00    +0.389 N 
ATOM     10  H   UNL     1      29.059 -21.350 -16.244  0.00  0.00    -0.088 HD
ATOM     11  H   UNL     1      28.295 -22.677 -16.900  0.00  0.00    -0.088 HD
ATOM     12  H   UNL     1      29.639 -22.037 -17.647  0.00  0.00    -0.088 HD
ENDBRANCH   8   9
BRANCH   8  13
ATOM     13  C   UNL     1      29.478 -24.575 -15.944  0.00  0.00    +0.099 C 
ATOM     14  C   UNL     1      28.217 -24.764 -16.785  0.00  0.00    +0.030 C 
BRANCH  13  15
ATOM     15  O   UNL     1      29.143 -24.891 -14.590  0.00  0.00    -0.386 OA
ATOM     16  H   UNL     1      29.678 -25.643 -14.291  0.00  0.00    +0.210 HD
ENDBRANCH  13  15
ENDBRANCH   8  13
ENDBRANCH   3   8
BRANCH   4  17
ATOM     17  C   UNL     1      34.101 -22.842 -18.802  0.00  0.00    +0.086 C 
BRANCH  17  20
ATOM     18  F   UNL     1      36.961 -21.676 -19.414  0.00  0.00    -0.204 F 
ATOM     19  N   UNL     1      32.855 -19.930 -20.618  0.00  0.00    -0.312 N 
ATOM     20  C   UNL     1      33.872 -21.599 -19.566  0.00  0.00    +0.003 C 
ATOM     21  C   UNL     1      34.869 -20.716 -20.069  0.00  0.00    +0.039 C 
ATOM     22  C   UNL     1      34.204 -19.678 -20.725  0.00  0.00    +0.050 C 
ATOM     23  C   UNL     1      32.644 -21.088 -19.920  0.00  0.00    +0.058 C 
ATOM     24  C   UNL     1      36.277 -20.703 -20.030  0.00  0.00    +0.141 C 
ATOM     25  C   UNL     1      34.881 -18.622 -21.346  0.00  0.00    +0.015 C 
ATOM     26  C   UNL     1      36.967 -19.652 -20.647  0.00  0.00    +0.030 C 
ATOM     27  C   UNL     1      36.277 -18.629 -21.294  0.00  0.00    +0.004 C 
ATOM     28  H   UNL     1      32.144 -19.358 -20.990  0.00  0.00    +0.152 HD
ENDBRANCH  17  20
ENDBRANCH   4  17
BRANCH   1  29
ATOM     29  C   UNL     1      32.429 -23.188 -14.074  0.00  0.00    +0.205 C 
BRANCH  29  31
ATOM     30  O   UNL     1      31.656 -25.337 -13.228  0.00  0.00    -0.248 OA
ATOM     31  C   UNL     1      32.566 -24.603 -13.583  0.00  0.00    +0.334 C 
BRANCH  31  32
ATOM     32  O   UNL     1      33.873 -24.969 -13.585  0.00  0.00    -0.479 OA
ATOM     33  H   UNL     1      34.222 -25.461 -12.868  0.00  0.00    +0.295 HD
ENDBRANCH  31  32
ENDBRANCH  29  31
ENDBRANCH   1  29
TORSDOF 10
ENDMDL
MODEL 8
REMARK VINA RESULT:      -8.9      4.543      6.597
REMARK  Name = 17753789
REMARK  10 active torsions:
REMARK  status: ('A' for Active; 'I' for Inactive)
REMARK    1  A    between atoms: N_1  and  C_29
REMARK    2  A    between atoms: C_3  and  C_8
REMARK    3  A    between atoms: C_4  and  C_17
REMARK    4  A    between atoms: C_5  and  O_6
REMARK    5  A    between atoms: C_8  and  N_9
REMARK    6  A    between atoms: C_8  and  C_13
REMARK    7  A    between atoms: C_13  and  O_15
REMARK    8  A    between atoms: C_17  and  C_20
REMARK    9  A    between atoms: C_29  and  C_31
REMARK   10  A    between atoms: C_31  and  O_32
REMARK                            x       y       z     vdW  Elec       q    Type
REMARK                         _______ _______ _______ _____ _____    ______ ____
ROOT
ATOM      1  N   UNL     1      34.460 -23.034 -15.537  0.00  0.00    -0.251 N 
ATOM      2  N   UNL     1      32.859 -23.199 -17.067  0.00  0.00    -0.398 NA
ATOM      3  C   UNL     1      33.126 -23.206 -15.780  0.00  0.00    +0.143 C 
ATOM      4  C   UNL     1      34.077 -23.015 -17.674  0.00  0.00    +0.139 C 
ATOM      5  C   UNL     1      35.085 -22.910 -16.745  0.00  0.00    +0.241 C 
ENDROOT
BRANCH   5   6
ATOM      6  O   UNL     1      36.392 -22.731 -16.854  0.00  0.00    -0.362 OA
ATOM      7  H   UNL     1      36.877 -23.205 -17.501  0.00  0.00    +0.213 HD
ENDBRANCH   5   6
BRANCH   3   8
ATOM      8  C   UNL     1      32.141 -23.374 -14.692  0.00  0.00    +0.031 C 
BRANCH   8   9
ATOM      9  N   UNL     1      30.894 -22.611 -14.955  0.00  0.00    +0.389 N 
ATOM     10  H   UNL     1      30.470 -22.942 -15.821  0.00  0.00    -0.088 HD
ATOM     11  H   UNL     1      31.115 -21.619 -15.041  0.00  0.00    -0.088 HD
ATOM     12  H   UNL     1      30.243 -22.748 -14.181  0.00  0.00    -0.088 HD
ENDBRANCH   8   9
BRANCH   8  13
ATOM     13  C   UNL     1      31.795 -24.871 -14.387  0.00  0.00    +0.099 C 
ATOM     14  C   UNL     1      30.305 -25.181 -14.268  0.00  0.00    +0.030 C 
BRANCH  13  15
ATOM     15  O   UNL     1      32.404 -25.197 -13.134  0.00  0.00    -0.386 OA
ATOM     16  H   UNL     1      33.364 -25.075 -13.199  0.00  0.00    +0.210 HD
ENDBRANCH  13  15
ENDBRANCH   8  13
ENDBRANCH   3   8
BRANCH   4  17
ATOM     17  C   UNL     1      34.179 -22.952 -19.182  0.00  0.00    +0.086 C 
BRANCH  17  20
ATOM     18  F   UNL     1      36.927 -21.584 -19.882  0.00  0.00    -0.204 F 
ATOM     19  N   UNL     1      32.670 -19.877 -20.446  0.00  0.00    -0.312 N 
ATOM     20  C   UNL     1      33.836 -21.627 -19.738  0.00  0.00    +0.003 C 
ATOM     21  C   UNL     1      34.752 -20.640 -20.200  0.00  0.00    +0.039 C 
ATOM     22  C   UNL     1      33.993 -19.552 -20.639  0.00  0.00    +0.050 C 
ATOM     23  C   UNL     1      32.564 -21.129 -19.902  0.00  0.00    +0.058 C 
ATOM     24  C   UNL     1      36.155 -20.568 -20.288  0.00  0.00    +0.141 C 
ATOM     25  C   UNL     1      34.572 -18.391 -21.164  0.00  0.00    +0.015 C 
ATOM     26  C   UNL     1      36.748 -19.412 -20.811  0.00  0.00    +0.030 C 
ATOM     27  C   UNL     1      35.966 -18.341 -21.241  0.00  0.00    +0.004 C 
ATOM     28  H   UNL     1      31.908 -19.293 -20.666  0.00  0.00    +0.152 HD
ENDBRANCH  17  20
ENDBRANCH   4  17
BRANCH   1  29
ATOM     29  C   UNL     1      35.097 -22.991 -14.239  0.00  0.00    +0.205 C 
BRANCH  29  31
ATOM     30  O   UNL     1      37.143 -24.191 -13.683  0.00  0.00    -0.248 OA
ATOM     31  C   UNL     1      35.959 -24.198 -13.984  0.00  0.00    +0.334 C 
BRANCH  31  32
ATOM     32  O   UNL     1      35.227 -25.330 -14.140  0.00  0.00    -0.479 OA
ATOM     33  H   UNL     1      34.643 -25.414 -14.868  0.00  0.00    +0.295 HD
ENDBRANCH  31  32
ENDBRANCH  29  31
ENDBRANCH   1  29
TORSDOF 10
ENDMDL
MODEL 9
REMARK VINA RESULT:      -8.6     11.584     13.838
REMARK  Name = 17753789
REMARK  10 active torsions:
REMARK  status: ('A' for Active; 'I' for Inactive)
REMARK    1  A    between atoms: N_1  and  C_29
REMARK    2  A    between atoms: C_3  and  C_8
REMARK    3  A    between atoms: C_4  and  C_17
REMARK    4  A    between atoms: C_5  and  O_6
REMARK    5  A    between atoms: C_8  and  N_9
REMARK    6  A    between atoms: C_8  and  C_13
REMARK    7  A    between atoms: C_13  and  O_15
REMARK    8  A    between atoms: C_17  and  C_20
REMARK    9  A    between atoms: C_29  and  C_31
REMARK   10  A    between atoms: C_31  and  O_32
REMARK                            x       y       z     vdW  Elec       q    Type
REMARK                         _______ _______ _______ _____ _____    ______ ____
ROOT
ATOM      1  N   UNL     1      33.335 -14.875 -24.857  0.00  0.00    -0.251 N 
ATOM      2  N   UNL     1      34.097 -14.932 -22.771  0.00  0.00    -0.398 NA
ATOM      3  C   UNL     1      33.344 -14.278 -23.627  0.00  0.00    +0.143 C 
ATOM      4  C   UNL     1      34.592 -15.995 -23.485  0.00  0.00    +0.139 C 
ATOM      5  C   UNL     1      34.133 -15.981 -24.781  0.00  0.00    +0.241 C 
ENDROOT
BRANCH   5   6
ATOM      6  O   UNL     1      34.336 -16.783 -25.815  0.00  0.00    -0.362 OA
ATOM      7  H   UNL     1      35.083 -17.349 -25.829  0.00  0.00    +0.213 HD
ENDBRANCH   5   6
BRANCH   3   8
ATOM      8  C   UNL     1      32.580 -13.045 -23.343  0.00  0.00    +0.031 C 
BRANCH   8   9
ATOM      9  N   UNL     1      31.677 -13.213 -22.177  0.00  0.00    +0.389 N 
ATOM     10  H   UNL     1      32.051 -12.700 -21.380  0.00  0.00    -0.088 HD
ATOM     11  H   UNL     1      31.607 -14.203 -21.942  0.00  0.00    -0.088 HD
ATOM     12  H   UNL     1      30.750 -12.854 -22.410  0.00  0.00    -0.088 HD
ENDBRANCH   8   9
BRANCH   8  13
ATOM     13  C   UNL     1      33.484 -11.783 -23.139  0.00  0.00    +0.099 C 
ATOM     14  C   UNL     1      32.790 -10.443 -23.375  0.00  0.00    +0.030 C 
BRANCH  13  15
ATOM     15  O   UNL     1      34.562 -11.880 -24.075  0.00  0.00    -0.386 OA
ATOM     16  H   UNL     1      34.877 -10.990 -24.299  0.00  0.00    +0.210 HD
ENDBRANCH  13  15
ENDBRANCH   8  13
ENDBRANCH   3   8
BRANCH   4  17
ATOM     17  C   UNL     1      35.518 -16.994 -22.828  0.00  0.00    +0.086 C 
BRANCH  17  20
ATOM     18  F   UNL     1      37.765 -18.760 -21.507  0.00  0.00    -0.204 F 
ATOM     19  N   UNL     1      33.183 -19.207 -21.101  0.00  0.00    -0.312 N 
ATOM     20  C   UNL     1      34.808 -18.018 -22.035  0.00  0.00    +0.003 C 
ATOM     21  C   UNL     1      35.403 -19.049 -21.254  0.00  0.00    +0.039 C 
ATOM     22  C   UNL     1      34.361 -19.780 -20.679  0.00  0.00    +0.050 C 
ATOM     23  C   UNL     1      33.442 -18.141 -21.920  0.00  0.00    +0.058 C 
ATOM     24  C   UNL     1      36.731 -19.430 -20.981  0.00  0.00    +0.141 C 
ATOM     25  C   UNL     1      34.583 -20.879 -19.841  0.00  0.00    +0.015 C 
ATOM     26  C   UNL     1      36.968 -20.527 -20.143  0.00  0.00    +0.030 C 
ATOM     27  C   UNL     1      35.909 -21.239 -19.584  0.00  0.00    +0.004 C 
ATOM     28  H   UNL     1      32.283 -19.519 -20.850  0.00  0.00    +0.152 HD
ENDBRANCH  17  20
ENDBRANCH   4  17
BRANCH   1  29
ATOM     29  C   UNL     1      32.614 -14.422 -26.025  0.00  0.00    +0.205 C 
BRANCH  29  31
ATOM     30  O   UNL     1      33.476 -12.199 -26.527  0.00  0.00    -0.248 OA
ATOM     31  C   UNL     1      33.378 -13.386 -26.803  0.00  0.00    +0.334 C 
BRANCH  31  32
ATOM     32  O   UNL     1      33.961 -13.958 -27.887  0.00  0.00    -0.479 OA
ATOM     33  H   UNL     1      33.920 -13.532 -28.721  0.00  0.00    +0.295 HD
ENDBRANCH  31  32
ENDBRANCH  29  31
ENDBRANCH   1  29
TORSDOF 10
ENDMDL
