MODEL 1
REMARK VINA RESULT:      -8.8      0.000      0.000
REMARK  Name = 25134251
REMARK  6 active torsions:
REMARK  status: ('A' for Active; 'I' for Inactive)
REMARK    1  A    between atoms: N_1  and  C_18
REMARK    2  A    between atoms: C_3  and  C_12
REMARK    3  A    between atoms: N_11  and  C_14
REMARK    4  A    between atoms: C_14  and  C_15
REMARK    5  A    between atoms: C_15  and  S_16
REMARK    6  A    between atoms: C_18  and  C_20
REMARK                            x       y       z     vdW  Elec       q    Type
REMARK                         _______ _______ _______ _____ _____    ______ ____
ROOT
ATOM      1  N   UNL     1      35.008 -18.142 -22.487  0.00  0.00    +0.387 N 
ATOM      2  N   UNL     1      34.463 -16.326 -24.671  0.00  0.00    +0.388 N 
ATOM      3  C   UNL     1      34.069 -16.010 -23.299  0.00  0.00    -0.005 C 
ATOM      4  C   UNL     1      34.991 -16.688 -22.279  0.00  0.00    -0.090 C 
ATOM      5  C   UNL     1      35.420 -18.458 -23.860  0.00  0.00    -0.101 C 
ATOM      6  C   UNL     1      34.501 -17.774 -24.874  0.00  0.00    -0.104 C 
ATOM      7  H   UNL     1      34.063 -18.499 -22.344  0.00  0.00    -0.079 HD
ATOM      8  H   UNL     1      35.390 -15.938 -24.852  0.00  0.00    -0.084 HD
ATOM      9  H   UNL     1      33.781 -15.921 -25.311  0.00  0.00    -0.084 HD
ENDROOT
BRANCH   3  12
ATOM     10  O   UNL     1      34.539 -13.987 -22.127  0.00  0.00    -0.277 OA
ATOM     11  N   UNL     1      33.769 -13.869 -24.321  0.00  0.00    -0.305 N 
ATOM     12  C   UNL     1      34.165 -14.523 -23.166  0.00  0.00    +0.200 C 
ATOM     13  H   UNL     1      33.489 -14.410 -25.094  0.00  0.00    +0.149 HD
BRANCH  11  14
ATOM     14  C   UNL     1      33.747 -12.429 -24.445  0.00  0.00    +0.101 C 
BRANCH  14  15
ATOM     15  C   UNL     1      33.729 -11.956 -25.892  0.00  0.00    +0.075 C 
BRANCH  15  16
ATOM     16  S   UNL     1      33.327 -13.299 -27.050  0.00  0.00    -0.166 S 
ATOM     17  H   UNL     1      32.744 -12.780 -28.163  0.00  0.00    +0.102 HD
ENDBRANCH  15  16
ENDBRANCH  14  15
ENDBRANCH  11  14
ENDBRANCH   3  12
BRANCH   1  18
ATOM     18  C   UNL     1      35.885 -18.795 -21.517  0.00  0.00    -0.050 C 
BRANCH  18  20
ATOM     19  F   UNL     1      33.177 -22.757 -18.565  0.00  0.00    -0.204 F 
ATOM     20  C   UNL     1      35.161 -19.853 -20.728  0.00  0.00    -0.043 C 
ATOM     21  C   UNL     1      35.885 -20.820 -20.031  0.00  0.00    -0.004 C 
ATOM     22  C   UNL     1      33.766 -19.867 -20.695  0.00  0.00    -0.004 C 
ATOM     23  C   UNL     1      35.215 -21.801 -19.300  0.00  0.00    +0.029 C 
ATOM     24  C   UNL     1      33.096 -20.847 -19.964  0.00  0.00    +0.029 C 
ATOM     25  C   UNL     1      33.820 -21.815 -19.267  0.00  0.00    +0.140 C 
ENDBRANCH  18  20
ENDBRANCH   1  18
TORSDOF 6
ENDMDL
MODEL 2
REMARK VINA RESULT:      -8.5      2.419      2.794
REMARK  Name = 25134251
REMARK  6 active torsions:
REMARK  status: ('A' for Active; 'I' for Inactive)
REMARK    1  A    between atoms: N_1  and  C_18
REMARK    2  A    between atoms: C_3  and  C_12
REMARK    3  A    between atoms: N_11  and  C_14
REMARK    4  A    between atoms: C_14  and  C_15
REMARK    5  A    between atoms: C_15  and  S_16
REMARK    6  A    between atoms: C_18  and  C_20
REMARK                            x       y       z     vdW  Elec       q    Type
REMARK                         _______ _______ _______ _____ _____    ______ ____
ROOT
ATOM      1  N   UNL     1      34.673 -17.334 -22.733  0.00  0.00    +0.387 N 
ATOM      2  N   UNL     1      33.925 -15.417 -24.766  0.00  0.00    +0.388 N 
ATOM      3  C   UNL     1      33.444 -15.299 -23.390  0.00  0.00    -0.005 C 
ATOM      4  C   UNL     1      34.426 -15.926 -22.395  0.00  0.00    -0.090 C 
ATOM      5  C   UNL     1      35.171 -17.451 -24.109  0.00  0.00    -0.101 C 
ATOM      6  C   UNL     1      34.190 -16.817 -25.098  0.00  0.00    -0.104 C 
ATOM      7  H   UNL     1      33.790 -17.840 -22.667  0.00  0.00    -0.079 HD
ATOM      8  H   UNL     1      34.786 -14.880 -24.868  0.00  0.00    -0.084 HD
ATOM      9  H   UNL     1      33.208 -15.059 -25.397  0.00  0.00    -0.084 HD
ENDROOT
BRANCH   3  12
ATOM     10  O   UNL     1      34.059 -13.007 -23.626  0.00  0.00    -0.277 OA
ATOM     11  N   UNL     1      32.272 -13.560 -22.240  0.00  0.00    -0.305 N 
ATOM     12  C   UNL     1      33.306 -13.834 -23.119  0.00  0.00    +0.200 C 
ATOM     13  H   UNL     1      31.734 -14.311 -21.900  0.00  0.00    +0.149 HD
BRANCH  11  14
ATOM     14  C   UNL     1      31.944 -12.223 -21.799  0.00  0.00    +0.101 C 
BRANCH  14  15
ATOM     15  C   UNL     1      31.750 -12.125 -20.291  0.00  0.00    +0.075 C 
BRANCH  15  16
ATOM     16  S   UNL     1      31.569 -10.405 -19.731  0.00  0.00    -0.166 S 
ATOM     17  H   UNL     1      32.092 -10.276 -18.483  0.00  0.00    +0.102 HD
ENDBRANCH  15  16
ENDBRANCH  14  15
ENDBRANCH  11  14
ENDBRANCH   3  12
BRANCH   1  18
ATOM     18  C   UNL     1      35.609 -17.939 -21.788  0.00  0.00    -0.050 C 
BRANCH  18  20
ATOM     19  F   UNL     1      33.368 -22.394 -19.165  0.00  0.00    -0.204 F 
ATOM     20  C   UNL     1      35.010 -19.129 -21.087  0.00  0.00    -0.043 C 
ATOM     21  C   UNL     1      33.624 -19.263 -21.000  0.00  0.00    -0.004 C 
ATOM     22  C   UNL     1      35.842 -20.098 -20.524  0.00  0.00    -0.004 C 
ATOM     23  C   UNL     1      33.069 -20.366 -20.351  0.00  0.00    +0.029 C 
ATOM     24  C   UNL     1      35.287 -21.200 -19.875  0.00  0.00    +0.029 C 
ATOM     25  C   UNL     1      33.901 -21.334 -19.788  0.00  0.00    +0.140 C 
ENDBRANCH  18  20
ENDBRANCH   1  18
TORSDOF 6
ENDMDL
MODEL 3
REMARK VINA RESULT:      -8.3      2.082      2.193
REMARK  Name = 25134251
REMARK  6 active torsions:
REMARK  status: ('A' for Active; 'I' for Inactive)
REMARK    1  A    between atoms: N_1  and  C_18
REMARK    2  A    between atoms: C_3  and  C_12
REMARK    3  A    between atoms: N_11  and  C_14
REMARK    4  A    between atoms: C_14  and  C_15
REMARK    5  A    between atoms: C_15  and  S_16
REMARK    6  A    between atoms: C_18  and  C_20
REMARK                            x       y       z     vdW  Elec       q    Type
REMARK                         _______ _______ _______ _____ _____    ______ ____
ROOT
ATOM      1  N   UNL     1      34.628 -17.366 -22.638  0.00  0.00    +0.387 N 
ATOM      2  N   UNL     1      33.862 -15.278 -24.487  0.00  0.00    +0.388 N 
ATOM      3  C   UNL     1      33.388 -15.285 -23.103  0.00  0.00    -0.005 C 
ATOM      4  C   UNL     1      34.377 -15.996 -22.173  0.00  0.00    -0.090 C 
ATOM      5  C   UNL     1      35.120 -17.357 -24.021  0.00  0.00    -0.101 C 
ATOM      6  C   UNL     1      34.132 -16.641 -24.944  0.00  0.00    -0.104 C 
ATOM      7  H   UNL     1      33.746 -17.880 -22.613  0.00  0.00    -0.079 HD
ATOM      8  H   UNL     1      34.721 -14.730 -24.543  0.00  0.00    -0.084 HD
ATOM      9  H   UNL     1      33.142 -14.867 -25.080  0.00  0.00    -0.084 HD
ENDROOT
BRANCH   3  12
ATOM     10  O   UNL     1      33.894 -12.959 -23.240  0.00  0.00    -0.277 OA
ATOM     11  N   UNL     1      32.338 -13.686 -21.669  0.00  0.00    -0.305 N 
ATOM     12  C   UNL     1      33.245 -13.851 -22.701  0.00  0.00    +0.200 C 
ATOM     13  H   UNL     1      31.876 -14.481 -21.317  0.00  0.00    +0.149 HD
BRANCH  11  14
ATOM     14  C   UNL     1      32.035 -12.400 -21.082  0.00  0.00    +0.101 C 
BRANCH  14  15
ATOM     15  C   UNL     1      31.163 -11.528 -21.975  0.00  0.00    +0.075 C 
BRANCH  15  16
ATOM     16  S   UNL     1      31.936  -9.923 -22.338  0.00  0.00    -0.166 S 
ATOM     17  H   UNL     1      31.250  -8.935 -21.707  0.00  0.00    +0.102 HD
ENDBRANCH  15  16
ENDBRANCH  14  15
ENDBRANCH  11  14
ENDBRANCH   3  12
BRANCH   1  18
ATOM     18  C   UNL     1      35.570 -18.050 -21.754  0.00  0.00    -0.050 C 
BRANCH  18  20
ATOM     19  F   UNL     1      33.158 -22.351 -19.028  0.00  0.00    -0.204 F 
ATOM     20  C   UNL     1      34.926 -19.199 -21.026  0.00  0.00    -0.043 C 
ATOM     21  C   UNL     1      35.719 -20.182 -20.433  0.00  0.00    -0.004 C 
ATOM     22  C   UNL     1      33.535 -19.281 -20.944  0.00  0.00    -0.004 C 
ATOM     23  C   UNL     1      35.122 -21.246 -19.759  0.00  0.00    +0.029 C 
ATOM     24  C   UNL     1      32.938 -20.346 -20.270  0.00  0.00    +0.029 C 
ATOM     25  C   UNL     1      33.731 -21.329 -19.677  0.00  0.00    +0.140 C 
ENDBRANCH  18  20
ENDBRANCH   1  18
TORSDOF 6
ENDMDL
MODEL 4
REMARK VINA RESULT:      -8.3      5.160      8.407
REMARK  Name = 25134251
REMARK  6 active torsions:
REMARK  status: ('A' for Active; 'I' for Inactive)
REMARK    1  A    between atoms: N_1  and  C_18
REMARK    2  A    between atoms: C_3  and  C_12
REMARK    3  A    between atoms: N_11  and  C_14
REMARK    4  A    between atoms: C_14  and  C_15
REMARK    5  A    between atoms: C_15  and  S_16
REMARK    6  A    between atoms: C_18  and  C_20
REMARK                            x       y       z     vdW  Elec       q    Type
REMARK                         _______ _______ _______ _____ _____    ______ ____
ROOT
ATOM      1  N   UNL     1      34.974 -19.906 -21.222  0.00  0.00    +0.387 N 
ATOM      2  N   UNL     1      33.126 -21.147 -19.375  0.00  0.00    +0.388 N 
ATOM      3  C   UNL     1      34.458 -21.703 -19.613  0.00  0.00    -0.005 C 
ATOM      4  C   UNL     1      35.455 -20.617 -20.030  0.00  0.00    -0.090 C 
ATOM      5  C   UNL     1      33.645 -19.334 -20.977  0.00  0.00    -0.101 C 
ATOM      6  C   UNL     1      32.655 -20.422 -20.555  0.00  0.00    -0.104 C 
ATOM      7  H   UNL     1      34.900 -20.577 -21.988  0.00  0.00    -0.079 HD
ATOM      8  H   UNL     1      33.167 -20.506 -18.582  0.00  0.00    -0.084 HD
ATOM      9  H   UNL     1      32.481 -21.911 -19.177  0.00  0.00    -0.084 HD
ENDROOT
BRANCH   3  12
ATOM     10  O   UNL     1      36.060 -22.310 -17.954  0.00  0.00    -0.277 OA
ATOM     11  N   UNL     1      33.833 -22.914 -17.647  0.00  0.00    -0.305 N 
ATOM     12  C   UNL     1      34.889 -22.326 -18.323  0.00  0.00    +0.200 C 
ATOM     13  H   UNL     1      32.934 -22.861 -18.045  0.00  0.00    +0.149 HD
BRANCH  11  14
ATOM     14  C   UNL     1      33.987 -23.604 -16.387  0.00  0.00    +0.101 C 
BRANCH  14  15
ATOM     15  C   UNL     1      32.865 -23.303 -15.403  0.00  0.00    +0.075 C 
BRANCH  15  16
ATOM     16  S   UNL     1      31.244 -23.192 -16.220  0.00  0.00    -0.166 S 
ATOM     17  H   UNL     1      30.270 -23.571 -15.351  0.00  0.00    +0.102 HD
ENDBRANCH  15  16
ENDBRANCH  14  15
ENDBRANCH  11  14
ENDBRANCH   3  12
BRANCH   1  18
ATOM     18  C   UNL     1      35.921 -18.869 -21.625  0.00  0.00    -0.050 C 
BRANCH  18  20
ATOM     19  F   UNL     1      34.019 -15.866 -25.997  0.00  0.00    -0.204 F 
ATOM     20  C   UNL     1      35.413 -18.067 -22.793  0.00  0.00    -0.043 C 
ATOM     21  C   UNL     1      35.053 -18.710 -23.978  0.00  0.00    -0.004 C 
ATOM     22  C   UNL     1      35.302 -16.680 -22.691  0.00  0.00    -0.004 C 
ATOM     23  C   UNL     1      34.583 -17.967 -25.060  0.00  0.00    +0.029 C 
ATOM     24  C   UNL     1      34.831 -15.937 -23.773  0.00  0.00    +0.029 C 
ATOM     25  C   UNL     1      34.472 -16.580 -24.958  0.00  0.00    +0.140 C 
ENDBRANCH  18  20
ENDBRANCH   1  18
TORSDOF 6
ENDMDL
MODEL 5
REMARK VINA RESULT:      -8.1      6.909     10.216
REMARK  Name = 25134251
REMARK  6 active torsions:
REMARK  status: ('A' for Active; 'I' for Inactive)
REMARK    1  A    between atoms: N_1  and  C_18
REMARK    2  A    between atoms: C_3  and  C_12
REMARK    3  A    between atoms: N_11  and  C_14
REMARK    4  A    between atoms: C_14  and  C_15
REMARK    5  A    between atoms: C_15  and  S_16
REMARK    6  A    between atoms: C_18  and  C_20
REMARK                            x       y       z     vdW  Elec       q    Type
REMARK                         _______ _______ _______ _____ _____    ______ ____
ROOT
ATOM      1  N   UNL     1      34.238 -22.611 -17.289  0.00  0.00    +0.387 N 
ATOM      2  N   UNL     1      34.668 -23.357 -14.527  0.00  0.00    +0.388 N 
ATOM      3  C   UNL     1      33.323 -23.137 -15.060  0.00  0.00    -0.005 C 
ATOM      4  C   UNL     1      33.258 -23.429 -16.562  0.00  0.00    -0.090 C 
ATOM      5  C   UNL     1      35.590 -22.845 -16.765  0.00  0.00    -0.101 C 
ATOM      6  C   UNL     1      35.647 -22.558 -15.263  0.00  0.00    -0.104 C 
ATOM      7  H   UNL     1      34.004 -21.628 -17.148  0.00  0.00    -0.079 HD
ATOM      8  H   UNL     1      34.906 -24.345 -14.616  0.00  0.00    -0.084 HD
ATOM      9  H   UNL     1      34.683 -23.077 -13.547  0.00  0.00    -0.084 HD
ENDROOT
BRANCH   3  12
ATOM     10  O   UNL     1      32.711 -24.508 -13.206  0.00  0.00    -0.277 OA
ATOM     11  N   UNL     1      31.277 -24.375 -15.035  0.00  0.00    -0.305 N 
ATOM     12  C   UNL     1      32.420 -24.071 -14.317  0.00  0.00    +0.200 C 
ATOM     13  H   UNL     1      31.154 -23.960 -15.920  0.00  0.00    +0.149 HD
BRANCH  11  14
ATOM     14  C   UNL     1      30.254 -25.272 -14.549  0.00  0.00    +0.101 C 
BRANCH  14  15
ATOM     15  C   UNL     1      28.854 -24.883 -15.006  0.00  0.00    +0.075 C 
BRANCH  15  16
ATOM     16  S   UNL     1      28.875 -23.506 -16.193  0.00  0.00    -0.166 S 
ATOM     17  H   UNL     1      27.646 -22.926 -16.237  0.00  0.00    +0.102 HD
ENDBRANCH  15  16
ENDBRANCH  14  15
ENDBRANCH  11  14
ENDBRANCH   3  12
BRANCH   1  18
ATOM     18  C   UNL     1      34.182 -22.885 -18.723  0.00  0.00    -0.050 C 
BRANCH  18  20
ATOM     19  F   UNL     1      34.173 -18.146 -21.772  0.00  0.00    -0.204 F 
ATOM     20  C   UNL     1      34.179 -21.619 -19.537  0.00  0.00    -0.043 C 
ATOM     21  C   UNL     1      32.973 -20.985 -19.838  0.00  0.00    -0.004 C 
ATOM     22  C   UNL     1      35.383 -21.079 -19.992  0.00  0.00    -0.004 C 
ATOM     23  C   UNL     1      32.971 -19.812 -20.593  0.00  0.00    +0.029 C 
ATOM     24  C   UNL     1      35.381 -19.906 -20.746  0.00  0.00    +0.029 C 
ATOM     25  C   UNL     1      34.175 -19.273 -21.047  0.00  0.00    +0.140 C 
ENDBRANCH  18  20
ENDBRANCH   1  18
TORSDOF 6
ENDMDL
MODEL 6
REMARK VINA RESULT:      -8.1      1.442      1.838
REMARK  Name = 25134251
REMARK  6 active torsions:
REMARK  status: ('A' for Active; 'I' for Inactive)
REMARK    1  A    between atoms: N_1  and  C_18
REMARK    2  A    between atoms: C_3  and  C_12
REMARK    3  A    between atoms: N_11  and  C_14
REMARK    4  A    between atoms: C_14  and  C_15
REMARK    5  A    between atoms: C_15  and  S_16
REMARK    6  A    between atoms: C_18  and  C_20
REMARK                            x       y       z     vdW  Elec       q    Type
REMARK                         _______ _______ _______ _____ _____    ______ ____
ROOT
ATOM      1  N   UNL     1      34.993 -18.092 -22.235  0.00  0.00    +0.387 N 
ATOM      2  N   UNL     1      34.311 -15.900 -23.994  0.00  0.00    +0.388 N 
ATOM      3  C   UNL     1      33.756 -15.998 -22.645  0.00  0.00    -0.005 C 
ATOM      4  C   UNL     1      34.698 -16.755 -21.702  0.00  0.00    -0.090 C 
ATOM      5  C   UNL     1      35.566 -17.992 -23.582  0.00  0.00    -0.101 C 
ATOM      6  C   UNL     1      34.625 -17.229 -24.518  0.00  0.00    -0.104 C 
ATOM      7  H   UNL     1      34.119 -18.615 -22.294  0.00  0.00    -0.079 HD
ATOM      8  H   UNL     1      35.164 -15.341 -23.966  0.00  0.00    -0.084 HD
ATOM      9  H   UNL     1      33.622 -15.460 -24.603  0.00  0.00    -0.084 HD
ENDROOT
BRANCH   3  12
ATOM     10  O   UNL     1      34.047 -14.204 -21.101  0.00  0.00    -0.277 OA
ATOM     11  N   UNL     1      32.807 -13.838 -23.037  0.00  0.00    -0.305 N 
ATOM     12  C   UNL     1      33.572 -14.593 -22.164  0.00  0.00    +0.200 C 
ATOM     13  H   UNL     1      32.480 -14.263 -23.862  0.00  0.00    +0.149 HD
BRANCH  11  14
ATOM     14  C   UNL     1      32.464 -12.455 -22.793  0.00  0.00    +0.101 C 
BRANCH  14  15
ATOM     15  C   UNL     1      33.269 -11.483 -23.644  0.00  0.00    +0.075 C 
BRANCH  15  16
ATOM     16  S   UNL     1      32.771  -9.755 -23.374  0.00  0.00    -0.166 S 
ATOM     17  H   UNL     1      31.429  -9.696 -23.168  0.00  0.00    +0.102 HD
ENDBRANCH  15  16
ENDBRANCH  14  15
ENDBRANCH  11  14
ENDBRANCH   3  12
BRANCH   1  18
ATOM     18  C   UNL     1      35.890 -18.820 -21.340  0.00  0.00    -0.050 C 
BRANCH  18  20
ATOM     19  F   UNL     1      33.231 -22.971 -18.611  0.00  0.00    -0.204 F 
ATOM     20  C   UNL     1      35.180 -19.929 -20.611  0.00  0.00    -0.043 C 
ATOM     21  C   UNL     1      33.787 -20.008 -20.647  0.00  0.00    -0.004 C 
ATOM     22  C   UNL     1      35.914 -20.878 -19.899  0.00  0.00    -0.004 C 
ATOM     23  C   UNL     1      33.129 -21.035 -19.972  0.00  0.00    +0.029 C 
ATOM     24  C   UNL     1      35.256 -21.905 -19.224  0.00  0.00    +0.029 C 
ATOM     25  C   UNL     1      33.864 -21.984 -19.260  0.00  0.00    +0.140 C 
ENDBRANCH  18  20
ENDBRANCH   1  18
TORSDOF 6
ENDMDL
MODEL 7
REMARK VINA RESULT:      -8.1      1.885      2.364
REMARK  Name = 25134251
REMARK  6 active torsions:
REMARK  status: ('A' for Active; 'I' for Inactive)
REMARK    1  A    between atoms: N_1  and  C_18
REMARK    2  A    between atoms: C_3  and  C_12
REMARK    3  A    between atoms: N_11  and  C_14
REMARK    4  A    between atoms: C_14  and  C_15
REMARK    5  A    between atoms: C_15  and  S_16
REMARK    6  A    between atoms: C_18  and  C_20
REMARK                            x       y       z     vdW  Elec       q    Type
REMARK                         _______ _______ _______ _____ _____    ______ ____
ROOT
ATOM      1  N   UNL     1      34.829 -17.298 -22.407  0.00  0.00    +0.387 N 
ATOM      2  N   UNL     1      33.997 -14.621 -21.694  0.00  0.00    +0.388 N 
ATOM      3  C   UNL     1      34.555 -14.922 -23.012  0.00  0.00    -0.005 C 
ATOM      4  C   UNL     1      34.290 -16.377 -23.416  0.00  0.00    -0.090 C 
ATOM      5  C   UNL     1      34.255 -17.006 -21.088  0.00  0.00    -0.101 C 
ATOM      6  C   UNL     1      34.518 -15.551 -20.692  0.00  0.00    -0.104 C 
ATOM      7  H   UNL     1      35.839 -17.164 -22.356  0.00  0.00    -0.079 HD
ATOM      8  H   UNL     1      32.981 -14.705 -21.733  0.00  0.00    -0.084 HD
ATOM      9  H   UNL     1      34.263 -13.672 -21.433  0.00  0.00    -0.084 HD
ENDROOT
BRANCH   3  12
ATOM     10  O   UNL     1      33.123 -14.402 -24.846  0.00  0.00    -0.277 OA
ATOM     11  N   UNL     1      34.246 -12.673 -23.764  0.00  0.00    -0.305 N 
ATOM     12  C   UNL     1      33.885 -13.993 -23.974  0.00  0.00    +0.200 C 
ATOM     13  H   UNL     1      34.867 -12.468 -23.028  0.00  0.00    +0.149 HD
BRANCH  11  14
ATOM     14  C   UNL     1      33.754 -11.581 -24.573  0.00  0.00    +0.101 C 
BRANCH  14  15
ATOM     15  C   UNL     1      34.155 -10.214 -24.035  0.00  0.00    +0.075 C 
BRANCH  15  16
ATOM     16  S   UNL     1      32.767  -9.355 -23.233  0.00  0.00    -0.166 S 
ATOM     17  H   UNL     1      31.966 -10.264 -22.617  0.00  0.00    +0.102 HD
ENDBRANCH  15  16
ENDBRANCH  14  15
ENDBRANCH  11  14
ENDBRANCH   3  12
BRANCH   1  18
ATOM     18  C   UNL     1      34.580 -18.687 -22.787  0.00  0.00    -0.050 C 
BRANCH  18  20
ATOM     19  F   UNL     1      34.637 -22.132 -18.328  0.00  0.00    -0.204 F 
ATOM     20  C   UNL     1      34.595 -19.607 -21.595  0.00  0.00    -0.043 C 
ATOM     21  C   UNL     1      35.811 -20.027 -21.054  0.00  0.00    -0.004 C 
ATOM     22  C   UNL     1      33.394 -20.041 -21.034  0.00  0.00    -0.004 C 
ATOM     23  C   UNL     1      35.825 -20.879 -19.950  0.00  0.00    +0.029 C 
ATOM     24  C   UNL     1      33.408 -20.893 -19.930  0.00  0.00    +0.029 C 
ATOM     25  C   UNL     1      34.623 -21.313 -19.389  0.00  0.00    +0.140 C 
ENDBRANCH  18  20
ENDBRANCH   1  18
TORSDOF 6
ENDMDL
MODEL 8
REMARK VINA RESULT:      -8.0      1.788      2.155
REMARK  Name = 25134251
REMARK  6 active torsions:
REMARK  status: ('A' for Active; 'I' for Inactive)
REMARK    1  A    between atoms: N_1  and  C_18
REMARK    2  A    between atoms: C_3  and  C_12
REMARK    3  A    between atoms: N_11  and  C_14
REMARK    4  A    between atoms: C_14  and  C_15
REMARK    5  A    between atoms: C_15  and  S_16
REMARK    6  A    between atoms: C_18  and  C_20
REMARK                            x       y       z     vdW  Elec       q    Type
REMARK                         _______ _______ _______ _____ _____    ______ ____
ROOT
ATOM      1  N   UNL     1      34.664 -18.405 -22.700  0.00  0.00    +0.387 N 
ATOM      2  N   UNL     1      34.466 -17.762 -25.513  0.00  0.00    +0.388 N 
ATOM      3  C   UNL     1      33.829 -16.930 -24.492  0.00  0.00    -0.005 C 
ATOM      4  C   UNL     1      34.574 -17.011 -23.155  0.00  0.00    -0.090 C 
ATOM      5  C   UNL     1      35.318 -19.235 -23.718  0.00  0.00    -0.101 C 
ATOM      6  C   UNL     1      34.574 -19.146 -25.052  0.00  0.00    -0.104 C 
ATOM      7  H   UNL     1      33.717 -18.757 -22.556  0.00  0.00    -0.079 HD
ATOM      8  H   UNL     1      35.399 -17.399 -25.706  0.00  0.00    -0.084 HD
ATOM      9  H   UNL     1      33.896 -17.739 -26.358  0.00  0.00    -0.084 HD
ENDROOT
BRANCH   3  12
ATOM     10  O   UNL     1      33.923 -15.284 -26.215  0.00  0.00    -0.277 OA
ATOM     11  N   UNL     1      33.839 -14.590 -23.994  0.00  0.00    -0.305 N 
ATOM     12  C   UNL     1      33.863 -15.527 -25.013  0.00  0.00    +0.200 C 
ATOM     13  H   UNL     1      33.789 -14.910 -23.064  0.00  0.00    +0.149 HD
BRANCH  11  14
ATOM     14  C   UNL     1      33.885 -13.165 -24.230  0.00  0.00    +0.101 C 
BRANCH  14  15
ATOM     15  C   UNL     1      32.975 -12.378 -23.298  0.00  0.00    +0.075 C 
BRANCH  15  16
ATOM     16  S   UNL     1      32.340 -13.396 -21.932  0.00  0.00    -0.166 S 
ATOM     17  H   UNL     1      33.202 -13.336 -20.882  0.00  0.00    +0.102 HD
ENDBRANCH  15  16
ENDBRANCH  14  15
ENDBRANCH  11  14
ENDBRANCH   3  12
BRANCH   1  18
ATOM     18  C   UNL     1      35.372 -18.489 -21.425  0.00  0.00    -0.050 C 
BRANCH  18  20
ATOM     19  F   UNL     1      33.990 -23.135 -18.551  0.00  0.00    -0.204 F 
ATOM     20  C   UNL     1      35.003 -19.730 -20.657  0.00  0.00    -0.043 C 
ATOM     21  C   UNL     1      33.661 -20.066 -20.477  0.00  0.00    -0.004 C 
ATOM     22  C   UNL     1      36.004 -20.544 -20.125  0.00  0.00    -0.004 C 
ATOM     23  C   UNL     1      33.319 -21.215 -19.766  0.00  0.00    +0.029 C 
ATOM     24  C   UNL     1      35.661 -21.694 -19.414  0.00  0.00    +0.029 C 
ATOM     25  C   UNL     1      34.319 -22.030 -19.234  0.00  0.00    +0.140 C 
ENDBRANCH  18  20
ENDBRANCH   1  18
TORSDOF 6
ENDMDL
MODEL 9
REMARK VINA RESULT:      -8.0      4.804      8.848
REMARK  Name = 25134251
REMARK  6 active torsions:
REMARK  status: ('A' for Active; 'I' for Inactive)
REMARK    1  A    between atoms: N_1  and  C_18
REMARK    2  A    between atoms: C_3  and  C_12
REMARK    3  A    between atoms: N_11  and  C_14
REMARK    4  A    between atoms: C_14  and  C_15
REMARK    5  A    between atoms: C_15  and  S_16
REMARK    6  A    between atoms: C_18  and  C_20
REMARK                            x       y       z     vdW  Elec       q    Type
REMARK                         _______ _______ _______ _____ _____    ______ ____
ROOT
ATOM      1  N   UNL     1      33.398 -13.094 -23.617  0.00  0.00    +0.387 N 
ATOM      2  N   UNL     1      34.004 -15.908 -23.902  0.00  0.00    +0.388 N 
ATOM      3  C   UNL     1      34.619 -15.096 -22.852  0.00  0.00    -0.005 C 
ATOM      4  C   UNL     1      33.719 -13.923 -22.448  0.00  0.00    -0.090 C 
ATOM      5  C   UNL     1      32.766 -13.906 -24.664  0.00  0.00    -0.101 C 
ATOM      6  C   UNL     1      33.665 -15.079 -25.059  0.00  0.00    -0.104 C 
ATOM      7  H   UNL     1      34.268 -12.711 -23.988  0.00  0.00    -0.079 HD
ATOM      8  H   UNL     1      33.154 -16.338 -23.538  0.00  0.00    -0.084 HD
ATOM      9  H   UNL     1      34.666 -16.626 -24.193  0.00  0.00    -0.084 HD
ENDROOT
BRANCH   3  12
ATOM     10  O   UNL     1      34.860 -15.588 -20.531  0.00  0.00    -0.277 OA
ATOM     11  N   UNL     1      34.990 -17.327 -22.074  0.00  0.00    -0.305 N 
ATOM     12  C   UNL     1      34.826 -16.009 -21.685  0.00  0.00    +0.200 C 
ATOM     13  H   UNL     1      34.942 -17.542 -23.033  0.00  0.00    +0.149 HD
BRANCH  11  14
ATOM     14  C   UNL     1      35.228 -18.403 -21.139  0.00  0.00    +0.101 C 
BRANCH  14  15
ATOM     15  C   UNL     1      34.575 -19.713 -21.559  0.00  0.00    +0.075 C 
BRANCH  15  16
ATOM     16  S   UNL     1      33.099 -20.095 -20.569  0.00  0.00    -0.166 S 
ATOM     17  H   UNL     1      33.391 -19.962 -19.248  0.00  0.00    +0.102 HD
ENDBRANCH  15  16
ENDBRANCH  14  15
ENDBRANCH  11  14
ENDBRANCH   3  12
BRANCH   1  18
ATOM     18  C   UNL     1      32.541 -11.973 -23.238  0.00  0.00    -0.050 C 
BRANCH  18  20
ATOM     19  F   UNL     1      35.127  -7.015 -23.933  0.00  0.00    -0.204 F 
ATOM     20  C   UNL     1      33.232 -10.648 -23.423  0.00  0.00    -0.043 C 
ATOM     21  C   UNL     1      32.750  -9.513 -22.771  0.00  0.00    -0.004 C 
ATOM     22  C   UNL     1      34.353 -10.557 -24.249  0.00  0.00    -0.004 C 
ATOM     23  C   UNL     1      33.391  -8.286 -22.943  0.00  0.00    +0.029 C 
ATOM     24  C   UNL     1      34.993  -9.329 -24.421  0.00  0.00    +0.029 C 
ATOM     25  C   UNL     1      34.512  -8.194 -23.768  0.00  0.00    +0.140 C 
ENDBRANCH  18  20
ENDBRANCH   1  18
TORSDOF 6
ENDMDL
