MODEL 1
REMARK VINA RESULT:      -6.0      0.000      0.000
REMARK  Name = 1808
REMARK  1 active torsions:
REMARK  status: ('A' for Active; 'I' for Inactive)
REMARK    1  A    between atoms: C_3  and  C_10
REMARK                            x       y       z     vdW  Elec       q    Type
REMARK                         _______ _______ _______ _____ _____    ______ ____
ROOT
ATOM      1 BR   UNL     1      34.488 -17.791 -22.093  0.00  0.00    -0.047 Br
ATOM      2  N   UNL     1      36.895 -20.308 -19.847  0.00  0.00    -0.242 NA
ATOM      3  C   UNL     1      34.669 -21.247 -19.792  0.00  0.00    +0.073 C 
ATOM      4  C   UNL     1      34.201 -20.206 -20.587  0.00  0.00    +0.014 C 
ATOM      5  C   UNL     1      36.012 -21.252 -19.453  0.00  0.00    +0.103 C 
ATOM      6  C   UNL     1      35.079 -19.215 -21.013  0.00  0.00    +0.054 C 
ATOM      7  C   UNL     1      36.405 -19.311 -20.620  0.00  0.00    +0.106 C 
ENDROOT
BRANCH   3  10
ATOM      8  O   UNL     1      34.051 -23.500 -19.490  0.00  0.00    -0.270 OA
ATOM      9  N   UNL     1      32.603 -21.914 -18.685  0.00  0.00    -0.325 N 
ATOM     10  C   UNL     1      33.776 -22.296 -19.331  0.00  0.00    +0.244 C 
ATOM     11  H   UNL     1      31.975 -22.599 -18.360  0.00  0.00    +0.145 HD
ATOM     12  H   UNL     1      32.403 -20.959 -18.554  0.00  0.00    +0.145 HD
ENDBRANCH   3  10
TORSDOF 1
ENDMDL
MODEL 2
REMARK VINA RESULT:      -5.8      1.483      2.516
REMARK  Name = 1808
REMARK  1 active torsions:
REMARK  status: ('A' for Active; 'I' for Inactive)
REMARK    1  A    between atoms: C_3  and  C_10
REMARK                            x       y       z     vdW  Elec       q    Type
REMARK                         _______ _______ _______ _____ _____    ______ ____
ROOT
ATOM      1 BR   UNL     1      35.672 -18.432 -22.512  0.00  0.00    -0.047 Br
ATOM      2  N   UNL     1      32.640 -20.409 -20.494  0.00  0.00    -0.242 NA
ATOM      3  C   UNL     1      34.724 -21.180 -19.543  0.00  0.00    +0.073 C 
ATOM      4  C   UNL     1      35.434 -20.359 -20.411  0.00  0.00    +0.014 C 
ATOM      5  C   UNL     1      33.341 -21.170 -19.624  0.00  0.00    +0.103 C 
ATOM      6  C   UNL     1      34.749 -19.562 -21.322  0.00  0.00    +0.054 C 
ATOM      7  C   UNL     1      33.364 -19.622 -21.323  0.00  0.00    +0.106 C 
ENDROOT
BRANCH   3  10
ATOM      8  O   UNL     1      34.829 -22.964 -18.007  0.00  0.00    -0.270 OA
ATOM      9  N   UNL     1      36.755 -21.762 -18.329  0.00  0.00    -0.325 N 
ATOM     10  C   UNL     1      35.411 -22.025 -18.581  0.00  0.00    +0.244 C 
ATOM     11  H   UNL     1      37.252 -22.314 -17.684  0.00  0.00    +0.145 HD
ATOM     12  H   UNL     1      37.209 -21.024 -18.798  0.00  0.00    +0.145 HD
ENDBRANCH   3  10
TORSDOF 1
ENDMDL
MODEL 3
REMARK VINA RESULT:      -5.8      6.576      7.741
REMARK  Name = 1808
REMARK  1 active torsions:
REMARK  status: ('A' for Active; 'I' for Inactive)
REMARK    1  A    between atoms: C_3  and  C_10
REMARK                            x       y       z     vdW  Elec       q    Type
REMARK                         _______ _______ _______ _____ _____    ______ ____
ROOT
ATOM      1 BR   UNL     1      35.697 -18.174 -22.544  0.00  0.00    -0.047 Br
ATOM      2  N   UNL     1      33.941 -16.486 -25.897  0.00  0.00    -0.242 NA
ATOM      3  C   UNL     1      33.752 -14.858 -24.122  0.00  0.00    +0.073 C 
ATOM      4  C   UNL     1      34.397 -15.724 -23.247  0.00  0.00    +0.014 C 
ATOM      5  C   UNL     1      33.550 -15.282 -25.424  0.00  0.00    +0.103 C 
ATOM      6  C   UNL     1      34.816 -16.972 -23.695  0.00  0.00    +0.054 C 
ATOM      7  C   UNL     1      34.567 -17.303 -25.018  0.00  0.00    +0.106 C 
ENDROOT
BRANCH   3  10
ATOM      8  O   UNL     1      32.267 -13.407 -23.008  0.00  0.00    -0.270 OA
ATOM      9  N   UNL     1      34.082 -12.445 -24.027  0.00  0.00    -0.325 N 
ATOM     10  C   UNL     1      33.303 -13.547 -23.683  0.00  0.00    +0.244 C 
ATOM     11  H   UNL     1      33.808 -11.542 -23.747  0.00  0.00    +0.145 HD
ATOM     12  H   UNL     1      34.907 -12.570 -24.550  0.00  0.00    +0.145 HD
ENDBRANCH   3  10
TORSDOF 1
ENDMDL
MODEL 4
REMARK VINA RESULT:      -5.8      4.489      5.511
REMARK  Name = 1808
REMARK  1 active torsions:
REMARK  status: ('A' for Active; 'I' for Inactive)
REMARK    1  A    between atoms: C_3  and  C_10
REMARK                            x       y       z     vdW  Elec       q    Type
REMARK                         _______ _______ _______ _____ _____    ______ ____
ROOT
ATOM      1 BR   UNL     1      33.147 -14.100 -24.957  0.00  0.00    -0.047 Br
ATOM      2  N   UNL     1      34.834 -17.881 -24.797  0.00  0.00    -0.242 NA
ATOM      3  C   UNL     1      34.865 -17.012 -22.542  0.00  0.00    +0.073 C 
ATOM      4  C   UNL     1      34.271 -15.834 -22.979  0.00  0.00    +0.014 C 
ATOM      5  C   UNL     1      35.125 -17.996 -23.482  0.00  0.00    +0.103 C 
ATOM      6  C   UNL     1      33.957 -15.678 -24.325  0.00  0.00    +0.054 C 
ATOM      7  C   UNL     1      34.256 -16.722 -25.186  0.00  0.00    +0.106 C 
ENDROOT
BRANCH   3  10
ATOM      8  O   UNL     1      35.067 -16.293 -20.307  0.00  0.00    -0.270 OA
ATOM      9  N   UNL     1      35.677 -18.458 -20.756  0.00  0.00    -0.325 N 
ATOM     10  C   UNL     1      35.205 -17.206 -21.143  0.00  0.00    +0.244 C 
ATOM     11  H   UNL     1      35.916 -18.624 -19.816  0.00  0.00    +0.145 HD
ATOM     12  H   UNL     1      35.769 -19.176 -21.423  0.00  0.00    +0.145 HD
ENDBRANCH   3  10
TORSDOF 1
ENDMDL
MODEL 5
REMARK VINA RESULT:      -5.8      4.373      5.489
REMARK  Name = 1808
REMARK  1 active torsions:
REMARK  status: ('A' for Active; 'I' for Inactive)
REMARK    1  A    between atoms: C_3  and  C_10
REMARK                            x       y       z     vdW  Elec       q    Type
REMARK                         _______ _______ _______ _____ _____    ______ ____
ROOT
ATOM      1 BR   UNL     1      33.347 -20.402 -20.417  0.00  0.00    -0.047 Br
ATOM      2  N   UNL     1      35.322 -18.430 -23.481  0.00  0.00    -0.242 NA
ATOM      3  C   UNL     1      34.676 -16.744 -21.874  0.00  0.00    +0.073 C 
ATOM      4  C   UNL     1      34.092 -17.719 -21.073  0.00  0.00    +0.014 C 
ATOM      5  C   UNL     1      35.273 -17.147 -23.057  0.00  0.00    +0.103 C 
ATOM      6  C   UNL     1      34.122 -19.050 -21.474  0.00  0.00    +0.054 C 
ATOM      7  C   UNL     1      34.745 -19.351 -22.676  0.00  0.00    +0.106 C 
ENDROOT
BRANCH   3  10
ATOM      8  O   UNL     1      34.856 -14.998 -20.302  0.00  0.00    -0.270 OA
ATOM      9  N   UNL     1      34.437 -14.395 -22.475  0.00  0.00    -0.325 N 
ATOM     10  C   UNL     1      34.661 -15.345 -21.482  0.00  0.00    +0.244 C 
ATOM     11  H   UNL     1      34.420 -13.438 -22.246  0.00  0.00    +0.145 HD
ATOM     12  H   UNL     1      34.297 -14.681 -23.407  0.00  0.00    +0.145 HD
ENDBRANCH   3  10
TORSDOF 1
ENDMDL
MODEL 6
REMARK VINA RESULT:      -5.7      3.309      4.422
REMARK  Name = 1808
REMARK  1 active torsions:
REMARK  status: ('A' for Active; 'I' for Inactive)
REMARK    1  A    between atoms: C_3  and  C_10
REMARK                            x       y       z     vdW  Elec       q    Type
REMARK                         _______ _______ _______ _____ _____    ______ ____
ROOT
ATOM      1 BR   UNL     1      36.468 -21.696 -18.601  0.00  0.00    -0.047 Br
ATOM      2  N   UNL     1      32.723 -20.840 -20.155  0.00  0.00    -0.242 NA
ATOM      3  C   UNL     1      34.318 -19.557 -21.442  0.00  0.00    +0.073 C 
ATOM      4  C   UNL     1      35.360 -20.072 -20.679  0.00  0.00    +0.014 C 
ATOM      5  C   UNL     1      33.029 -19.968 -21.142  0.00  0.00    +0.103 C 
ATOM      6  C   UNL     1      35.086 -20.972 -19.654  0.00  0.00    +0.054 C 
ATOM      7  C   UNL     1      33.763 -21.321 -19.435  0.00  0.00    +0.106 C 
ENDROOT
BRANCH   3  10
ATOM      8  O   UNL     1      34.627 -17.390 -22.312  0.00  0.00    -0.270 OA
ATOM      9  N   UNL     1      34.772 -19.132 -23.797  0.00  0.00    -0.325 N 
ATOM     10  C   UNL     1      34.572 -18.617 -22.519  0.00  0.00    +0.244 C 
ATOM     11  H   UNL     1      34.947 -18.523 -24.551  0.00  0.00    +0.145 HD
ATOM     12  H   UNL     1      34.739 -20.104 -23.947  0.00  0.00    +0.145 HD
ENDBRANCH   3  10
TORSDOF 1
ENDMDL
MODEL 7
REMARK VINA RESULT:      -5.6      3.661      4.753
REMARK  Name = 1808
REMARK  1 active torsions:
REMARK  status: ('A' for Active; 'I' for Inactive)
REMARK    1  A    between atoms: C_3  and  C_10
REMARK                            x       y       z     vdW  Elec       q    Type
REMARK                         _______ _______ _______ _____ _____    ______ ____
ROOT
ATOM      1 BR   UNL     1      33.081 -20.729 -20.082  0.00  0.00    -0.047 Br
ATOM      2  N   UNL     1      36.745 -19.088 -21.108  0.00  0.00    -0.242 NA
ATOM      3  C   UNL     1      35.201 -18.493 -22.869  0.00  0.00    +0.073 C 
ATOM      4  C   UNL     1      34.179 -19.169 -22.214  0.00  0.00    +0.014 C 
ATOM      5  C   UNL     1      36.455 -18.482 -22.281  0.00  0.00    +0.103 C 
ATOM      6  C   UNL     1      34.438 -19.806 -21.004  0.00  0.00    +0.054 C 
ATOM      7  C   UNL     1      35.726 -19.736 -20.498  0.00  0.00    +0.106 C 
ENDROOT
BRANCH   3  10
ATOM      8  O   UNL     1      34.431 -18.406 -25.095  0.00  0.00    -0.270 OA
ATOM      9  N   UNL     1      35.331 -16.479 -24.235  0.00  0.00    -0.325 N 
ATOM     10  C   UNL     1      34.962 -17.818 -24.134  0.00  0.00    +0.244 C 
ATOM     11  H   UNL     1      35.183 -15.991 -25.077  0.00  0.00    +0.145 HD
ATOM     12  H   UNL     1      35.738 -16.021 -23.465  0.00  0.00    +0.145 HD
ENDBRANCH   3  10
TORSDOF 1
ENDMDL
MODEL 8
REMARK VINA RESULT:      -5.6      5.670      6.814
REMARK  Name = 1808
REMARK  1 active torsions:
REMARK  status: ('A' for Active; 'I' for Inactive)
REMARK    1  A    between atoms: C_3  and  C_10
REMARK                            x       y       z     vdW  Elec       q    Type
REMARK                         _______ _______ _______ _____ _____    ______ ____
ROOT
ATOM      1 BR   UNL     1      35.233 -18.596 -23.542  0.00  0.00    -0.047 Br
ATOM      2  N   UNL     1      34.907 -16.051 -20.288  0.00  0.00    -0.242 NA
ATOM      3  C   UNL     1      34.007 -14.863 -22.191  0.00  0.00    +0.073 C 
ATOM      4  C   UNL     1      34.275 -15.954 -23.010  0.00  0.00    +0.014 C 
ATOM      5  C   UNL     1      34.339 -14.960 -20.850  0.00  0.00    +0.103 C 
ATOM      6  C   UNL     1      34.858 -17.095 -22.469  0.00  0.00    +0.054 C 
ATOM      7  C   UNL     1      35.152 -17.094 -21.115  0.00  0.00    +0.106 C 
ENDROOT
BRANCH   3  10
ATOM      8  O   UNL     1      32.270 -13.280 -22.359  0.00  0.00    -0.270 OA
ATOM      9  N   UNL     1      34.128 -12.919 -23.655  0.00  0.00    -0.325 N 
ATOM     10  C   UNL     1      33.399 -13.657 -22.726  0.00  0.00    +0.244 C 
ATOM     11  H   UNL     1      33.747 -12.096 -24.038  0.00  0.00    +0.145 HD
ATOM     12  H   UNL     1      35.025 -13.219 -23.927  0.00  0.00    +0.145 HD
ENDBRANCH   3  10
TORSDOF 1
ENDMDL
MODEL 9
REMARK VINA RESULT:      -5.6      2.662      3.260
REMARK  Name = 1808
REMARK  1 active torsions:
REMARK  status: ('A' for Active; 'I' for Inactive)
REMARK    1  A    between atoms: C_3  and  C_10
REMARK                            x       y       z     vdW  Elec       q    Type
REMARK                         _______ _______ _______ _____ _____    ______ ____
ROOT
ATOM      1 BR   UNL     1      34.336 -14.829 -21.556  0.00  0.00    -0.047 Br
ATOM      2  N   UNL     1      35.155 -18.278 -23.702  0.00  0.00    -0.242 NA
ATOM      3  C   UNL     1      34.347 -18.985 -21.537  0.00  0.00    +0.073 C 
ATOM      4  C   UNL     1      34.198 -17.657 -21.150  0.00  0.00    +0.014 C 
ATOM      5  C   UNL     1      34.825 -19.240 -22.812  0.00  0.00    +0.103 C 
ATOM      6  C   UNL     1      34.527 -16.639 -22.038  0.00  0.00    +0.054 C 
ATOM      7  C   UNL     1      34.996 -16.999 -23.292  0.00  0.00    +0.106 C 
ENDROOT
BRANCH   3  10
ATOM      8  O   UNL     1      34.895 -20.721 -20.041  0.00  0.00    -0.270 OA
ATOM      9  N   UNL     1      32.664 -20.354 -20.428  0.00  0.00    -0.325 N 
ATOM     10  C   UNL     1      34.012 -20.070 -20.632  0.00  0.00    +0.244 C 
ATOM     11  H   UNL     1      32.401 -21.083 -19.821  0.00  0.00    +0.145 HD
ATOM     12  H   UNL     1      31.975 -19.825 -20.890  0.00  0.00    +0.145 HD
ENDBRANCH   3  10
TORSDOF 1
ENDMDL
