MODEL 1
REMARK VINA RESULT:     -12.0      0.000      0.000
REMARK  Name = 16750059
REMARK  4 active torsions:
REMARK  status: ('A' for Active; 'I' for Inactive)
REMARK    1  A    between atoms: C_4  and  C_15
REMARK    2  A    between atoms: C_5  and  N_31
REMARK    3  A    between atoms: C_10  and  C_21
REMARK    4  A    between atoms: C_24  and  S_27
REMARK                            x       y       z     vdW  Elec       q    Type
REMARK                         _______ _______ _______ _____ _____    ______ ____
ROOT
ATOM      1  N   UNL     1      34.044 -16.619 -23.923  0.00  0.00    -0.298 N 
ATOM      2  N   UNL     1      33.630 -14.924 -25.494  0.00  0.00    -0.234 NA
ATOM      3  N   UNL     1      32.821 -12.783 -24.740  0.00  0.00    -0.248 NA
ATOM      4  C   UNL     1      34.289 -18.690 -22.809  0.00  0.00    +0.026 C 
ATOM      5  C   UNL     1      35.105 -18.714 -24.112  0.00  0.00    -0.040 C 
ATOM      6  C   UNL     1      34.095 -17.180 -22.572  0.00  0.00    +0.094 C 
ATOM      7  C   UNL     1      34.455 -17.593 -24.933  0.00  0.00    +0.070 C 
ATOM      8  C   UNL     1      33.635 -15.333 -24.210  0.00  0.00    +0.111 C 
ATOM      9  C   UNL     1      33.254 -14.537 -23.149  0.00  0.00    +0.106 C 
ATOM     10  C   UNL     1      32.853 -13.258 -23.478  0.00  0.00    +0.063 C 
ATOM     11  C   UNL     1      33.218 -13.656 -25.686  0.00  0.00    +0.251 C 
ENDROOT
BRANCH   4  15
ATOM     12  F   UNL     1      37.008 -18.386 -22.063  0.00  0.00    -0.204 F 
ATOM     13  F   UNL     1      33.965 -21.787 -19.047  0.00  0.00    -0.202 F 
ATOM     14  F   UNL     1      36.603 -21.400 -18.438  0.00  0.00    -0.202 F 
ATOM     15  C   UNL     1      34.911 -19.415 -21.638  0.00  0.00    +0.007 C 
ATOM     16  C   UNL     1      36.256 -19.218 -21.328  0.00  0.00    +0.138 C 
ATOM     17  C   UNL     1      34.137 -20.283 -20.868  0.00  0.00    +0.030 C 
ATOM     18  C   UNL     1      34.708 -20.953 -19.787  0.00  0.00    +0.167 C 
ATOM     19  C   UNL     1      36.828 -19.888 -20.246  0.00  0.00    +0.061 C 
ATOM     20  C   UNL     1      36.054 -20.756 -19.476  0.00  0.00    +0.170 C 
ENDBRANCH   4  15
BRANCH  10  21
ATOM     21  C   UNL     1      32.428 -12.325 -22.461  0.00  0.00    +0.015 C 
ATOM     22  C   UNL     1      32.406 -10.957 -22.736  0.00  0.00    +0.020 C 
ATOM     23  C   UNL     1      32.041 -12.790 -21.206  0.00  0.00    +0.001 C 
ATOM     24  C   UNL     1      31.998 -10.054 -21.753  0.00  0.00    +0.106 C 
ATOM     25  C   UNL     1      31.610 -10.521 -20.497  0.00  0.00    +0.018 C 
ATOM     26  C   UNL     1      31.633 -11.888 -20.223  0.00  0.00    +0.001 C 
BRANCH  24  27
ATOM     27  S   UNL     1      31.973  -8.343 -22.094  0.00  0.00    +0.010 S 
ATOM     28  O   UNL     1      30.973  -8.104 -23.126  0.00  0.00    -0.169 OA
ATOM     29  O   UNL     1      31.901  -7.612 -20.837  0.00  0.00    -0.169 OA
ATOM     30  C   UNL     1      33.573  -8.009 -22.796  0.00  0.00    +0.182 C 
ENDBRANCH  24  27
ENDBRANCH  10  21
BRANCH   5  31
ATOM     31  N   UNL     1      35.049 -19.996 -24.798  0.00  0.00    +0.383 N 
ATOM     32  H   UNL     1      34.147 -20.439 -24.617  0.00  0.00    -0.089 HD
ATOM     33  H   UNL     1      35.799 -20.597 -24.457  0.00  0.00    -0.089 HD
ATOM     34  H   UNL     1      35.160 -19.849 -25.802  0.00  0.00    -0.089 HD
ENDBRANCH   5  31
TORSDOF 4
ENDMDL
MODEL 2
REMARK VINA RESULT:     -11.9      5.535      9.208
REMARK  Name = 16750059
REMARK  4 active torsions:
REMARK  status: ('A' for Active; 'I' for Inactive)
REMARK    1  A    between atoms: C_4  and  C_15
REMARK    2  A    between atoms: C_5  and  N_31
REMARK    3  A    between atoms: C_10  and  C_21
REMARK    4  A    between atoms: C_24  and  S_27
REMARK                            x       y       z     vdW  Elec       q    Type
REMARK                         _______ _______ _______ _____ _____    ______ ____
ROOT
ATOM      1  N   UNL     1      33.889 -15.893 -24.709  0.00  0.00    -0.298 N 
ATOM      2  N   UNL     1      34.233 -18.034 -25.608  0.00  0.00    -0.234 NA
ATOM      3  N   UNL     1      34.987 -19.814 -24.169  0.00  0.00    -0.248 NA
ATOM      4  C   UNL     1      33.719 -13.558 -24.369  0.00  0.00    +0.026 C 
ATOM      5  C   UNL     1      32.887 -13.955 -25.600  0.00  0.00    -0.040 C 
ATOM      6  C   UNL     1      33.872 -14.903 -23.631  0.00  0.00    +0.094 C 
ATOM      7  C   UNL     1      33.493 -15.309 -25.990  0.00  0.00    +0.070 C 
ATOM      8  C   UNL     1      34.256 -17.211 -24.540  0.00  0.00    +0.111 C 
ATOM      9  C   UNL     1      34.627 -17.609 -23.272  0.00  0.00    +0.106 C 
ATOM     10  C   UNL     1      34.986 -18.936 -23.145  0.00  0.00    +0.063 C 
ATOM     11  C   UNL     1      34.604 -19.304 -25.356  0.00  0.00    +0.251 C 
ENDROOT
BRANCH   4  15
ATOM     12  F   UNL     1      34.246 -10.806 -24.809  0.00  0.00    -0.204 F 
ATOM     13  F   UNL     1      30.939 -12.073 -20.640  0.00  0.00    -0.202 F 
ATOM     14  F   UNL     1      31.531  -9.458 -21.176  0.00  0.00    -0.202 F 
ATOM     15  C   UNL     1      33.134 -12.458 -23.515  0.00  0.00    +0.007 C 
ATOM     16  C   UNL     1      33.436 -11.125 -23.788  0.00  0.00    +0.138 C 
ATOM     17  C   UNL     1      32.291 -12.779 -22.452  0.00  0.00    +0.030 C 
ATOM     18  C   UNL     1      31.749 -11.766 -21.662  0.00  0.00    +0.167 C 
ATOM     19  C   UNL     1      32.894 -10.110 -22.999  0.00  0.00    +0.061 C 
ATOM     20  C   UNL     1      32.051 -10.431 -21.935  0.00  0.00    +0.170 C 
ENDBRANCH   4  15
BRANCH  10  21
ATOM     21  C   UNL     1      35.395 -19.480 -21.872  0.00  0.00    +0.015 C 
ATOM     22  C   UNL     1      34.600 -20.429 -21.230  0.00  0.00    +0.020 C 
ATOM     23  C   UNL     1      36.586 -19.056 -21.284  0.00  0.00    +0.001 C 
ATOM     24  C   UNL     1      34.995 -20.954 -19.999  0.00  0.00    +0.106 C 
ATOM     25  C   UNL     1      36.186 -20.529 -19.411  0.00  0.00    +0.018 C 
ATOM     26  C   UNL     1      36.982 -19.580 -20.053  0.00  0.00    +0.001 C 
BRANCH  24  27
ATOM     27  S   UNL     1      33.998 -22.138 -19.194  0.00  0.00    +0.010 S 
ATOM     28  O   UNL     1      32.697 -21.535 -18.940  0.00  0.00    -0.169 OA
ATOM     29  O   UNL     1      34.081 -23.398 -19.921  0.00  0.00    -0.169 OA
ATOM     30  C   UNL     1      34.796 -22.393 -17.624  0.00  0.00    +0.182 C 
ENDBRANCH  24  27
ENDBRANCH  10  21
BRANCH   5  31
ATOM     31  N   UNL     1      32.973 -12.987 -26.683  0.00  0.00    +0.383 N 
ATOM     32  H   UNL     1      33.621 -12.243 -26.423  0.00  0.00    -0.089 HD
ATOM     33  H   UNL     1      32.050 -12.589 -26.857  0.00  0.00    -0.089 HD
ATOM     34  H   UNL     1      33.308 -13.450 -27.528  0.00  0.00    -0.089 HD
ENDBRANCH   5  31
TORSDOF 4
ENDMDL
MODEL 3
REMARK VINA RESULT:     -11.2      1.599      2.068
REMARK  Name = 16750059
REMARK  4 active torsions:
REMARK  status: ('A' for Active; 'I' for Inactive)
REMARK    1  A    between atoms: C_4  and  C_15
REMARK    2  A    between atoms: C_5  and  N_31
REMARK    3  A    between atoms: C_10  and  C_21
REMARK    4  A    between atoms: C_24  and  S_27
REMARK                            x       y       z     vdW  Elec       q    Type
REMARK                         _______ _______ _______ _____ _____    ______ ____
ROOT
ATOM      1  N   UNL     1      34.154 -16.774 -24.729  0.00  0.00    -0.298 N 
ATOM      2  N   UNL     1      33.743 -15.358 -26.556  0.00  0.00    -0.234 NA
ATOM      3  N   UNL     1      33.246 -13.033 -26.162  0.00  0.00    -0.248 NA
ATOM      4  C   UNL     1      34.309 -18.621 -23.260  0.00  0.00    +0.026 C 
ATOM      5  C   UNL     1      34.969 -18.982 -24.602  0.00  0.00    -0.040 C 
ATOM      6  C   UNL     1      34.297 -17.080 -23.305  0.00  0.00    +0.094 C 
ATOM      7  C   UNL     1      34.349 -17.959 -25.563  0.00  0.00    +0.070 C 
ATOM      8  C   UNL     1      33.849 -15.523 -25.222  0.00  0.00    +0.111 C 
ATOM      9  C   UNL     1      33.671 -14.506 -24.306  0.00  0.00    +0.106 C 
ATOM     10  C   UNL     1      33.369 -13.269 -24.840  0.00  0.00    +0.063 C 
ATOM     11  C   UNL     1      33.444 -14.106 -26.952  0.00  0.00    +0.251 C 
ENDROOT
BRANCH   4  15
ATOM     12  F   UNL     1      37.018 -18.107 -22.594  0.00  0.00    -0.204 F 
ATOM     13  F   UNL     1      34.186 -21.325 -19.196  0.00  0.00    -0.202 F 
ATOM     14  F   UNL     1      36.807 -20.747 -18.673  0.00  0.00    -0.202 F 
ATOM     15  C   UNL     1      34.980 -19.189 -22.032  0.00  0.00    +0.007 C 
ATOM     16  C   UNL     1      36.317 -18.895 -21.766  0.00  0.00    +0.138 C 
ATOM     17  C   UNL     1      34.261 -20.010 -21.165  0.00  0.00    +0.030 C 
ATOM     18  C   UNL     1      34.877 -20.536 -20.030  0.00  0.00    +0.167 C 
ATOM     19  C   UNL     1      36.935 -19.421 -20.631  0.00  0.00    +0.061 C 
ATOM     20  C   UNL     1      36.215 -20.242 -19.763  0.00  0.00    +0.170 C 
ENDBRANCH   4  15
BRANCH  10  21
ATOM     21  C   UNL     1      33.158 -12.121 -23.990  0.00  0.00    +0.015 C 
ATOM     22  C   UNL     1      32.477 -12.263 -22.781  0.00  0.00    +0.020 C 
ATOM     23  C   UNL     1      33.634 -10.870 -24.379  0.00  0.00    +0.001 C 
ATOM     24  C   UNL     1      32.271 -11.154 -21.961  0.00  0.00    +0.106 C 
ATOM     25  C   UNL     1      32.748  -9.902 -22.350  0.00  0.00    +0.018 C 
ATOM     26  C   UNL     1      33.429  -9.760 -23.560  0.00  0.00    +0.001 C 
BRANCH  24  27
ATOM     27  S   UNL     1      31.416 -11.329 -20.450  0.00  0.00    +0.010 S 
ATOM     28  O   UNL     1      29.988 -11.297 -20.735  0.00  0.00    -0.169 OA
ATOM     29  O   UNL     1      31.981 -12.453 -19.716  0.00  0.00    -0.169 OA
ATOM     30  C   UNL     1      31.825  -9.858 -19.537  0.00  0.00    +0.182 C 
ENDBRANCH  24  27
ENDBRANCH  10  21
BRANCH   5  31
ATOM     31  N   UNL     1      34.706 -20.351 -25.018  0.00  0.00    +0.383 N 
ATOM     32  H   UNL     1      35.294 -20.581 -25.819  0.00  0.00    -0.089 HD
ATOM     33  H   UNL     1      33.724 -20.444 -25.279  0.00  0.00    -0.089 HD
ATOM     34  H   UNL     1      34.915 -20.987 -24.248  0.00  0.00    -0.089 HD
ENDBRANCH   5  31
TORSDOF 4
ENDMDL
MODEL 4
REMARK VINA RESULT:     -10.8      6.560     11.439
REMARK  Name = 16750059
REMARK  4 active torsions:
REMARK  status: ('A' for Active; 'I' for Inactive)
REMARK    1  A    between atoms: C_4  and  C_15
REMARK    2  A    between atoms: C_5  and  N_31
REMARK    3  A    between atoms: C_10  and  C_21
REMARK    4  A    between atoms: C_24  and  S_27
REMARK                            x       y       z     vdW  Elec       q    Type
REMARK                         _______ _______ _______ _____ _____    ______ ____
ROOT
ATOM      1  N   UNL     1      31.789  -8.323 -21.847  0.00  0.00    -0.298 N 
ATOM      2  N   UNL     1      31.487  -9.712 -19.978  0.00  0.00    -0.234 NA
ATOM      3  N   UNL     1      31.948 -12.069 -20.170  0.00  0.00    -0.248 NA
ATOM      4  C   UNL     1      31.623  -6.614 -23.474  0.00  0.00    +0.026 C 
ATOM      5  C   UNL     1      31.780  -5.978 -22.082  0.00  0.00    -0.040 C 
ATOM      6  C   UNL     1      32.145  -8.046 -23.240  0.00  0.00    +0.094 C 
ATOM      7  C   UNL     1      31.354  -7.116 -21.146  0.00  0.00    +0.070 C 
ATOM      8  C   UNL     1      31.838  -9.576 -21.273  0.00  0.00    +0.111 C 
ATOM      9  C   UNL     1      32.249 -10.624 -22.071  0.00  0.00    +0.106 C 
ATOM     10  C   UNL     1      32.286 -11.860 -21.459  0.00  0.00    +0.063 C 
ATOM     11  C   UNL     1      31.565 -10.967 -19.497  0.00  0.00    +0.251 C 
ENDROOT
BRANCH   4  15
ATOM     12  F   UNL     1      30.414  -4.516 -24.950  0.00  0.00    -0.204 F 
ATOM     13  F   UNL     1      35.512  -5.924 -26.345  0.00  0.00    -0.202 F 
ATOM     14  F   UNL     1      34.227  -3.916 -27.686  0.00  0.00    -0.202 F 
ATOM     15  C   UNL     1      32.319  -5.890 -24.602  0.00  0.00    +0.007 C 
ATOM     16  C   UNL     1      31.663  -4.867 -25.287  0.00  0.00    +0.138 C 
ATOM     17  C   UNL     1      33.618  -6.247 -24.960  0.00  0.00    +0.030 C 
ATOM     18  C   UNL     1      34.263  -5.580 -26.001  0.00  0.00    +0.167 C 
ATOM     19  C   UNL     1      32.308  -4.199 -26.328  0.00  0.00    +0.061 C 
ATOM     20  C   UNL     1      33.608  -4.556 -26.685  0.00  0.00    +0.170 C 
ENDBRANCH   4  15
BRANCH  10  21
ATOM     21  C   UNL     1      32.697 -13.040 -22.183  0.00  0.00    +0.015 C 
ATOM     22  C   UNL     1      33.233 -14.129 -21.495  0.00  0.00    +0.020 C 
ATOM     23  C   UNL     1      32.561 -13.090 -23.569  0.00  0.00    +0.001 C 
ATOM     24  C   UNL     1      33.632 -15.268 -22.195  0.00  0.00    +0.106 C 
ATOM     25  C   UNL     1      33.495 -15.318 -23.582  0.00  0.00    +0.018 C 
ATOM     26  C   UNL     1      32.960 -14.228 -24.270  0.00  0.00    +0.001 C 
BRANCH  24  27
ATOM     27  S   UNL     1      34.305 -16.630 -21.336  0.00  0.00    +0.010 S 
ATOM     28  O   UNL     1      35.089 -16.117 -20.222  0.00  0.00    -0.169 OA
ATOM     29  O   UNL     1      33.248 -17.602 -21.089  0.00  0.00    -0.169 OA
ATOM     30  C   UNL     1      35.429 -17.373 -22.498  0.00  0.00    +0.182 C 
ENDBRANCH  24  27
ENDBRANCH  10  21
BRANCH   5  31
ATOM     31  N   UNL     1      30.962  -4.788 -21.903  0.00  0.00    +0.383 N 
ATOM     32  H   UNL     1      31.311  -4.253 -21.107  0.00  0.00    -0.089 HD
ATOM     33  H   UNL     1      29.995  -5.064 -21.730  0.00  0.00    -0.089 HD
ATOM     34  H   UNL     1      31.007  -4.214 -22.745  0.00  0.00    -0.089 HD
ENDBRANCH   5  31
TORSDOF 4
ENDMDL
MODEL 5
REMARK VINA RESULT:     -10.8      1.747      2.552
REMARK  Name = 16750059
REMARK  4 active torsions:
REMARK  status: ('A' for Active; 'I' for Inactive)
REMARK    1  A    between atoms: C_4  and  C_15
REMARK    2  A    between atoms: C_5  and  N_31
REMARK    3  A    between atoms: C_10  and  C_21
REMARK    4  A    between atoms: C_24  and  S_27
REMARK                            x       y       z     vdW  Elec       q    Type
REMARK                         _______ _______ _______ _____ _____    ______ ____
ROOT
ATOM      1  N   UNL     1      34.060 -16.692 -24.790  0.00  0.00    -0.298 N 
ATOM      2  N   UNL     1      33.737 -15.231 -26.599  0.00  0.00    -0.234 NA
ATOM      3  N   UNL     1      33.281 -12.904 -26.174  0.00  0.00    -0.248 NA
ATOM      4  C   UNL     1      34.127 -18.570 -23.354  0.00  0.00    +0.026 C 
ATOM      5  C   UNL     1      34.820 -18.919 -24.682  0.00  0.00    -0.040 C 
ATOM      6  C   UNL     1      34.152 -17.029 -23.368  0.00  0.00    +0.094 C 
ATOM      7  C   UNL     1      34.254 -17.865 -25.641  0.00  0.00    +0.070 C 
ATOM      8  C   UNL     1      33.798 -15.424 -25.266  0.00  0.00    +0.111 C 
ATOM      9  C   UNL     1      33.615 -14.422 -24.336  0.00  0.00    +0.106 C 
ATOM     10  C   UNL     1      33.357 -13.169 -24.853  0.00  0.00    +0.063 C 
ATOM     11  C   UNL     1      33.479 -13.965 -26.979  0.00  0.00    +0.251 C 
ENDROOT
BRANCH   4  15
ATOM     12  F   UNL     1      32.647 -20.060 -21.448  0.00  0.00    -0.204 F 
ATOM     13  F   UNL     1      37.995 -19.419 -20.497  0.00  0.00    -0.202 F 
ATOM     14  F   UNL     1      36.449 -20.834 -18.740  0.00  0.00    -0.202 F 
ATOM     15  C   UNL     1      34.747 -19.178 -22.118  0.00  0.00    +0.007 C 
ATOM     16  C   UNL     1      33.958 -19.898 -21.222  0.00  0.00    +0.138 C 
ATOM     17  C   UNL     1      36.110 -19.016 -21.873  0.00  0.00    +0.030 C 
ATOM     18  C   UNL     1      36.685 -19.575 -20.732  0.00  0.00    +0.167 C 
ATOM     19  C   UNL     1      34.533 -20.459 -20.081  0.00  0.00    +0.061 C 
ATOM     20  C   UNL     1      35.897 -20.297 -19.836  0.00  0.00    +0.170 C 
ENDBRANCH   4  15
BRANCH  10  21
ATOM     21  C   UNL     1      33.145 -12.033 -23.988  0.00  0.00    +0.015 C 
ATOM     22  C   UNL     1      32.471 -12.194 -22.777  0.00  0.00    +0.020 C 
ATOM     23  C   UNL     1      33.614 -10.774 -24.362  0.00  0.00    +0.001 C 
ATOM     24  C   UNL     1      32.265 -11.096 -21.942  0.00  0.00    +0.106 C 
ATOM     25  C   UNL     1      32.735  -9.837 -22.317  0.00  0.00    +0.018 C 
ATOM     26  C   UNL     1      33.409  -9.676 -23.528  0.00  0.00    +0.001 C 
BRANCH  24  27
ATOM     27  S   UNL     1      31.419 -11.295 -20.429  0.00  0.00    +0.010 S 
ATOM     28  O   UNL     1      29.989 -11.227 -20.700  0.00  0.00    -0.169 OA
ATOM     29  O   UNL     1      31.966 -12.449 -19.730  0.00  0.00    -0.169 OA
ATOM     30  C   UNL     1      31.863  -9.857 -19.481  0.00  0.00    +0.182 C 
ENDBRANCH  24  27
ENDBRANCH  10  21
BRANCH   5  31
ATOM     31  N   UNL     1      34.540 -20.274 -25.134  0.00  0.00    +0.383 N 
ATOM     32  H   UNL     1      34.597 -20.311 -26.152  0.00  0.00    -0.089 HD
ATOM     33  H   UNL     1      33.602 -20.544 -24.836  0.00  0.00    -0.089 HD
ATOM     34  H   UNL     1      35.223 -20.915 -24.731  0.00  0.00    -0.089 HD
ENDBRANCH   5  31
TORSDOF 4
ENDMDL
MODEL 6
REMARK VINA RESULT:     -10.3      6.078     10.896
REMARK  Name = 16750059
REMARK  4 active torsions:
REMARK  status: ('A' for Active; 'I' for Inactive)
REMARK    1  A    between atoms: C_4  and  C_15
REMARK    2  A    between atoms: C_5  and  N_31
REMARK    3  A    between atoms: C_10  and  C_21
REMARK    4  A    between atoms: C_24  and  S_27
REMARK                            x       y       z     vdW  Elec       q    Type
REMARK                         _______ _______ _______ _____ _____    ______ ____
ROOT
ATOM      1  N   UNL     1      32.250  -9.921 -22.152  0.00  0.00    -0.298 N 
ATOM      2  N   UNL     1      31.940 -11.662 -20.607  0.00  0.00    -0.234 NA
ATOM      3  N   UNL     1      32.428 -13.928 -21.264  0.00  0.00    -0.248 NA
ATOM      4  C   UNL     1      32.085  -7.920 -23.401  0.00  0.00    +0.026 C 
ATOM      5  C   UNL     1      32.218  -7.577 -21.908  0.00  0.00    -0.040 C 
ATOM      6  C   UNL     1      32.620  -9.365 -23.454  0.00  0.00    +0.094 C 
ATOM      7  C   UNL     1      31.792  -8.884 -21.227  0.00  0.00    +0.070 C 
ATOM      8  C   UNL     1      32.305 -11.264 -21.842  0.00  0.00    +0.111 C 
ATOM      9  C   UNL     1      32.738 -12.125 -22.829  0.00  0.00    +0.106 C 
ATOM     10  C   UNL     1      32.780 -13.460 -22.480  0.00  0.00    +0.063 C 
ATOM     11  C   UNL     1      32.025 -12.988 -20.388  0.00  0.00    +0.251 C 
ENDROOT
BRANCH   4  15
ATOM     12  F   UNL     1      34.873  -8.023 -23.912  0.00  0.00    -0.204 F 
ATOM     13  F   UNL     1      32.002  -4.183 -26.543  0.00  0.00    -0.202 F 
ATOM     14  F   UNL     1      34.698  -4.394 -26.943  0.00  0.00    -0.202 F 
ATOM     15  C   UNL     1      32.787  -6.977 -24.350  0.00  0.00    +0.007 C 
ATOM     16  C   UNL     1      34.163  -7.084 -24.553  0.00  0.00    +0.138 C 
ATOM     17  C   UNL     1      32.058  -5.997 -25.021  0.00  0.00    +0.030 C 
ATOM     18  C   UNL     1      32.703  -5.125 -25.898  0.00  0.00    +0.167 C 
ATOM     19  C   UNL     1      34.809  -6.212 -25.430  0.00  0.00    +0.061 C 
ATOM     20  C   UNL     1      34.079  -5.232 -26.102  0.00  0.00    +0.170 C 
ENDBRANCH   4  15
BRANCH  10  21
ATOM     21  C   UNL     1      33.214 -14.465 -23.421  0.00  0.00    +0.015 C 
ATOM     22  C   UNL     1      33.801 -15.644 -22.961  0.00  0.00    +0.020 C 
ATOM     23  C   UNL     1      33.048 -14.257 -24.789  0.00  0.00    +0.001 C 
ATOM     24  C   UNL     1      34.221 -16.615 -23.871  0.00  0.00    +0.106 C 
ATOM     25  C   UNL     1      34.054 -16.406 -25.240  0.00  0.00    +0.018 C 
ATOM     26  C   UNL     1      33.468 -15.226 -25.699  0.00  0.00    +0.001 C 
BRANCH  24  27
ATOM     27  S   UNL     1      34.958 -18.089 -23.298  0.00  0.00    +0.010 S 
ATOM     28  O   UNL     1      34.593 -19.161 -24.213  0.00  0.00    -0.169 OA
ATOM     29  O   UNL     1      36.363 -17.834 -23.009  0.00  0.00    -0.169 OA
ATOM     30  C   UNL     1      34.159 -18.406 -21.740  0.00  0.00    +0.182 C 
ENDBRANCH  24  27
ENDBRANCH  10  21
BRANCH   5  31
ATOM     31  N   UNL     1      31.384  -6.455 -21.503  0.00  0.00    +0.383 N 
ATOM     32  H   UNL     1      31.699  -6.108 -20.597  0.00  0.00    -0.089 HD
ATOM     33  H   UNL     1      30.414  -6.761 -21.433  0.00  0.00    -0.089 HD
ATOM     34  H   UNL     1      31.457  -5.710 -22.197  0.00  0.00    -0.089 HD
ENDBRANCH   5  31
TORSDOF 4
ENDMDL
MODEL 7
REMARK VINA RESULT:     -10.3      4.821      7.755
REMARK  Name = 16750059
REMARK  4 active torsions:
REMARK  status: ('A' for Active; 'I' for Inactive)
REMARK    1  A    between atoms: C_4  and  C_15
REMARK    2  A    between atoms: C_5  and  N_31
REMARK    3  A    between atoms: C_10  and  C_21
REMARK    4  A    between atoms: C_24  and  S_27
REMARK                            x       y       z     vdW  Elec       q    Type
REMARK                         _______ _______ _______ _____ _____    ______ ____
ROOT
ATOM      1  N   UNL     1      32.329  -9.847 -22.515  0.00  0.00    -0.298 N 
ATOM      2  N   UNL     1      31.489  -7.762 -21.834  0.00  0.00    -0.234 NA
ATOM      3  N   UNL     1      31.973  -5.804 -23.153  0.00  0.00    -0.248 NA
ATOM      4  C   UNL     1      33.190 -12.048 -22.591  0.00  0.00    +0.026 C 
ATOM      5  C   UNL     1      31.890 -12.038 -21.770  0.00  0.00    -0.040 C 
ATOM      6  C   UNL     1      33.075 -10.741 -23.401  0.00  0.00    +0.094 C 
ATOM      7  C   UNL     1      31.755 -10.562 -21.376  0.00  0.00    +0.070 C 
ATOM      8  C   UNL     1      32.203  -8.488 -22.718  0.00  0.00    +0.111 C 
ATOM      9  C   UNL     1      32.822  -7.953 -23.829  0.00  0.00    +0.106 C 
ATOM     10  C   UNL     1      32.671  -6.592 -23.998  0.00  0.00    +0.063 C 
ATOM     11  C   UNL     1      31.415  -6.445 -22.108  0.00  0.00    +0.251 C 
ENDROOT
BRANCH   4  15
ATOM     12  F   UNL     1      34.697 -14.288 -21.722  0.00  0.00    -0.204 F 
ATOM     13  F   UNL     1      32.541 -14.534 -26.743  0.00  0.00    -0.202 F 
ATOM     14  F   UNL     1      34.016 -16.625 -25.779  0.00  0.00    -0.202 F 
ATOM     15  C   UNL     1      33.412 -13.275 -23.443  0.00  0.00    +0.007 C 
ATOM     16  C   UNL     1      34.166 -14.341 -22.952  0.00  0.00    +0.138 C 
ATOM     17  C   UNL     1      32.864 -13.340 -24.723  0.00  0.00    +0.030 C 
ATOM     18  C   UNL     1      33.068 -14.471 -25.512  0.00  0.00    +0.167 C 
ATOM     19  C   UNL     1      34.369 -15.474 -23.740  0.00  0.00    +0.061 C 
ATOM     20  C   UNL     1      33.820 -15.538 -25.021  0.00  0.00    +0.170 C 
ENDBRANCH   4  15
BRANCH  10  21
ATOM     21  C   UNL     1      33.269  -5.907 -25.119  0.00  0.00    +0.015 C 
ATOM     22  C   UNL     1      32.542  -4.941 -25.816  0.00  0.00    +0.020 C 
ATOM     23  C   UNL     1      34.573  -6.212 -25.507  0.00  0.00    +0.001 C 
ATOM     24  C   UNL     1      33.120  -4.281 -26.901  0.00  0.00    +0.106 C 
ATOM     25  C   UNL     1      34.425  -4.586 -27.288  0.00  0.00    +0.018 C 
ATOM     26  C   UNL     1      35.151  -5.553 -26.591  0.00  0.00    +0.001 C 
BRANCH  24  27
ATOM     27  S   UNL     1      32.211  -3.075 -27.775  0.00  0.00    +0.010 S 
ATOM     28  O   UNL     1      31.810  -3.651 -29.051  0.00  0.00    -0.169 OA
ATOM     29  O   UNL     1      31.203  -2.509 -26.889  0.00  0.00    -0.169 OA
ATOM     30  C   UNL     1      33.391  -1.786 -28.106  0.00  0.00    +0.182 C 
ENDBRANCH  24  27
ENDBRANCH  10  21
BRANCH   5  31
ATOM     31  N   UNL     1      31.943 -12.910 -20.606  0.00  0.00    +0.383 N 
ATOM     32  H   UNL     1      32.880 -13.303 -20.518  0.00  0.00    -0.089 HD
ATOM     33  H   UNL     1      31.266 -13.665 -20.716  0.00  0.00    -0.089 HD
ATOM     34  H   UNL     1      31.720 -12.373 -19.768  0.00  0.00    -0.089 HD
ENDBRANCH   5  31
TORSDOF 4
ENDMDL
MODEL 8
REMARK VINA RESULT:     -10.3      6.743     11.288
REMARK  Name = 16750059
REMARK  4 active torsions:
REMARK  status: ('A' for Active; 'I' for Inactive)
REMARK    1  A    between atoms: C_4  and  C_15
REMARK    2  A    between atoms: C_5  and  N_31
REMARK    3  A    between atoms: C_10  and  C_21
REMARK    4  A    between atoms: C_24  and  S_27
REMARK                            x       y       z     vdW  Elec       q    Type
REMARK                         _______ _______ _______ _____ _____    ______ ____
ROOT
ATOM      1  N   UNL     1      31.819  -8.262 -21.993  0.00  0.00    -0.298 N 
ATOM      2  N   UNL     1      31.524  -9.669 -20.137  0.00  0.00    -0.234 NA
ATOM      3  N   UNL     1      31.946 -12.031 -20.364  0.00  0.00    -0.248 NA
ATOM      4  C   UNL     1      31.654  -6.531 -23.596  0.00  0.00    +0.026 C 
ATOM      5  C   UNL     1      31.841  -5.914 -22.200  0.00  0.00    -0.040 C 
ATOM      6  C   UNL     1      32.158  -7.973 -23.387  0.00  0.00    +0.094 C 
ATOM      7  C   UNL     1      31.412  -7.057 -21.271  0.00  0.00    +0.070 C 
ATOM      8  C   UNL     1      31.857  -9.522 -21.435  0.00  0.00    +0.111 C 
ATOM      9  C   UNL     1      32.241 -10.566 -22.252  0.00  0.00    +0.106 C 
ATOM     10  C   UNL     1      32.268 -11.811 -21.656  0.00  0.00    +0.063 C 
ATOM     11  C   UNL     1      31.589 -10.932 -19.672  0.00  0.00    +0.251 C 
ENDROOT
BRANCH   4  15
ATOM     12  F   UNL     1      30.453  -4.400 -25.031  0.00  0.00    -0.204 F 
ATOM     13  F   UNL     1      35.512  -5.859 -26.513  0.00  0.00    -0.202 F 
ATOM     14  F   UNL     1      34.236  -3.819 -27.813  0.00  0.00    -0.202 F 
ATOM     15  C   UNL     1      32.344  -5.803 -24.726  0.00  0.00    +0.007 C 
ATOM     16  C   UNL     1      31.693  -4.763 -25.389  0.00  0.00    +0.138 C 
ATOM     17  C   UNL     1      33.633  -6.173 -25.105  0.00  0.00    +0.030 C 
ATOM     18  C   UNL     1      34.273  -5.503 -26.148  0.00  0.00    +0.167 C 
ATOM     19  C   UNL     1      32.333  -4.092 -26.431  0.00  0.00    +0.061 C 
ATOM     20  C   UNL     1      33.623  -4.462 -26.811  0.00  0.00    +0.170 C 
ENDBRANCH   4  15
BRANCH  10  21
ATOM     21  C   UNL     1      32.651 -12.987 -22.400  0.00  0.00    +0.015 C 
ATOM     22  C   UNL     1      32.684 -12.951 -23.794  0.00  0.00    +0.020 C 
ATOM     23  C   UNL     1      32.989 -14.159 -21.725  0.00  0.00    +0.001 C 
ATOM     24  C   UNL     1      33.053 -14.088 -24.513  0.00  0.00    +0.106 C 
ATOM     25  C   UNL     1      33.391 -15.261 -23.837  0.00  0.00    +0.018 C 
ATOM     26  C   UNL     1      33.358 -15.296 -22.443  0.00  0.00    +0.001 C 
BRANCH  24  27
ATOM     27  S   UNL     1      33.091 -14.045 -26.257  0.00  0.00    +0.010 S 
ATOM     28  O   UNL     1      33.972 -15.111 -26.715  0.00  0.00    -0.169 OA
ATOM     29  O   UNL     1      31.725 -13.973 -26.758  0.00  0.00    -0.169 OA
ATOM     30  C   UNL     1      33.867 -12.492 -26.645  0.00  0.00    +0.182 C 
ENDBRANCH  24  27
ENDBRANCH  10  21
BRANCH   5  31
ATOM     31  N   UNL     1      31.044  -4.715 -21.993  0.00  0.00    +0.383 N 
ATOM     32  H   UNL     1      31.488  -4.129 -21.286  0.00  0.00    -0.089 HD
ATOM     33  H   UNL     1      30.109  -4.978 -21.680  0.00  0.00    -0.089 HD
ATOM     34  H   UNL     1      30.975  -4.197 -22.870  0.00  0.00    -0.089 HD
ENDBRANCH   5  31
TORSDOF 4
ENDMDL
MODEL 9
REMARK VINA RESULT:      -9.8      5.592      8.716
REMARK  Name = 16750059
REMARK  4 active torsions:
REMARK  status: ('A' for Active; 'I' for Inactive)
REMARK    1  A    between atoms: C_4  and  C_15
REMARK    2  A    between atoms: C_5  and  N_31
REMARK    3  A    between atoms: C_10  and  C_21
REMARK    4  A    between atoms: C_24  and  S_27
REMARK                            x       y       z     vdW  Elec       q    Type
REMARK                         _______ _______ _______ _____ _____    ______ ____
ROOT
ATOM      1  N   UNL     1      33.943 -22.449 -17.715  0.00  0.00    -0.298 N 
ATOM      2  N   UNL     1      36.195 -22.126 -18.296  0.00  0.00    -0.234 NA
ATOM      3  N   UNL     1      36.748 -20.640 -20.110  0.00  0.00    -0.248 NA
ATOM      4  C   UNL     1      31.878 -23.338 -16.982  0.00  0.00    +0.026 C 
ATOM      5  C   UNL     1      32.931 -23.518 -15.876  0.00  0.00    -0.040 C 
ATOM      6  C   UNL     1      32.503 -22.228 -17.850  0.00  0.00    +0.094 C 
ATOM      7  C   UNL     1      34.250 -23.401 -16.649  0.00  0.00    +0.070 C 
ATOM      8  C   UNL     1      34.894 -21.848 -18.513  0.00  0.00    +0.111 C 
ATOM      9  C   UNL     1      34.447 -20.988 -19.495  0.00  0.00    +0.106 C 
ATOM     10  C   UNL     1      35.429 -20.406 -20.271  0.00  0.00    +0.063 C 
ATOM     11  C   UNL     1      37.056 -21.497 -19.118  0.00  0.00    +0.251 C 
ENDROOT
BRANCH   4  15
ATOM     12  F   UNL     1      31.326 -22.180 -14.453  0.00  0.00    -0.204 F 
ATOM     13  F   UNL     1      27.045 -23.286 -17.673  0.00  0.00    -0.202 F 
ATOM     14  F   UNL     1      26.655 -22.168 -15.208  0.00  0.00    -0.202 F 
ATOM     15  C   UNL     1      30.480 -23.024 -16.505  0.00  0.00    +0.007 C 
ATOM     16  C   UNL     1      30.281 -22.455 -15.248  0.00  0.00    +0.138 C 
ATOM     17  C   UNL     1      29.387 -23.305 -17.324  0.00  0.00    +0.030 C 
ATOM     18  C   UNL     1      28.095 -23.016 -16.886  0.00  0.00    +0.167 C 
ATOM     19  C   UNL     1      28.989 -22.164 -14.809  0.00  0.00    +0.061 C 
ATOM     20  C   UNL     1      27.896 -22.446 -15.629  0.00  0.00    +0.170 C 
ENDBRANCH   4  15
BRANCH  10  21
ATOM     21  C   UNL     1      35.095 -19.487 -21.333  0.00  0.00    +0.015 C 
ATOM     22  C   UNL     1      34.936 -18.129 -21.057  0.00  0.00    +0.020 C 
ATOM     23  C   UNL     1      34.931 -19.957 -22.635  0.00  0.00    +0.001 C 
ATOM     24  C   UNL     1      34.611 -17.241 -22.083  0.00  0.00    +0.106 C 
ATOM     25  C   UNL     1      34.448 -17.713 -23.386  0.00  0.00    +0.018 C 
ATOM     26  C   UNL     1      34.607 -19.071 -23.662  0.00  0.00    +0.001 C 
BRANCH  24  27
ATOM     27  S   UNL     1      34.408 -15.543 -21.738  0.00  0.00    +0.010 S 
ATOM     28  O   UNL     1      34.967 -15.282 -20.419  0.00  0.00    -0.169 OA
ATOM     29  O   UNL     1      34.870 -14.770 -22.883  0.00  0.00    -0.169 OA
ATOM     30  C   UNL     1      32.646 -15.320 -21.639  0.00  0.00    +0.182 C 
ENDBRANCH  24  27
ENDBRANCH  10  21
BRANCH   5  31
ATOM     31  N   UNL     1      32.817 -24.792 -15.181  0.00  0.00    +0.383 N 
ATOM     32  H   UNL     1      33.714 -25.277 -15.213  0.00  0.00    -0.089 HD
ATOM     33  H   UNL     1      32.104 -25.363 -15.634  0.00  0.00    -0.089 HD
ATOM     34  H   UNL     1      32.554 -24.627 -14.209  0.00  0.00    -0.089 HD
ENDBRANCH   5  31
TORSDOF 4
ENDMDL
