MODEL 1
REMARK VINA RESULT:      -9.3      0.000      0.000
REMARK  Name = 657106
REMARK  8 active torsions:
REMARK  status: ('A' for Active; 'I' for Inactive)
REMARK    1  A    between atoms: N_1  and  C_3
REMARK    2  A    between atoms: N_1  and  S_15
REMARK    3  A    between atoms: C_4  and  O_9
REMARK    4  A    between atoms: C_7  and  C_12
REMARK    5  A    between atoms: C_12  and  O_13
REMARK    6  A    between atoms: S_15  and  C_19
REMARK    7  A    between atoms: C_20  and  C_24
REMARK    8  A    between atoms: C_24  and  O_25
REMARK                            x       y       z     vdW  Elec       q    Type
REMARK                         _______ _______ _______ _____ _____    ______ ____
ROOT
ATOM      1  N   UNL     1      33.769 -17.807 -22.057  0.00  0.00    -0.212 N 
ATOM      2  H   UNL     1      33.659 -17.868 -23.034  0.00  0.00    +0.174 HD
ENDROOT
BRANCH   1   3
ATOM      3  C   UNL     1      34.008 -18.967 -21.255  0.00  0.00    +0.098 C 
ATOM      4  C   UNL     1      35.309 -19.391 -20.990  0.00  0.00    +0.148 C 
ATOM      5  C   UNL     1      32.924 -19.675 -20.737  0.00  0.00    +0.019 C 
ATOM      6  C   UNL     1      35.527 -20.524 -20.206  0.00  0.00    +0.044 C 
ATOM      7  C   UNL     1      34.444 -21.233 -19.687  0.00  0.00    +0.079 C 
ATOM      8  C   UNL     1      33.142 -20.808 -19.952  0.00  0.00    +0.008 C 
BRANCH   4   9
ATOM      9  O   UNL     1      36.381 -18.712 -21.487  0.00  0.00    -0.504 OA
ATOM     10  H   UNL     1      36.673 -17.926 -21.069  0.00  0.00    +0.292 HD
ENDBRANCH   4   9
BRANCH   7  12
ATOM     11  O   UNL     1      35.400 -22.486 -17.882  0.00  0.00    -0.245 OA
ATOM     12  C   UNL     1      34.671 -22.413 -18.870  0.00  0.00    +0.338 C 
BRANCH  12  13
ATOM     13  O   UNL     1      33.967 -23.489 -19.320  0.00  0.00    -0.477 OA
ATOM     14  H   UNL     1      34.417 -24.274 -19.566  0.00  0.00    +0.295 HD
ENDBRANCH  12  13
ENDBRANCH   7  12
ENDBRANCH   1   3
BRANCH   1  15
ATOM     15  S   UNL     1      33.680 -16.292 -21.227  0.00  0.00    +0.074 S 
ATOM     16  O   UNL     1      32.476 -16.257 -20.421  0.00  0.00    -0.150 OA
ATOM     17  O   UNL     1      34.968 -15.949 -20.659  0.00  0.00    -0.150 OA
BRANCH  15  19
ATOM     18  S   UNL     1      33.375 -13.747 -24.604  0.00  0.00    -0.079 S 
ATOM     19  C   UNL     1      33.373 -15.060 -22.437  0.00  0.00    +0.138 C 
ATOM     20  C   UNL     1      33.875 -15.111 -23.697  0.00  0.00    +0.124 C 
ATOM     21  C   UNL     1      32.579 -13.933 -22.168  0.00  0.00    +0.028 C 
ATOM     22  C   UNL     1      32.493 -13.120 -23.277  0.00  0.00    +0.037 C 
BRANCH  20  24
ATOM     23  O   UNL     1      34.530 -16.630 -25.430  0.00  0.00    -0.244 OA
ATOM     24  C   UNL     1      34.711 -16.081 -24.328  0.00  0.00    +0.345 C 
BRANCH  24  25
ATOM     25  O   UNL     1      35.821 -16.397 -23.585  0.00  0.00    -0.477 OA
ATOM     26  H   UNL     1      36.362 -17.120 -23.834  0.00  0.00    +0.295 HD
ENDBRANCH  24  25
ENDBRANCH  20  24
ENDBRANCH  15  19
ENDBRANCH   1  15
TORSDOF 8
ENDMDL
MODEL 2
REMARK VINA RESULT:      -9.0      8.994     11.473
REMARK  Name = 657106
REMARK  8 active torsions:
REMARK  status: ('A' for Active; 'I' for Inactive)
REMARK    1  A    between atoms: N_1  and  C_3
REMARK    2  A    between atoms: N_1  and  S_15
REMARK    3  A    between atoms: C_4  and  O_9
REMARK    4  A    between atoms: C_7  and  C_12
REMARK    5  A    between atoms: C_12  and  O_13
REMARK    6  A    between atoms: S_15  and  C_19
REMARK    7  A    between atoms: C_20  and  C_24
REMARK    8  A    between atoms: C_24  and  O_25
REMARK                            x       y       z     vdW  Elec       q    Type
REMARK                         _______ _______ _______ _____ _____    ______ ____
ROOT
ATOM      1  N   UNL     1      33.988 -24.875 -14.768  0.00  0.00    -0.212 N 
ATOM      2  H   UNL     1      34.246 -25.733 -15.177  0.00  0.00    +0.174 HD
ENDROOT
BRANCH   1   3
ATOM      3  C   UNL     1      32.726 -24.262 -15.046  0.00  0.00    +0.098 C 
ATOM      4  C   UNL     1      31.641 -24.450 -14.192  0.00  0.00    +0.148 C 
ATOM      5  C   UNL     1      32.589 -23.468 -16.185  0.00  0.00    +0.019 C 
ATOM      6  C   UNL     1      30.417 -23.844 -14.475  0.00  0.00    +0.044 C 
ATOM      7  C   UNL     1      30.278 -23.050 -15.614  0.00  0.00    +0.079 C 
ATOM      8  C   UNL     1      31.365 -22.862 -16.468  0.00  0.00    +0.008 C 
BRANCH   4   9
ATOM      9  O   UNL     1      31.756 -25.221 -13.074  0.00  0.00    -0.504 OA
ATOM     10  H   UNL     1      31.027 -25.318 -12.494  0.00  0.00    +0.292 HD
ENDBRANCH   4   9
BRANCH   7  12
ATOM     11  O   UNL     1      28.244 -21.893 -15.097  0.00  0.00    -0.245 OA
ATOM     12  C   UNL     1      29.003 -22.419 -15.909  0.00  0.00    +0.338 C 
BRANCH  12  13
ATOM     13  O   UNL     1      28.706 -22.464 -17.238  0.00  0.00    -0.477 OA
ATOM     14  H   UNL     1      29.332 -22.809 -17.846  0.00  0.00    +0.295 HD
ENDBRANCH  12  13
ENDBRANCH   7  12
ENDBRANCH   1   3
BRANCH   1  15
ATOM     15  S   UNL     1      35.038 -24.038 -13.679  0.00  0.00    +0.074 S 
ATOM     16  O   UNL     1      35.302 -22.709 -14.194  0.00  0.00    -0.150 OA
ATOM     17  O   UNL     1      34.609 -24.234 -12.309  0.00  0.00    -0.150 OA
BRANCH  15  19
ATOM     18  S   UNL     1      39.020 -25.452 -13.342  0.00  0.00    -0.079 S 
ATOM     19  C   UNL     1      36.609 -24.812 -13.780  0.00  0.00    +0.138 C 
ATOM     20  C   UNL     1      37.645 -24.506 -12.960  0.00  0.00    +0.124 C 
ATOM     21  C   UNL     1      36.889 -25.807 -14.732  0.00  0.00    +0.028 C 
ATOM     22  C   UNL     1      38.186 -26.253 -14.605  0.00  0.00    +0.037 C 
BRANCH  20  24
ATOM     23  O   UNL     1      38.287 -22.445 -11.920  0.00  0.00    -0.244 OA
ATOM     24  C   UNL     1      37.741 -23.563 -11.892  0.00  0.00    +0.345 C 
BRANCH  24  25
ATOM     25  O   UNL     1      37.143 -23.999 -10.736  0.00  0.00    -0.477 OA
ATOM     26  H   UNL     1      36.707 -24.828 -10.718  0.00  0.00    +0.295 HD
ENDBRANCH  24  25
ENDBRANCH  20  24
ENDBRANCH  15  19
ENDBRANCH   1  15
TORSDOF 8
ENDMDL
MODEL 3
REMARK VINA RESULT:      -8.8      8.787     10.944
REMARK  Name = 657106
REMARK  8 active torsions:
REMARK  status: ('A' for Active; 'I' for Inactive)
REMARK    1  A    between atoms: N_1  and  C_3
REMARK    2  A    between atoms: N_1  and  S_15
REMARK    3  A    between atoms: C_4  and  O_9
REMARK    4  A    between atoms: C_7  and  C_12
REMARK    5  A    between atoms: C_12  and  O_13
REMARK    6  A    between atoms: S_15  and  C_19
REMARK    7  A    between atoms: C_20  and  C_24
REMARK    8  A    between atoms: C_24  and  O_25
REMARK                            x       y       z     vdW  Elec       q    Type
REMARK                         _______ _______ _______ _____ _____    ______ ____
ROOT
ATOM      1  N   UNL     1      33.075 -23.572 -13.710  0.00  0.00    -0.212 N 
ATOM      2  H   UNL     1      33.034 -23.497 -12.728  0.00  0.00    +0.174 HD
ENDROOT
BRANCH   1   3
ATOM      3  C   UNL     1      31.896 -23.516 -14.516  0.00  0.00    +0.098 C 
ATOM      4  C   UNL     1      30.714 -24.123 -14.093  0.00  0.00    +0.148 C 
ATOM      5  C   UNL     1      31.936 -22.843 -15.738  0.00  0.00    +0.019 C 
ATOM      6  C   UNL     1      29.572 -24.058 -14.890  0.00  0.00    +0.044 C 
ATOM      7  C   UNL     1      29.611 -23.386 -16.112  0.00  0.00    +0.079 C 
ATOM      8  C   UNL     1      30.793 -22.778 -16.536  0.00  0.00    +0.008 C 
BRANCH   4   9
ATOM      9  O   UNL     1      30.655 -24.783 -12.902  0.00  0.00    -0.504 OA
ATOM     10  H   UNL     1      30.516 -25.709 -12.886  0.00  0.00    +0.292 HD
ENDBRANCH   4   9
BRANCH   7  12
ATOM     11  O   UNL     1      27.785 -24.274 -17.385  0.00  0.00    -0.245 OA
ATOM     12  C   UNL     1      28.420 -23.319 -16.944  0.00  0.00    +0.338 C 
BRANCH  12  13
ATOM     13  O   UNL     1      28.051 -22.033 -17.203  0.00  0.00    -0.477 OA
ATOM     14  H   UNL     1      27.824 -21.460 -16.496  0.00  0.00    +0.295 HD
ENDBRANCH  12  13
ENDBRANCH   7  12
ENDBRANCH   1   3
BRANCH   1  15
ATOM     15  S   UNL     1      34.578 -23.781 -14.540  0.00  0.00    +0.074 S 
ATOM     16  O   UNL     1      34.603 -25.089 -15.164  0.00  0.00    -0.150 OA
ATOM     17  O   UNL     1      34.910 -22.589 -15.293  0.00  0.00    -0.150 OA
BRANCH  15  19
ATOM     18  S   UNL     1      38.070 -24.207 -12.175  0.00  0.00    -0.079 S 
ATOM     19  C   UNL     1      35.828 -23.910 -13.317  0.00  0.00    +0.138 C 
ATOM     20  C   UNL     1      37.133 -24.138 -13.607  0.00  0.00    +0.124 C 
ATOM     21  C   UNL     1      35.546 -23.786 -11.947  0.00  0.00    +0.028 C 
ATOM     22  C   UNL     1      36.692 -23.927 -11.197  0.00  0.00    +0.037 C 
BRANCH  20  24
ATOM     23  O   UNL     1      38.554 -23.521 -15.436  0.00  0.00    -0.244 OA
ATOM     24  C   UNL     1      37.791 -24.319 -14.862  0.00  0.00    +0.345 C 
BRANCH  24  25
ATOM     25  O   UNL     1      37.510 -25.529 -15.444  0.00  0.00    -0.477 OA
ATOM     26  H   UNL     1      36.879 -26.102 -15.055  0.00  0.00    +0.295 HD
ENDBRANCH  24  25
ENDBRANCH  20  24
ENDBRANCH  15  19
ENDBRANCH   1  15
TORSDOF 8
ENDMDL
MODEL 4
REMARK VINA RESULT:      -8.8      8.720     11.303
REMARK  Name = 657106
REMARK  8 active torsions:
REMARK  status: ('A' for Active; 'I' for Inactive)
REMARK    1  A    between atoms: N_1  and  C_3
REMARK    2  A    between atoms: N_1  and  S_15
REMARK    3  A    between atoms: C_4  and  O_9
REMARK    4  A    between atoms: C_7  and  C_12
REMARK    5  A    between atoms: C_12  and  O_13
REMARK    6  A    between atoms: S_15  and  C_19
REMARK    7  A    between atoms: C_20  and  C_24
REMARK    8  A    between atoms: C_24  and  O_25
REMARK                            x       y       z     vdW  Elec       q    Type
REMARK                         _______ _______ _______ _____ _____    ______ ____
ROOT
ATOM      1  N   UNL     1      33.356 -23.924 -14.097  0.00  0.00    -0.212 N 
ATOM      2  H   UNL     1      33.395 -24.093 -13.127  0.00  0.00    +0.174 HD
ENDROOT
BRANCH   1   3
ATOM      3  C   UNL     1      32.111 -23.750 -14.778  0.00  0.00    +0.098 C 
ATOM      4  C   UNL     1      30.948 -24.352 -14.300  0.00  0.00    +0.148 C 
ATOM      5  C   UNL     1      32.068 -22.968 -15.933  0.00  0.00    +0.019 C 
ATOM      6  C   UNL     1      29.741 -24.173 -14.975  0.00  0.00    +0.044 C 
ATOM      7  C   UNL     1      29.697 -23.391 -16.130  0.00  0.00    +0.079 C 
ATOM      8  C   UNL     1      30.861 -22.788 -16.608  0.00  0.00    +0.008 C 
BRANCH   4   9
ATOM      9  O   UNL     1      30.970 -25.119 -13.173  0.00  0.00    -0.504 OA
ATOM     10  H   UNL     1      31.344 -24.781 -12.384  0.00  0.00    +0.292 HD
ENDBRANCH   4   9
BRANCH   7  12
ATOM     11  O   UNL     1      27.773 -24.080 -17.381  0.00  0.00    -0.245 OA
ATOM     12  C   UNL     1      28.439 -23.204 -16.834  0.00  0.00    +0.338 C 
BRANCH  12  13
ATOM     13  O   UNL     1      28.043 -21.900 -16.833  0.00  0.00    -0.477 OA
ATOM     14  H   UNL     1      27.398 -21.607 -16.218  0.00  0.00    +0.295 HD
ENDBRANCH  12  13
ENDBRANCH   7  12
ENDBRANCH   1   3
BRANCH   1  15
ATOM     15  S   UNL     1      34.791 -23.823 -15.057  0.00  0.00    +0.074 S 
ATOM     16  O   UNL     1      34.555 -24.460 -16.338  0.00  0.00    -0.150 OA
ATOM     17  O   UNL     1      35.361 -22.494 -14.979  0.00  0.00    -0.150 OA
BRANCH  15  19
ATOM     18  S   UNL     1      37.594 -25.909 -12.656  0.00  0.00    -0.079 S 
ATOM     19  C   UNL     1      35.982 -24.876 -14.315  0.00  0.00    +0.138 C 
ATOM     20  C   UNL     1      36.442 -24.704 -13.051  0.00  0.00    +0.124 C 
ATOM     21  C   UNL     1      36.537 -25.971 -14.997  0.00  0.00    +0.028 C 
ATOM     22  C   UNL     1      37.443 -26.634 -14.200  0.00  0.00    +0.037 C 
BRANCH  20  24
ATOM     23  O   UNL     1      36.797 -22.723 -11.750  0.00  0.00    -0.244 OA
ATOM     24  C   UNL     1      36.122 -23.719 -12.068  0.00  0.00    +0.345 C 
BRANCH  24  25
ATOM     25  O   UNL     1      34.923 -23.955 -11.443  0.00  0.00    -0.477 OA
ATOM     26  H   UNL     1      34.389 -23.237 -11.168  0.00  0.00    +0.295 HD
ENDBRANCH  24  25
ENDBRANCH  20  24
ENDBRANCH  15  19
ENDBRANCH   1  15
TORSDOF 8
ENDMDL
MODEL 5
REMARK VINA RESULT:      -8.6      1.215      2.580
REMARK  Name = 657106
REMARK  8 active torsions:
REMARK  status: ('A' for Active; 'I' for Inactive)
REMARK    1  A    between atoms: N_1  and  C_3
REMARK    2  A    between atoms: N_1  and  S_15
REMARK    3  A    between atoms: C_4  and  O_9
REMARK    4  A    between atoms: C_7  and  C_12
REMARK    5  A    between atoms: C_12  and  O_13
REMARK    6  A    between atoms: S_15  and  C_19
REMARK    7  A    between atoms: C_20  and  C_24
REMARK    8  A    between atoms: C_24  and  O_25
REMARK                            x       y       z     vdW  Elec       q    Type
REMARK                         _______ _______ _______ _____ _____    ______ ____
ROOT
ATOM      1  N   UNL     1      34.151 -17.788 -21.734  0.00  0.00    -0.212 N 
ATOM      2  H   UNL     1      33.762 -16.983 -21.322  0.00  0.00    +0.174 HD
ENDROOT
BRANCH   1   3
ATOM      3  C   UNL     1      34.201 -19.037 -21.039  0.00  0.00    +0.098 C 
ATOM      4  C   UNL     1      35.423 -19.608 -20.688  0.00  0.00    +0.148 C 
ATOM      5  C   UNL     1      33.009 -19.684 -20.712  0.00  0.00    +0.019 C 
ATOM      6  C   UNL     1      35.455 -20.826 -20.010  0.00  0.00    +0.044 C 
ATOM      7  C   UNL     1      34.263 -21.474 -19.682  0.00  0.00    +0.079 C 
ATOM      8  C   UNL     1      33.040 -20.903 -20.033  0.00  0.00    +0.008 C 
BRANCH   4   9
ATOM      9  O   UNL     1      36.598 -18.990 -20.997  0.00  0.00    -0.504 OA
ATOM     10  H   UNL     1      37.298 -18.975 -20.375  0.00  0.00    +0.292 HD
ENDBRANCH   4   9
BRANCH   7  12
ATOM     11  O   UNL     1      33.852 -23.816 -19.381  0.00  0.00    -0.245 OA
ATOM     12  C   UNL     1      34.297 -22.744 -18.975  0.00  0.00    +0.338 C 
BRANCH  12  13
ATOM     13  O   UNL     1      34.898 -22.634 -17.757  0.00  0.00    -0.477 OA
ATOM     14  H   UNL     1      35.789 -22.350 -17.699  0.00  0.00    +0.295 HD
ENDBRANCH  12  13
ENDBRANCH   7  12
ENDBRANCH   1   3
BRANCH   1  15
ATOM     15  S   UNL     1      34.810 -17.760 -23.333  0.00  0.00    +0.074 S 
ATOM     16  O   UNL     1      36.210 -17.389 -23.267  0.00  0.00    -0.150 OA
ATOM     17  O   UNL     1      34.382 -18.926 -24.078  0.00  0.00    -0.150 OA
BRANCH  15  19
ATOM     18  S   UNL     1      32.982 -14.166 -24.642  0.00  0.00    -0.079 S 
ATOM     19  C   UNL     1      34.086 -16.396 -24.164  0.00  0.00    +0.138 C 
ATOM     20  C   UNL     1      33.624 -15.293 -23.523  0.00  0.00    +0.124 C 
ATOM     21  C   UNL     1      33.939 -16.367 -25.560  0.00  0.00    +0.028 C 
ATOM     22  C   UNL     1      33.344 -15.192 -25.965  0.00  0.00    +0.037 C 
BRANCH  20  24
ATOM     23  O   UNL     1      34.555 -14.605 -21.425  0.00  0.00    -0.244 OA
ATOM     24  C   UNL     1      33.597 -14.965 -22.133  0.00  0.00    +0.345 C 
BRANCH  24  25
ATOM     25  O   UNL     1      32.347 -15.078 -21.580  0.00  0.00    -0.477 OA
ATOM     26  H   UNL     1      32.053 -14.448 -20.952  0.00  0.00    +0.295 HD
ENDBRANCH  24  25
ENDBRANCH  20  24
ENDBRANCH  15  19
ENDBRANCH   1  15
TORSDOF 8
ENDMDL
MODEL 6
REMARK VINA RESULT:      -8.6      1.533      1.999
REMARK  Name = 657106
REMARK  8 active torsions:
REMARK  status: ('A' for Active; 'I' for Inactive)
REMARK    1  A    between atoms: N_1  and  C_3
REMARK    2  A    between atoms: N_1  and  S_15
REMARK    3  A    between atoms: C_4  and  O_9
REMARK    4  A    between atoms: C_7  and  C_12
REMARK    5  A    between atoms: C_12  and  O_13
REMARK    6  A    between atoms: S_15  and  C_19
REMARK    7  A    between atoms: C_20  and  C_24
REMARK    8  A    between atoms: C_24  and  O_25
REMARK                            x       y       z     vdW  Elec       q    Type
REMARK                         _______ _______ _______ _____ _____    ______ ____
ROOT
ATOM      1  N   UNL     1      34.360 -19.191 -21.981  0.00  0.00    -0.212 N 
ATOM      2  H   UNL     1      33.828 -19.291 -22.803  0.00  0.00    +0.174 HD
ENDROOT
BRANCH   1   3
ATOM      3  C   UNL     1      34.256 -20.122 -20.901  0.00  0.00    +0.098 C 
ATOM      4  C   UNL     1      35.397 -20.704 -20.350  0.00  0.00    +0.148 C 
ATOM      5  C   UNL     1      32.995 -20.447 -20.399  0.00  0.00    +0.019 C 
ATOM      6  C   UNL     1      35.279 -21.610 -19.297  0.00  0.00    +0.044 C 
ATOM      7  C   UNL     1      34.019 -21.935 -18.794  0.00  0.00    +0.079 C 
ATOM      8  C   UNL     1      32.877 -21.353 -19.345  0.00  0.00    +0.008 C 
BRANCH   4   9
ATOM      9  O   UNL     1      36.636 -20.398 -20.827  0.00  0.00    -0.504 OA
ATOM     10  H   UNL     1      36.946 -20.793 -21.617  0.00  0.00    +0.292 HD
ENDBRANCH   4   9
BRANCH   7  12
ATOM     11  O   UNL     1      32.872 -23.466 -17.350  0.00  0.00    -0.245 OA
ATOM     12  C   UNL     1      33.896 -22.880 -17.696  0.00  0.00    +0.338 C 
BRANCH  12  13
ATOM     13  O   UNL     1      35.080 -23.068 -17.050  0.00  0.00    -0.477 OA
ATOM     14  H   UNL     1      35.710 -23.672 -17.393  0.00  0.00    +0.295 HD
ENDBRANCH  12  13
ENDBRANCH   7  12
ENDBRANCH   1   3
BRANCH   1  15
ATOM     15  S   UNL     1      35.467 -17.877 -21.772  0.00  0.00    +0.074 S 
ATOM     16  O   UNL     1      35.549 -17.539 -20.365  0.00  0.00    -0.150 OA
ATOM     17  O   UNL     1      36.664 -18.094 -22.558  0.00  0.00    -0.150 OA
BRANCH  15  19
ATOM     18  S   UNL     1      33.655 -14.839 -24.108  0.00  0.00    -0.079 S 
ATOM     19  C   UNL     1      34.714 -16.455 -22.469  0.00  0.00    +0.138 C 
ATOM     20  C   UNL     1      34.358 -16.365 -23.775  0.00  0.00    +0.124 C 
ATOM     21  C   UNL     1      34.435 -15.309 -21.705  0.00  0.00    +0.028 C 
ATOM     22  C   UNL     1      33.847 -14.336 -22.482  0.00  0.00    +0.037 C 
BRANCH  20  24
ATOM     23  O   UNL     1      34.195 -18.515 -24.818  0.00  0.00    -0.244 OA
ATOM     24  C   UNL     1      34.483 -17.305 -24.842  0.00  0.00    +0.345 C 
BRANCH  24  25
ATOM     25  O   UNL     1      34.980 -16.747 -25.993  0.00  0.00    -0.477 OA
ATOM     26  H   UNL     1      35.109 -15.821 -26.047  0.00  0.00    +0.295 HD
ENDBRANCH  24  25
ENDBRANCH  20  24
ENDBRANCH  15  19
ENDBRANCH   1  15
TORSDOF 8
ENDMDL
MODEL 7
REMARK VINA RESULT:      -8.4      2.030      3.091
REMARK  Name = 657106
REMARK  8 active torsions:
REMARK  status: ('A' for Active; 'I' for Inactive)
REMARK    1  A    between atoms: N_1  and  C_3
REMARK    2  A    between atoms: N_1  and  S_15
REMARK    3  A    between atoms: C_4  and  O_9
REMARK    4  A    between atoms: C_7  and  C_12
REMARK    5  A    between atoms: C_12  and  O_13
REMARK    6  A    between atoms: S_15  and  C_19
REMARK    7  A    between atoms: C_20  and  C_24
REMARK    8  A    between atoms: C_24  and  O_25
REMARK                            x       y       z     vdW  Elec       q    Type
REMARK                         _______ _______ _______ _____ _____    ______ ____
ROOT
ATOM      1  N   UNL     1      35.004 -19.766 -21.560  0.00  0.00    -0.212 N 
ATOM      2  H   UNL     1      35.202 -20.121 -22.458  0.00  0.00    +0.174 HD
ENDROOT
BRANCH   1   3
ATOM      3  C   UNL     1      35.117 -20.581 -20.391  0.00  0.00    +0.098 C 
ATOM      4  C   UNL     1      33.994 -21.199 -19.843  0.00  0.00    +0.148 C 
ATOM      5  C   UNL     1      36.368 -20.755 -19.798  0.00  0.00    +0.019 C 
ATOM      6  C   UNL     1      34.120 -21.991 -18.703  0.00  0.00    +0.044 C 
ATOM      7  C   UNL     1      35.370 -22.165 -18.109  0.00  0.00    +0.079 C 
ATOM      8  C   UNL     1      36.494 -21.548 -18.657  0.00  0.00    +0.008 C 
BRANCH   4   9
ATOM      9  O   UNL     1      32.764 -21.042 -20.409  0.00  0.00    -0.504 OA
ATOM     10  H   UNL     1      32.577 -20.279 -20.920  0.00  0.00    +0.292 HD
ENDBRANCH   4   9
BRANCH   7  12
ATOM     11  O   UNL     1      34.594 -23.590 -16.344  0.00  0.00    -0.245 OA
ATOM     12  C   UNL     1      35.501 -22.992 -16.920  0.00  0.00    +0.338 C 
BRANCH  12  13
ATOM     13  O   UNL     1      36.788 -23.047 -16.477  0.00  0.00    -0.477 OA
ATOM     14  H   UNL     1      37.380 -22.345 -16.666  0.00  0.00    +0.295 HD
ENDBRANCH  12  13
ENDBRANCH   7  12
ENDBRANCH   1   3
BRANCH   1  15
ATOM     15  S   UNL     1      34.504 -18.127 -21.323  0.00  0.00    +0.074 S 
ATOM     16  O   UNL     1      33.117 -18.106 -20.904  0.00  0.00    -0.150 OA
ATOM     17  O   UNL     1      35.515 -17.390 -20.594  0.00  0.00    -0.150 OA
BRANCH  15  19
ATOM     18  S   UNL     1      34.071 -15.704 -24.774  0.00  0.00    -0.079 S 
ATOM     19  C   UNL     1      34.442 -17.374 -22.906  0.00  0.00    +0.138 C 
ATOM     20  C   UNL     1      33.993 -16.111 -23.113  0.00  0.00    +0.124 C 
ATOM     21  C   UNL     1      34.859 -18.045 -24.067  0.00  0.00    +0.028 C 
ATOM     22  C   UNL     1      34.711 -17.241 -25.176  0.00  0.00    +0.037 C 
BRANCH  20  24
ATOM     23  O   UNL     1      32.307 -14.797 -22.030  0.00  0.00    -0.244 OA
ATOM     24  C   UNL     1      33.492 -15.138 -22.195  0.00  0.00    +0.345 C 
BRANCH  24  25
ATOM     25  O   UNL     1      34.479 -14.554 -21.441  0.00  0.00    -0.477 OA
ATOM     26  H   UNL     1      34.942 -15.060 -20.802  0.00  0.00    +0.295 HD
ENDBRANCH  24  25
ENDBRANCH  20  24
ENDBRANCH  15  19
ENDBRANCH   1  15
TORSDOF 8
ENDMDL
MODEL 8
REMARK VINA RESULT:      -8.2      8.375     11.052
REMARK  Name = 657106
REMARK  8 active torsions:
REMARK  status: ('A' for Active; 'I' for Inactive)
REMARK    1  A    between atoms: N_1  and  C_3
REMARK    2  A    between atoms: N_1  and  S_15
REMARK    3  A    between atoms: C_4  and  O_9
REMARK    4  A    between atoms: C_7  and  C_12
REMARK    5  A    between atoms: C_12  and  O_13
REMARK    6  A    between atoms: S_15  and  C_19
REMARK    7  A    between atoms: C_20  and  C_24
REMARK    8  A    between atoms: C_24  and  O_25
REMARK                            x       y       z     vdW  Elec       q    Type
REMARK                         _______ _______ _______ _____ _____    ______ ____
ROOT
ATOM      1  N   UNL     1      34.463 -22.721 -15.085  0.00  0.00    -0.212 N 
ATOM      2  H   UNL     1      34.700 -21.782 -14.910  0.00  0.00    +0.174 HD
ENDROOT
BRANCH   1   3
ATOM      3  C   UNL     1      33.101 -23.156 -15.125  0.00  0.00    +0.098 C 
ATOM      4  C   UNL     1      32.403 -23.200 -16.331  0.00  0.00    +0.148 C 
ATOM      5  C   UNL     1      32.473 -23.540 -13.940  0.00  0.00    +0.019 C 
ATOM      6  C   UNL     1      31.076 -23.628 -16.353  0.00  0.00    +0.044 C 
ATOM      7  C   UNL     1      30.446 -24.011 -15.169  0.00  0.00    +0.079 C 
ATOM      8  C   UNL     1      31.145 -23.968 -13.962  0.00  0.00    +0.008 C 
BRANCH   4   9
ATOM      9  O   UNL     1      33.001 -22.831 -17.498  0.00  0.00    -0.504 OA
ATOM     10  H   UNL     1      33.864 -23.133 -17.699  0.00  0.00    +0.292 HD
ENDBRANCH   4   9
BRANCH   7  12
ATOM     11  O   UNL     1      28.158 -23.989 -15.880  0.00  0.00    -0.245 OA
ATOM     12  C   UNL     1      29.063 -24.457 -15.192  0.00  0.00    +0.338 C 
BRANCH  12  13
ATOM     13  O   UNL     1      28.847 -25.497 -14.339  0.00  0.00    -0.477 OA
ATOM     14  H   UNL     1      29.221 -25.482 -13.479  0.00  0.00    +0.295 HD
ENDBRANCH  12  13
ENDBRANCH   7  12
ENDBRANCH   1   3
BRANCH   1  15
ATOM     15  S   UNL     1      35.674 -23.926 -15.360  0.00  0.00    +0.074 S 
ATOM     16  O   UNL     1      35.040 -25.146 -15.821  0.00  0.00    -0.150 OA
ATOM     17  O   UNL     1      36.802 -23.358 -16.070  0.00  0.00    -0.150 OA
BRANCH  15  19
ATOM     18  S   UNL     1      37.478 -25.651 -11.934  0.00  0.00    -0.079 S 
ATOM     19  C   UNL     1      36.307 -24.387 -13.791  0.00  0.00    +0.138 C 
ATOM     20  C   UNL     1      37.023 -25.519 -13.580  0.00  0.00    +0.124 C 
ATOM     21  C   UNL     1      36.105 -23.599 -12.645  0.00  0.00    +0.028 C 
ATOM     22  C   UNL     1      36.698 -24.176 -11.545  0.00  0.00    +0.037 C 
BRANCH  20  24
ATOM     23  O   UNL     1      38.573 -26.801 -14.882  0.00  0.00    -0.244 OA
ATOM     24  C   UNL     1      37.422 -26.552 -14.482  0.00  0.00    +0.345 C 
BRANCH  24  25
ATOM     25  O   UNL     1      36.370 -27.318 -14.917  0.00  0.00    -0.477 OA
ATOM     26  H   UNL     1      36.281 -28.203 -14.622  0.00  0.00    +0.295 HD
ENDBRANCH  24  25
ENDBRANCH  20  24
ENDBRANCH  15  19
ENDBRANCH   1  15
TORSDOF 8
ENDMDL
MODEL 9
REMARK VINA RESULT:      -8.2      8.020     10.121
REMARK  Name = 657106
REMARK  8 active torsions:
REMARK  status: ('A' for Active; 'I' for Inactive)
REMARK    1  A    between atoms: N_1  and  C_3
REMARK    2  A    between atoms: N_1  and  S_15
REMARK    3  A    between atoms: C_4  and  O_9
REMARK    4  A    between atoms: C_7  and  C_12
REMARK    5  A    between atoms: C_12  and  O_13
REMARK    6  A    between atoms: S_15  and  C_19
REMARK    7  A    between atoms: C_20  and  C_24
REMARK    8  A    between atoms: C_24  and  O_25
REMARK                            x       y       z     vdW  Elec       q    Type
REMARK                         _______ _______ _______ _____ _____    ______ ____
ROOT
ATOM      1  N   UNL     1      34.882 -25.128 -15.002  0.00  0.00    -0.212 N 
ATOM      2  H   UNL     1      34.371 -25.720 -15.602  0.00  0.00    +0.174 HD
ENDROOT
BRANCH   1   3
ATOM      3  C   UNL     1      36.294 -25.271 -14.831  0.00  0.00    +0.098 C 
ATOM      4  C   UNL     1      37.176 -24.369 -15.425  0.00  0.00    +0.148 C 
ATOM      5  C   UNL     1      36.786 -26.325 -14.062  0.00  0.00    +0.019 C 
ATOM      6  C   UNL     1      38.551 -24.520 -15.249  0.00  0.00    +0.044 C 
ATOM      7  C   UNL     1      39.045 -25.574 -14.479  0.00  0.00    +0.079 C 
ATOM      8  C   UNL     1      38.162 -26.476 -13.885  0.00  0.00    +0.008 C 
BRANCH   4   9
ATOM      9  O   UNL     1      36.714 -23.333 -16.179  0.00  0.00    -0.504 OA
ATOM     10  H   UNL     1      36.958 -22.453 -15.967  0.00  0.00    +0.292 HD
ENDBRANCH   4   9
BRANCH   7  12
ATOM     11  O   UNL     1      41.053 -26.733 -13.873  0.00  0.00    -0.245 OA
ATOM     12  C   UNL     1      40.478 -25.732 -14.296  0.00  0.00    +0.338 C 
BRANCH  12  13
ATOM     13  O   UNL     1      41.165 -24.611 -14.654  0.00  0.00    -0.477 OA
ATOM     14  H   UNL     1      41.778 -24.644 -15.363  0.00  0.00    +0.295 HD
ENDBRANCH  12  13
ENDBRANCH   7  12
ENDBRANCH   1   3
BRANCH   1  15
ATOM     15  S   UNL     1      34.112 -23.867 -14.103  0.00  0.00    +0.074 S 
ATOM     16  O   UNL     1      33.948 -24.291 -12.726  0.00  0.00    -0.150 OA
ATOM     17  O   UNL     1      34.702 -22.584 -14.422  0.00  0.00    -0.150 OA
BRANCH  15  19
ATOM     18  S   UNL     1      30.430 -23.479 -16.168  0.00  0.00    -0.079 S 
ATOM     19  C   UNL     1      32.457 -23.763 -14.675  0.00  0.00    +0.138 C 
ATOM     20  C   UNL     1      32.131 -23.512 -15.968  0.00  0.00    +0.124 C 
ATOM     21  C   UNL     1      31.359 -23.934 -13.817  0.00  0.00    +0.028 C 
ATOM     22  C   UNL     1      30.174 -23.805 -14.506  0.00  0.00    +0.037 C 
BRANCH  20  24
ATOM     23  O   UNL     1      34.094 -23.740 -17.322  0.00  0.00    -0.244 OA
ATOM     24  C   UNL     1      32.957 -23.283 -17.110  0.00  0.00    +0.345 C 
BRANCH  24  25
ATOM     25  O   UNL     1      32.370 -22.461 -18.039  0.00  0.00    -0.477 OA
ATOM     26  H   UNL     1      31.865 -22.828 -18.738  0.00  0.00    +0.295 HD
ENDBRANCH  24  25
ENDBRANCH  20  24
ENDBRANCH  15  19
ENDBRANCH   1  15
TORSDOF 8
ENDMDL
