MODEL 1
REMARK VINA RESULT:      -9.3      0.000      0.000
REMARK  Name = 4697633
REMARK  3 active torsions:
REMARK  status: ('A' for Active; 'I' for Inactive)
REMARK    1  A    between atoms: C_2  and  C_7
REMARK    2  A    between atoms: C_4  and  C_15
REMARK    3  A    between atoms: N_14  and  N_17
REMARK                            x       y       z     vdW  Elec       q    Type
REMARK                         _______ _______ _______ _____ _____    ______ ____
ROOT
ATOM      1  O   UNL     1      34.427 -18.019 -23.022  0.00  0.00    -0.449 OA
ATOM      2  C   UNL     1      34.606 -17.933 -21.682  0.00  0.00    +0.146 C 
ATOM      3  C   UNL     1      34.817 -16.638 -21.292  0.00  0.00    +0.041 C 
ATOM      4  C   UNL     1      34.526 -16.751 -23.500  0.00  0.00    +0.200 C 
ATOM      5  C   UNL     1      34.766 -15.865 -22.476  0.00  0.00    +0.045 C 
ENDROOT
BRANCH   2   7
ATOM      6 CL   UNL     1      37.272 -19.277 -20.915  0.00  0.00    -0.082 Cl
ATOM      7  C   UNL     1      34.537 -19.192 -20.973  0.00  0.00    +0.045 C 
ATOM      8  C   UNL     1      35.685 -19.879 -20.581  0.00  0.00    +0.061 C 
ATOM      9  C   UNL     1      33.277 -19.715 -20.683  0.00  0.00    +0.004 C 
ATOM     10  C   UNL     1      35.574 -21.090 -19.899  0.00  0.00    +0.011 C 
ATOM     11  C   UNL     1      33.166 -20.925 -20.000  0.00  0.00    +0.000 C 
ATOM     12  C   UNL     1      34.314 -21.613 -19.608  0.00  0.00    +0.001 C 
ENDBRANCH   2   7
BRANCH   4  15
ATOM     13  O   UNL     1      34.915 -17.282 -25.777  0.00  0.00    -0.266 OA
ATOM     14  N   UNL     1      33.589 -15.459 -25.319  0.00  0.00    -0.247 N 
ATOM     15  C   UNL     1      34.375 -16.555 -24.903  0.00  0.00    +0.293 C 
ATOM     16  H   UNL     1      33.160 -14.883 -24.646  0.00  0.00    +0.169 HD
BRANCH  14  17
ATOM     17  N   UNL     1      33.414 -15.188 -26.664  0.00  0.00    -0.254 NA
ATOM     18  H   UNL     1      33.176 -14.204 -26.785  0.00  0.00    +0.140 HD
ATOM     19  H   UNL     1      32.659 -15.768 -27.032  0.00  0.00    +0.140 HD
ENDBRANCH  14  17
ENDBRANCH   4  15
TORSDOF 3
ENDMDL
MODEL 2
REMARK VINA RESULT:      -8.8      4.064      6.110
REMARK  Name = 4697633
REMARK  3 active torsions:
REMARK  status: ('A' for Active; 'I' for Inactive)
REMARK    1  A    between atoms: C_2  and  C_7
REMARK    2  A    between atoms: C_4  and  C_15
REMARK    3  A    between atoms: N_14  and  N_17
REMARK                            x       y       z     vdW  Elec       q    Type
REMARK                         _______ _______ _______ _____ _____    ______ ____
ROOT
ATOM      1  O   UNL     1      34.273 -19.718 -21.216  0.00  0.00    -0.449 OA
ATOM      2  C   UNL     1      35.317 -18.990 -21.682  0.00  0.00    +0.146 C 
ATOM      3  C   UNL     1      36.477 -19.314 -21.032  0.00  0.00    +0.041 C 
ATOM      4  C   UNL     1      34.777 -20.525 -20.246  0.00  0.00    +0.200 C 
ATOM      5  C   UNL     1      36.128 -20.314 -20.094  0.00  0.00    +0.045 C 
ENDROOT
BRANCH   2   7
ATOM      6 CL   UNL     1      34.823 -16.056 -20.874  0.00  0.00    -0.082 Cl
ATOM      7  C   UNL     1      34.989 -18.056 -22.736  0.00  0.00    +0.045 C 
ATOM      8  C   UNL     1      34.748 -16.708 -22.475  0.00  0.00    +0.061 C 
ATOM      9  C   UNL     1      34.918 -18.537 -24.043  0.00  0.00    +0.004 C 
ATOM     10  C   UNL     1      34.435 -15.839 -23.521  0.00  0.00    +0.011 C 
ATOM     11  C   UNL     1      34.606 -17.669 -25.089  0.00  0.00    +0.000 C 
ATOM     12  C   UNL     1      34.364 -16.321 -24.828  0.00  0.00    +0.001 C 
ENDBRANCH   2   7
BRANCH   4  15
ATOM     13  O   UNL     1      32.677 -21.129 -19.331  0.00  0.00    -0.266 OA
ATOM     14  N   UNL     1      34.391 -22.652 -19.159  0.00  0.00    -0.247 N 
ATOM     15  C   UNL     1      33.879 -21.406 -19.580  0.00  0.00    +0.293 C 
ATOM     16  H   UNL     1      35.329 -22.883 -19.348  0.00  0.00    +0.169 HD
BRANCH  14  17
ATOM     17  N   UNL     1      33.587 -23.554 -18.485  0.00  0.00    -0.254 NA
ATOM     18  H   UNL     1      32.880 -23.922 -19.121  0.00  0.00    +0.140 HD
ATOM     19  H   UNL     1      33.130 -23.082 -17.704  0.00  0.00    +0.140 HD
ENDBRANCH  14  17
ENDBRANCH   4  15
TORSDOF 3
ENDMDL
MODEL 3
REMARK VINA RESULT:      -8.8      4.073      6.049
REMARK  Name = 4697633
REMARK  3 active torsions:
REMARK  status: ('A' for Active; 'I' for Inactive)
REMARK    1  A    between atoms: C_2  and  C_7
REMARK    2  A    between atoms: C_4  and  C_15
REMARK    3  A    between atoms: N_14  and  N_17
REMARK                            x       y       z     vdW  Elec       q    Type
REMARK                         _______ _______ _______ _____ _____    ______ ____
ROOT
ATOM      1  O   UNL     1      34.273 -19.223 -20.748  0.00  0.00    -0.449 OA
ATOM      2  C   UNL     1      35.326 -18.453 -21.113  0.00  0.00    +0.146 C 
ATOM      3  C   UNL     1      36.511 -19.108 -20.919  0.00  0.00    +0.041 C 
ATOM      4  C   UNL     1      34.797 -20.397 -20.308  0.00  0.00    +0.200 C 
ATOM      5  C   UNL     1      36.170 -20.376 -20.393  0.00  0.00    +0.045 C 
ENDROOT
BRANCH   2   7
ATOM      6 CL   UNL     1      35.187 -18.099 -24.173  0.00  0.00    -0.082 Cl
ATOM      7  C   UNL     1      34.979 -17.142 -21.617  0.00  0.00    +0.045 C 
ATOM      8  C   UNL     1      34.889 -16.879 -22.983  0.00  0.00    +0.061 C 
ATOM      9  C   UNL     1      34.730 -16.127 -20.693  0.00  0.00    +0.004 C 
ATOM     10  C   UNL     1      34.550 -15.601 -23.427  0.00  0.00    +0.011 C 
ATOM     11  C   UNL     1      34.390 -14.850 -21.137  0.00  0.00    +0.000 C 
ATOM     12  C   UNL     1      34.301 -14.586 -22.503  0.00  0.00    +0.001 C 
ENDBRANCH   2   7
BRANCH   4  15
ATOM     13  O   UNL     1      32.675 -21.440 -20.163  0.00  0.00    -0.266 OA
ATOM     14  N   UNL     1      34.411 -22.393 -18.995  0.00  0.00    -0.247 N 
ATOM     15  C   UNL     1      33.895 -21.402 -19.857  0.00  0.00    +0.293 C 
ATOM     16  H   UNL     1      35.364 -22.375 -18.748  0.00  0.00    +0.169 HD
BRANCH  14  17
ATOM     17  N   UNL     1      33.592 -23.389 -18.495  0.00  0.00    -0.254 NA
ATOM     18  H   UNL     1      33.349 -24.038 -19.243  0.00  0.00    +0.140 HD
ATOM     19  H   UNL     1      32.740 -22.970 -18.119  0.00  0.00    +0.140 HD
ENDBRANCH  14  17
ENDBRANCH   4  15
TORSDOF 3
ENDMDL
MODEL 4
REMARK VINA RESULT:      -8.8      2.155      2.841
REMARK  Name = 4697633
REMARK  3 active torsions:
REMARK  status: ('A' for Active; 'I' for Inactive)
REMARK    1  A    between atoms: C_2  and  C_7
REMARK    2  A    between atoms: C_4  and  C_15
REMARK    3  A    between atoms: N_14  and  N_17
REMARK                            x       y       z     vdW  Elec       q    Type
REMARK                         _______ _______ _______ _____ _____    ______ ____
ROOT
ATOM      1  O   UNL     1      34.908 -17.595 -21.411  0.00  0.00    -0.449 OA
ATOM      2  C   UNL     1      35.129 -18.847 -21.880  0.00  0.00    +0.146 C 
ATOM      3  C   UNL     1      35.221 -18.857 -23.245  0.00  0.00    +0.041 C 
ATOM      4  C   UNL     1      34.857 -16.786 -22.501  0.00  0.00    +0.200 C 
ATOM      5  C   UNL     1      35.043 -17.514 -23.653  0.00  0.00    +0.045 C 
ENDROOT
BRANCH   2   7
ATOM      6 CL   UNL     1      32.488 -20.069 -20.862  0.00  0.00    -0.082 Cl
ATOM      7  C   UNL     1      35.218 -19.873 -20.864  0.00  0.00    +0.045 C 
ATOM      8  C   UNL     1      34.082 -20.489 -20.339  0.00  0.00    +0.061 C 
ATOM      9  C   UNL     1      36.484 -20.244 -20.412  0.00  0.00    +0.004 C 
ATOM     10  C   UNL     1      34.212 -21.475 -19.361  0.00  0.00    +0.011 C 
ATOM     11  C   UNL     1      36.614 -21.230 -19.435  0.00  0.00    +0.000 C 
ATOM     12  C   UNL     1      35.479 -21.845 -18.909  0.00  0.00    +0.001 C 
ENDBRANCH   2   7
BRANCH   4  15
ATOM     13  O   UNL     1      34.603 -14.854 -21.154  0.00  0.00    -0.266 OA
ATOM     14  N   UNL     1      34.403 -14.598 -23.430  0.00  0.00    -0.247 N 
ATOM     15  C   UNL     1      34.632 -15.396 -22.289  0.00  0.00    +0.293 C 
ATOM     16  H   UNL     1      34.424 -15.009 -24.325  0.00  0.00    +0.169 HD
BRANCH  14  17
ATOM     17  N   UNL     1      34.153 -13.244 -23.305  0.00  0.00    -0.254 NA
ATOM     18  H   UNL     1      33.203 -13.042 -23.617  0.00  0.00    +0.140 HD
ATOM     19  H   UNL     1      34.817 -12.722 -23.878  0.00  0.00    +0.140 HD
ENDBRANCH  14  17
ENDBRANCH   4  15
TORSDOF 3
ENDMDL
MODEL 5
REMARK VINA RESULT:      -8.7      1.639      2.134
REMARK  Name = 4697633
REMARK  3 active torsions:
REMARK  status: ('A' for Active; 'I' for Inactive)
REMARK    1  A    between atoms: C_2  and  C_7
REMARK    2  A    between atoms: C_4  and  C_15
REMARK    3  A    between atoms: N_14  and  N_17
REMARK                            x       y       z     vdW  Elec       q    Type
REMARK                         _______ _______ _______ _____ _____    ______ ____
ROOT
ATOM      1  O   UNL     1      34.446 -17.420 -21.593  0.00  0.00    -0.449 OA
ATOM      2  C   UNL     1      34.621 -18.681 -22.057  0.00  0.00    +0.146 C 
ATOM      3  C   UNL     1      34.901 -18.683 -23.396  0.00  0.00    +0.041 C 
ATOM      4  C   UNL     1      34.617 -16.597 -22.660  0.00  0.00    +0.200 C 
ATOM      5  C   UNL     1      34.898 -17.325 -23.793  0.00  0.00    +0.045 C 
ENDROOT
BRANCH   2   7
ATOM      6 CL   UNL     1      37.192 -19.717 -20.708  0.00  0.00    -0.082 Cl
ATOM      7  C   UNL     1      34.478 -19.723 -21.063  0.00  0.00    +0.045 C 
ATOM      8  C   UNL     1      35.579 -20.258 -20.396  0.00  0.00    +0.061 C 
ATOM      9  C   UNL     1      33.195 -20.190 -20.779  0.00  0.00    +0.004 C 
ATOM     10  C   UNL     1      35.398 -21.262 -19.444  0.00  0.00    +0.011 C 
ATOM     11  C   UNL     1      33.014 -21.193 -19.827  0.00  0.00    +0.000 C 
ATOM     12  C   UNL     1      34.115 -21.729 -19.160  0.00  0.00    +0.001 C 
ENDBRANCH   2   7
BRANCH   4  15
ATOM     13  O   UNL     1      34.543 -14.647 -21.316  0.00  0.00    -0.266 OA
ATOM     14  N   UNL     1      34.252 -14.390 -23.582  0.00  0.00    -0.247 N 
ATOM     15  C   UNL     1      34.486 -15.195 -22.447  0.00  0.00    +0.293 C 
ATOM     16  H   UNL     1      34.206 -14.805 -24.474  0.00  0.00    +0.169 HD
BRANCH  14  17
ATOM     17  N   UNL     1      34.090 -13.022 -23.455  0.00  0.00    -0.254 NA
ATOM     18  H   UNL     1      33.414 -12.826 -22.716  0.00  0.00    +0.140 HD
ATOM     19  H   UNL     1      33.749 -12.637 -24.337  0.00  0.00    +0.140 HD
ENDBRANCH  14  17
ENDBRANCH   4  15
TORSDOF 3
ENDMDL
MODEL 6
REMARK VINA RESULT:      -8.2      9.565     10.931
REMARK  Name = 4697633
REMARK  3 active torsions:
REMARK  status: ('A' for Active; 'I' for Inactive)
REMARK    1  A    between atoms: C_2  and  C_7
REMARK    2  A    between atoms: C_4  and  C_15
REMARK    3  A    between atoms: N_14  and  N_17
REMARK                            x       y       z     vdW  Elec       q    Type
REMARK                         _______ _______ _______ _____ _____    ______ ____
ROOT
ATOM      1  O   UNL     1      36.077 -24.993 -14.804  0.00  0.00    -0.449 OA
ATOM      2  C   UNL     1      35.297 -24.117 -14.126  0.00  0.00    +0.146 C 
ATOM      3  C   UNL     1      35.984 -23.535 -13.096  0.00  0.00    +0.041 C 
ATOM      4  C   UNL     1      37.290 -24.972 -14.193  0.00  0.00    +0.200 C 
ATOM      5  C   UNL     1      37.285 -24.091 -13.136  0.00  0.00    +0.045 C 
ENDROOT
BRANCH   2   7
ATOM      6 CL   UNL     1      34.921 -22.803 -16.889  0.00  0.00    -0.082 Cl
ATOM      7  C   UNL     1      33.945 -23.990 -14.624  0.00  0.00    +0.045 C 
ATOM      8  C   UNL     1      33.669 -23.411 -15.862  0.00  0.00    +0.061 C 
ATOM      9  C   UNL     1      32.903 -24.466 -13.829  0.00  0.00    +0.004 C 
ATOM     10  C   UNL     1      32.350 -23.308 -16.306  0.00  0.00    +0.011 C 
ATOM     11  C   UNL     1      31.585 -24.364 -14.273  0.00  0.00    +0.000 C 
ATOM     12  C   UNL     1      31.309 -23.784 -15.510  0.00  0.00    +0.001 C 
ENDBRANCH   2   7
BRANCH   4  15
ATOM     13  O   UNL     1      38.315 -27.068 -14.603  0.00  0.00    -0.266 OA
ATOM     14  N   UNL     1      39.394 -25.188 -15.369  0.00  0.00    -0.247 N 
ATOM     15  C   UNL     1      38.313 -25.815 -14.714  0.00  0.00    +0.293 C 
ATOM     16  H   UNL     1      39.405 -24.208 -15.464  0.00  0.00    +0.169 HD
BRANCH  14  17
ATOM     17  N   UNL     1      40.438 -25.937 -15.881  0.00  0.00    -0.254 NA
ATOM     18  H   UNL     1      40.935 -26.396 -15.118  0.00  0.00    +0.140 HD
ATOM     19  H   UNL     1      41.081 -25.324 -16.384  0.00  0.00    +0.140 HD
ENDBRANCH  14  17
ENDBRANCH   4  15
TORSDOF 3
ENDMDL
MODEL 7
REMARK VINA RESULT:      -8.1      3.525      4.389
REMARK  Name = 4697633
REMARK  3 active torsions:
REMARK  status: ('A' for Active; 'I' for Inactive)
REMARK    1  A    between atoms: C_2  and  C_7
REMARK    2  A    between atoms: C_4  and  C_15
REMARK    3  A    between atoms: N_14  and  N_17
REMARK                            x       y       z     vdW  Elec       q    Type
REMARK                         _______ _______ _______ _____ _____    ______ ____
ROOT
ATOM      1  O   UNL     1      34.317 -14.115 -23.683  0.00  0.00    -0.449 OA
ATOM      2  C   UNL     1      33.712 -14.955 -22.809  0.00  0.00    +0.146 C 
ATOM      3  C   UNL     1      32.571 -14.401 -22.297  0.00  0.00    +0.041 C 
ATOM      4  C   UNL     1      33.545 -12.998 -23.731  0.00  0.00    +0.200 C 
ATOM      5  C   UNL     1      32.459 -13.124 -22.896  0.00  0.00    +0.045 C 
ENDROOT
BRANCH   2   7
ATOM      6 CL   UNL     1      34.229 -16.690 -25.305  0.00  0.00    -0.082 Cl
ATOM      7  C   UNL     1      34.385 -16.221 -22.613  0.00  0.00    +0.045 C 
ATOM      8  C   UNL     1      34.665 -17.077 -23.676  0.00  0.00    +0.061 C 
ATOM      9  C   UNL     1      34.755 -16.574 -21.316  0.00  0.00    +0.004 C 
ATOM     10  C   UNL     1      35.317 -18.289 -23.443  0.00  0.00    +0.011 C 
ATOM     11  C   UNL     1      35.407 -17.785 -21.083  0.00  0.00    +0.000 C 
ATOM     12  C   UNL     1      35.687 -18.642 -22.146  0.00  0.00    +0.001 C 
ENDBRANCH   2   7
BRANCH   4  15
ATOM     13  O   UNL     1      33.705 -11.888 -25.818  0.00  0.00    -0.266 OA
ATOM     14  N   UNL     1      34.723 -10.903 -24.007  0.00  0.00    -0.247 N 
ATOM     15  C   UNL     1      33.959 -11.938 -24.587  0.00  0.00    +0.293 C 
ATOM     16  H   UNL     1      34.929 -10.928 -23.045  0.00  0.00    +0.169 HD
BRANCH  14  17
ATOM     17  N   UNL     1      35.183  -9.850 -24.778  0.00  0.00    -0.254 NA
ATOM     18  H   UNL     1      35.802  -9.263 -24.218  0.00  0.00    +0.140 HD
ATOM     19  H   UNL     1      34.390  -9.295 -25.102  0.00  0.00    +0.140 HD
ENDBRANCH  14  17
ENDBRANCH   4  15
TORSDOF 3
ENDMDL
MODEL 8
REMARK VINA RESULT:      -8.0      8.321      9.766
REMARK  Name = 4697633
REMARK  3 active torsions:
REMARK  status: ('A' for Active; 'I' for Inactive)
REMARK    1  A    between atoms: C_2  and  C_7
REMARK    2  A    between atoms: C_4  and  C_15
REMARK    3  A    between atoms: N_14  and  N_17
REMARK                            x       y       z     vdW  Elec       q    Type
REMARK                         _______ _______ _______ _____ _____    ______ ____
ROOT
ATOM      1  O   UNL     1      30.232 -23.170 -16.504  0.00  0.00    -0.449 OA
ATOM      2  C   UNL     1      31.168 -23.821 -15.772  0.00  0.00    +0.146 C 
ATOM      3  C   UNL     1      30.591 -24.699 -14.896  0.00  0.00    +0.041 C 
ATOM      4  C   UNL     1      29.029 -23.642 -16.086  0.00  0.00    +0.200 C 
ATOM      5  C   UNL     1      29.195 -24.584 -15.099  0.00  0.00    +0.045 C 
ENDROOT
BRANCH   2   7
ATOM      6 CL   UNL     1      33.170 -23.811 -13.427  0.00  0.00    -0.082 Cl
ATOM      7  C   UNL     1      32.537 -23.457 -16.067  0.00  0.00    +0.045 C 
ATOM      8  C   UNL     1      33.518 -23.423 -15.077  0.00  0.00    +0.061 C 
ATOM      9  C   UNL     1      32.863 -23.137 -17.384  0.00  0.00    +0.004 C 
ATOM     10  C   UNL     1      34.827 -23.068 -15.404  0.00  0.00    +0.011 C 
ATOM     11  C   UNL     1      34.172 -22.782 -17.711  0.00  0.00    +0.000 C 
ATOM     12  C   UNL     1      35.153 -22.747 -16.721  0.00  0.00    +0.001 C 
ENDBRANCH   2   7
BRANCH   4  15
ATOM     13  O   UNL     1      27.507 -23.375 -17.882  0.00  0.00    -0.266 OA
ATOM     14  N   UNL     1      27.067 -22.233 -15.936  0.00  0.00    -0.247 N 
ATOM     15  C   UNL     1      27.858 -23.116 -16.702  0.00  0.00    +0.293 C 
ATOM     16  H   UNL     1      27.329 -22.022 -15.011  0.00  0.00    +0.169 HD
BRANCH  14  17
ATOM     17  N   UNL     1      25.927 -21.662 -16.471  0.00  0.00    -0.254 NA
ATOM     18  H   UNL     1      26.040 -21.555 -17.479  0.00  0.00    +0.140 HD
ATOM     19  H   UNL     1      25.775 -20.746 -16.048  0.00  0.00    +0.140 HD
ENDBRANCH  14  17
ENDBRANCH   4  15
TORSDOF 3
ENDMDL
MODEL 9
REMARK VINA RESULT:      -8.0      3.797      5.865
REMARK  Name = 4697633
REMARK  3 active torsions:
REMARK  status: ('A' for Active; 'I' for Inactive)
REMARK    1  A    between atoms: C_2  and  C_7
REMARK    2  A    between atoms: C_4  and  C_15
REMARK    3  A    between atoms: N_14  and  N_17
REMARK                            x       y       z     vdW  Elec       q    Type
REMARK                         _______ _______ _______ _____ _____    ______ ____
ROOT
ATOM      1  O   UNL     1      33.961 -17.853 -21.163  0.00  0.00    -0.449 OA
ATOM      2  C   UNL     1      34.449 -16.846 -21.928  0.00  0.00    +0.146 C 
ATOM      3  C   UNL     1      35.578 -17.233 -22.597  0.00  0.00    +0.041 C 
ATOM      4  C   UNL     1      34.798 -18.907 -21.346  0.00  0.00    +0.200 C 
ATOM      5  C   UNL     1      35.809 -18.577 -22.218  0.00  0.00    +0.045 C 
ENDROOT
BRANCH   2   7
ATOM      6 CL   UNL     1      33.687 -15.531 -24.610  0.00  0.00    -0.082 Cl
ATOM      7  C   UNL     1      33.691 -15.615 -21.874  0.00  0.00    +0.045 C 
ATOM      8  C   UNL     1      33.297 -14.943 -23.031  0.00  0.00    +0.061 C 
ATOM      9  C   UNL     1      33.353 -15.104 -20.621  0.00  0.00    +0.004 C 
ATOM     10  C   UNL     1      32.566 -13.759 -22.935  0.00  0.00    +0.011 C 
ATOM     11  C   UNL     1      32.622 -13.921 -20.525  0.00  0.00    +0.000 C 
ATOM     12  C   UNL     1      32.229 -13.248 -21.682  0.00  0.00    +0.001 C 
ENDBRANCH   2   7
BRANCH   4  15
ATOM     13  O   UNL     1      35.393 -20.913 -20.235  0.00  0.00    -0.266 OA
ATOM     14  N   UNL     1      33.154 -20.428 -20.431  0.00  0.00    -0.247 N 
ATOM     15  C   UNL     1      34.512 -20.113 -20.646  0.00  0.00    +0.293 C 
ATOM     16  H   UNL     1      32.454 -19.811 -20.747  0.00  0.00    +0.169 HD
BRANCH  14  17
ATOM     17  N   UNL     1      32.794 -21.594 -19.780  0.00  0.00    -0.254 NA
ATOM     18  H   UNL     1      33.552 -21.887 -19.163  0.00  0.00    +0.140 HD
ATOM     19  H   UNL     1      32.614 -22.326 -20.469  0.00  0.00    +0.140 HD
ENDBRANCH  14  17
ENDBRANCH   4  15
TORSDOF 3
ENDMDL
