MODEL 1
REMARK VINA RESULT:      -5.4      0.000      0.000
REMARK  Name = 444570
REMARK  0 active torsions:
REMARK  status: ('A' for Active; 'I' for Inactive)
REMARK                            x       y       z     vdW  Elec       q    Type
REMARK                         _______ _______ _______ _____ _____    ______ ____
ROOT
ATOM      1  O   UNL     1      35.463 -21.736 -19.388  0.00  0.00    -0.275 OA
ATOM      2  N   UNL     1      35.507 -19.732 -20.628  0.00  0.00    -0.281 N 
ATOM      3  C   UNL     1      34.551 -18.926 -21.389  0.00  0.00    +0.061 C 
ATOM      4  C   UNL     1      33.218 -19.353 -20.757  0.00  0.00    +0.028 C 
ATOM      5  C   UNL     1      33.445 -20.805 -20.346  0.00  0.00    +0.087 C 
ATOM      6  C   UNL     1      34.919 -20.847 -20.028  0.00  0.00    +0.226 C 
ATOM      7  C   UNL     1      34.592 -19.300 -22.878  0.00  0.00    +0.020 C 
ATOM      8  C   UNL     1      34.764 -17.419 -21.224  0.00  0.00    +0.020 C 
ATOM      9  C   UNL     1      36.933 -19.460 -20.607  0.00  0.00    +0.115 C 
ENDROOT
TORSDOF 0
ENDMDL
MODEL 2
REMARK VINA RESULT:      -5.3      3.443      4.655
REMARK  Name = 444570
REMARK  0 active torsions:
REMARK  status: ('A' for Active; 'I' for Inactive)
REMARK                            x       y       z     vdW  Elec       q    Type
REMARK                         _______ _______ _______ _____ _____    ______ ____
ROOT
ATOM      1  O   UNL     1      34.661 -16.704 -25.753  0.00  0.00    -0.275 OA
ATOM      2  N   UNL     1      34.764 -18.204 -23.938  0.00  0.00    -0.281 N 
ATOM      3  C   UNL     1      34.979 -18.117 -22.492  0.00  0.00    +0.061 C 
ATOM      4  C   UNL     1      34.565 -16.667 -22.206  0.00  0.00    +0.028 C 
ATOM      5  C   UNL     1      34.929 -15.913 -23.482  0.00  0.00    +0.087 C 
ATOM      6  C   UNL     1      34.753 -16.953 -24.559  0.00  0.00    +0.226 C 
ATOM      7  C   UNL     1      36.461 -18.337 -22.152  0.00  0.00    +0.020 C 
ATOM      8  C   UNL     1      34.110 -19.091 -21.691  0.00  0.00    +0.020 C 
ATOM      9  C   UNL     1      34.691 -19.465 -24.653  0.00  0.00    +0.115 C 
ENDROOT
TORSDOF 0
ENDMDL
MODEL 3
REMARK VINA RESULT:      -5.3      3.065      4.210
REMARK  Name = 444570
REMARK  0 active torsions:
REMARK  status: ('A' for Active; 'I' for Inactive)
REMARK                            x       y       z     vdW  Elec       q    Type
REMARK                         _______ _______ _______ _____ _____    ______ ____
ROOT
ATOM      1  O   UNL     1      34.213 -15.615 -23.878  0.00  0.00    -0.275 OA
ATOM      2  N   UNL     1      34.864 -17.106 -22.172  0.00  0.00    -0.281 N 
ATOM      3  C   UNL     1      35.150 -18.537 -22.056  0.00  0.00    +0.061 C 
ATOM      4  C   UNL     1      35.513 -18.896 -23.504  0.00  0.00    +0.028 C 
ATOM      5  C   UNL     1      34.673 -17.944 -24.350  0.00  0.00    +0.087 C 
ATOM      6  C   UNL     1      34.556 -16.719 -23.478  0.00  0.00    +0.226 C 
ATOM      7  C   UNL     1      33.897 -19.303 -21.604  0.00  0.00    +0.020 C 
ATOM      8  C   UNL     1      36.318 -18.847 -21.117  0.00  0.00    +0.020 C 
ATOM      9  C   UNL     1      34.793 -16.217 -21.026  0.00  0.00    +0.115 C 
ENDROOT
TORSDOF 0
ENDMDL
MODEL 4
REMARK VINA RESULT:      -5.2     10.706     12.337
REMARK  Name = 444570
REMARK  0 active torsions:
REMARK  status: ('A' for Active; 'I' for Inactive)
REMARK                            x       y       z     vdW  Elec       q    Type
REMARK                         _______ _______ _______ _____ _____    ______ ____
ROOT
ATOM      1  O   UNL     1      35.284  -9.478 -24.026  0.00  0.00    -0.275 OA
ATOM      2  N   UNL     1      33.115  -8.794 -23.406  0.00  0.00    -0.281 N 
ATOM      3  C   UNL     1      32.395  -7.528 -23.261  0.00  0.00    +0.061 C 
ATOM      4  C   UNL     1      33.205  -6.607 -24.185  0.00  0.00    +0.028 C 
ATOM      5  C   UNL     1      34.629  -7.149 -24.104  0.00  0.00    +0.087 C 
ATOM      6  C   UNL     1      34.423  -8.624 -23.867  0.00  0.00    +0.226 C 
ATOM      7  C   UNL     1      32.459  -7.034 -21.808  0.00  0.00    +0.020 C 
ATOM      8  C   UNL     1      30.937  -7.604 -23.723  0.00  0.00    +0.020 C 
ATOM      9  C   UNL     1      32.560 -10.072 -22.999  0.00  0.00    +0.115 C 
ENDROOT
TORSDOF 0
ENDMDL
MODEL 5
REMARK VINA RESULT:      -5.1      9.918     11.366
REMARK  Name = 444570
REMARK  0 active torsions:
REMARK  status: ('A' for Active; 'I' for Inactive)
REMARK                            x       y       z     vdW  Elec       q    Type
REMARK                         _______ _______ _______ _____ _____    ______ ____
ROOT
ATOM      1  O   UNL     1      31.937  -9.256 -19.175  0.00  0.00    -0.275 OA
ATOM      2  N   UNL     1      32.051  -9.608 -21.503  0.00  0.00    -0.281 N 
ATOM      3  C   UNL     1      32.421  -8.827 -22.684  0.00  0.00    +0.061 C 
ATOM      4  C   UNL     1      33.337  -7.758 -22.071  0.00  0.00    +0.028 C 
ATOM      5  C   UNL     1      32.782  -7.546 -20.666  0.00  0.00    +0.087 C 
ATOM      6  C   UNL     1      32.218  -8.900 -20.311  0.00  0.00    +0.226 C 
ATOM      7  C   UNL     1      31.178  -8.181 -23.316  0.00  0.00    +0.020 C 
ATOM      8  C   UNL     1      33.177  -9.642 -23.737  0.00  0.00    +0.020 C 
ATOM      9  C   UNL     1      31.463 -10.933 -21.582  0.00  0.00    +0.115 C 
ENDROOT
TORSDOF 0
ENDMDL
MODEL 6
REMARK VINA RESULT:      -5.0      8.271      9.501
REMARK  Name = 444570
REMARK  0 active torsions:
REMARK  status: ('A' for Active; 'I' for Inactive)
REMARK                            x       y       z     vdW  Elec       q    Type
REMARK                         _______ _______ _______ _____ _____    ______ ____
ROOT
ATOM      1  O   UNL     1      36.869 -26.311 -11.639  0.00  0.00    -0.275 OA
ATOM      2  N   UNL     1      37.659 -24.754 -13.223  0.00  0.00    -0.281 N 
ATOM      3  C   UNL     1      38.006 -24.760 -14.645  0.00  0.00    +0.061 C 
ATOM      4  C   UNL     1      37.189 -25.956 -15.155  0.00  0.00    +0.028 C 
ATOM      5  C   UNL     1      37.140 -26.913 -13.967  0.00  0.00    +0.087 C 
ATOM      6  C   UNL     1      37.178 -25.987 -12.777  0.00  0.00    +0.226 C 
ATOM      7  C   UNL     1      39.510 -25.009 -14.833  0.00  0.00    +0.020 C 
ATOM      8  C   UNL     1      37.593 -23.479 -15.374  0.00  0.00    +0.020 C 
ATOM      9  C   UNL     1      37.906 -23.618 -12.352  0.00  0.00    +0.115 C 
ENDROOT
TORSDOF 0
ENDMDL
MODEL 7
REMARK VINA RESULT:      -4.9      0.845      2.519
REMARK  Name = 444570
REMARK  0 active torsions:
REMARK  status: ('A' for Active; 'I' for Inactive)
REMARK                            x       y       z     vdW  Elec       q    Type
REMARK                         _______ _______ _______ _____ _____    ______ ____
ROOT
ATOM      1  O   UNL     1      35.436 -21.226 -19.528  0.00  0.00    -0.275 OA
ATOM      2  N   UNL     1      34.652 -19.601 -21.044  0.00  0.00    -0.281 N 
ATOM      3  C   UNL     1      35.211 -18.458 -21.769  0.00  0.00    +0.061 C 
ATOM      4  C   UNL     1      36.703 -18.820 -21.807  0.00  0.00    +0.028 C 
ATOM      5  C   UNL     1      36.934 -19.604 -20.519  0.00  0.00    +0.087 C 
ATOM      6  C   UNL     1      35.606 -20.281 -20.284  0.00  0.00    +0.226 C 
ATOM      7  C   UNL     1      34.986 -17.158 -20.983  0.00  0.00    +0.020 C 
ATOM      8  C   UNL     1      34.658 -18.312 -23.189  0.00  0.00    +0.020 C 
ATOM      9  C   UNL     1      33.234 -19.912 -21.030  0.00  0.00    +0.115 C 
ENDROOT
TORSDOF 0
ENDMDL
MODEL 8
REMARK VINA RESULT:      -4.9      8.450      9.276
REMARK  Name = 444570
REMARK  0 active torsions:
REMARK  status: ('A' for Active; 'I' for Inactive)
REMARK                            x       y       z     vdW  Elec       q    Type
REMARK                         _______ _______ _______ _____ _____    ______ ____
ROOT
ATOM      1  O   UNL     1      35.436 -25.037 -10.907  0.00  0.00    -0.275 OA
ATOM      2  N   UNL     1      36.699 -25.031 -12.897  0.00  0.00    -0.281 N 
ATOM      3  C   UNL     1      36.489 -24.645 -14.293  0.00  0.00    +0.061 C 
ATOM      4  C   UNL     1      35.344 -23.630 -14.163  0.00  0.00    +0.028 C 
ATOM      5  C   UNL     1      34.543 -24.119 -12.960  0.00  0.00    +0.087 C 
ATOM      6  C   UNL     1      35.589 -24.770 -12.090  0.00  0.00    +0.226 C 
ATOM      7  C   UNL     1      36.050 -25.857 -15.129  0.00  0.00    +0.020 C 
ATOM      8  C   UNL     1      37.717 -23.989 -14.931  0.00  0.00    +0.020 C 
ATOM      9  C   UNL     1      37.891 -25.719 -12.436  0.00  0.00    +0.115 C 
ENDROOT
TORSDOF 0
ENDMDL
MODEL 9
REMARK VINA RESULT:      -4.9     11.796     13.315
REMARK  Name = 444570
REMARK  0 active torsions:
REMARK  status: ('A' for Active; 'I' for Inactive)
REMARK                            x       y       z     vdW  Elec       q    Type
REMARK                         _______ _______ _______ _____ _____    ______ ____
ROOT
ATOM      1  O   UNL     1      30.309  -5.301 -22.244  0.00  0.00    -0.275 OA
ATOM      2  N   UNL     1      31.544  -7.180 -22.951  0.00  0.00    -0.281 N 
ATOM      3  C   UNL     1      32.645  -7.992 -22.429  0.00  0.00    +0.061 C 
ATOM      4  C   UNL     1      32.532  -7.730 -20.921  0.00  0.00    +0.028 C 
ATOM      5  C   UNL     1      31.993  -6.306 -20.825  0.00  0.00    +0.087 C 
ATOM      6  C   UNL     1      31.149  -6.172 -22.069  0.00  0.00    +0.226 C 
ATOM      7  C   UNL     1      33.992  -7.488 -22.970  0.00  0.00    +0.020 C 
ATOM      8  C   UNL     1      32.489  -9.486 -22.728  0.00  0.00    +0.020 C 
ATOM      9  C   UNL     1      31.010  -7.337 -24.292  0.00  0.00    +0.115 C 
ENDROOT
TORSDOF 0
ENDMDL
