MODEL 1
REMARK VINA RESULT:      -9.1      0.000      0.000
REMARK  Name = 445154
REMARK  5 active torsions:
REMARK  status: ('A' for Active; 'I' for Inactive)
REMARK    1  A    between atoms: C_1  and  C_11
REMARK    2  A    between atoms: C_4  and  O_7
REMARK    3  A    between atoms: C_5  and  O_9
REMARK    4  A    between atoms: C_12  and  C_13
REMARK    5  A    between atoms: C_18  and  O_19
REMARK                            x       y       z     vdW  Elec       q    Type
REMARK                         _______ _______ _______ _____ _____    ______ ____
ROOT
ATOM      1  C   UNL     1      34.667 -17.240 -22.307  0.00  0.00    +0.006 C 
ATOM      2  C   UNL     1      34.738 -17.664 -23.624  0.00  0.00    +0.037 C 
ATOM      3  C   UNL     1      34.548 -15.896 -21.988  0.00  0.00    +0.037 C 
ATOM      4  C   UNL     1      34.499 -14.952 -23.013  0.00  0.00    +0.137 C 
ATOM      5  C   UNL     1      34.689 -16.720 -24.649  0.00  0.00    +0.137 C 
ATOM      6  C   UNL     1      34.570 -15.364 -24.344  0.00  0.00    +0.073 C 
ENDROOT
BRANCH   4   7
ATOM      7  O   UNL     1      34.382 -13.629 -22.716  0.00  0.00    -0.505 OA
ATOM      8  H   UNL     1      33.823 -13.081 -23.230  0.00  0.00    +0.292 HD
ENDBRANCH   4   7
BRANCH   5   9
ATOM      9  O   UNL     1      34.759 -17.121 -25.948  0.00  0.00    -0.505 OA
ATOM     10  H   UNL     1      34.476 -16.546 -26.632  0.00  0.00    +0.292 HD
ENDBRANCH   5   9
BRANCH   1  11
ATOM     11  C   UNL     1      34.720 -18.237 -21.224  0.00  0.00    +0.000 C 
ATOM     12  C   UNL     1      34.467 -19.559 -21.367  0.00  0.00    +0.000 C 
BRANCH  12  13
ATOM     13  C   UNL     1      34.539 -20.547 -20.302  0.00  0.00    +0.000 C 
ATOM     14  C   UNL     1      35.773 -20.904 -19.763  0.00  0.00    +0.003 C 
ATOM     15  C   UNL     1      33.370 -21.138 -19.820  0.00  0.00    +0.003 C 
ATOM     16  C   UNL     1      35.842 -21.851 -18.742  0.00  0.00    +0.037 C 
ATOM     17  C   UNL     1      33.438 -22.085 -18.798  0.00  0.00    +0.037 C 
ATOM     18  C   UNL     1      34.674 -22.442 -18.259  0.00  0.00    +0.134 C 
BRANCH  18  19
ATOM     19  O   UNL     1      34.740 -23.367 -17.263  0.00  0.00    -0.506 OA
ATOM     20  H   UNL     1      35.498 -23.911 -17.179  0.00  0.00    +0.292 HD
ENDBRANCH  18  19
ENDBRANCH  12  13
ENDBRANCH   1  11
TORSDOF 5
ENDMDL
MODEL 2
REMARK VINA RESULT:      -9.1      0.014      2.330
REMARK  Name = 445154
REMARK  5 active torsions:
REMARK  status: ('A' for Active; 'I' for Inactive)
REMARK    1  A    between atoms: C_1  and  C_11
REMARK    2  A    between atoms: C_4  and  O_7
REMARK    3  A    between atoms: C_5  and  O_9
REMARK    4  A    between atoms: C_12  and  C_13
REMARK    5  A    between atoms: C_18  and  O_19
REMARK                            x       y       z     vdW  Elec       q    Type
REMARK                         _______ _______ _______ _____ _____    ______ ____
ROOT
ATOM      1  C   UNL     1      34.686 -17.243 -22.307  0.00  0.00    +0.006 C 
ATOM      2  C   UNL     1      34.565 -15.901 -21.985  0.00  0.00    +0.037 C 
ATOM      3  C   UNL     1      34.751 -17.665 -23.625  0.00  0.00    +0.037 C 
ATOM      4  C   UNL     1      34.693 -16.720 -24.649  0.00  0.00    +0.137 C 
ATOM      5  C   UNL     1      34.507 -14.955 -23.009  0.00  0.00    +0.137 C 
ATOM      6  C   UNL     1      34.572 -15.365 -24.341  0.00  0.00    +0.073 C 
ENDROOT
BRANCH   4   7
ATOM      7  O   UNL     1      34.757 -17.119 -25.949  0.00  0.00    -0.505 OA
ATOM      8  H   UNL     1      34.057 -16.912 -26.537  0.00  0.00    +0.292 HD
ENDBRANCH   4   7
BRANCH   5   9
ATOM      9  O   UNL     1      34.387 -13.633 -22.709  0.00  0.00    -0.505 OA
ATOM     10  H   UNL     1      33.681 -13.337 -22.167  0.00  0.00    +0.292 HD
ENDBRANCH   5   9
BRANCH   1  11
ATOM     11  C   UNL     1      34.745 -18.242 -21.225  0.00  0.00    +0.000 C 
ATOM     12  C   UNL     1      34.444 -19.554 -21.358  0.00  0.00    +0.000 C 
BRANCH  12  13
ATOM     13  C   UNL     1      34.522 -20.544 -20.295  0.00  0.00    +0.000 C 
ATOM     14  C   UNL     1      33.358 -21.134 -19.805  0.00  0.00    +0.003 C 
ATOM     15  C   UNL     1      35.762 -20.903 -19.765  0.00  0.00    +0.003 C 
ATOM     16  C   UNL     1      33.432 -22.083 -18.786  0.00  0.00    +0.037 C 
ATOM     17  C   UNL     1      35.836 -21.852 -18.746  0.00  0.00    +0.037 C 
ATOM     18  C   UNL     1      34.672 -22.443 -18.256  0.00  0.00    +0.134 C 
BRANCH  18  19
ATOM     19  O   UNL     1      34.745 -23.368 -17.261  0.00  0.00    -0.506 OA
ATOM     20  H   UNL     1      34.385 -24.224 -17.390  0.00  0.00    +0.292 HD
ENDBRANCH  18  19
ENDBRANCH  12  13
ENDBRANCH   1  11
TORSDOF 5
ENDMDL
MODEL 3
REMARK VINA RESULT:      -9.1      1.428      7.414
REMARK  Name = 445154
REMARK  5 active torsions:
REMARK  status: ('A' for Active; 'I' for Inactive)
REMARK    1  A    between atoms: C_1  and  C_11
REMARK    2  A    between atoms: C_4  and  O_7
REMARK    3  A    between atoms: C_5  and  O_9
REMARK    4  A    between atoms: C_12  and  C_13
REMARK    5  A    between atoms: C_18  and  O_19
REMARK                            x       y       z     vdW  Elec       q    Type
REMARK                         _______ _______ _______ _____ _____    ______ ____
ROOT
ATOM      1  C   UNL     1      34.213 -20.785 -20.026  0.00  0.00    +0.006 C 
ATOM      2  C   UNL     1      33.110 -21.397 -19.454  0.00  0.00    +0.037 C 
ATOM      3  C   UNL     1      35.497 -21.040 -19.570  0.00  0.00    +0.037 C 
ATOM      4  C   UNL     1      35.681 -21.930 -18.512  0.00  0.00    +0.137 C 
ATOM      5  C   UNL     1      33.295 -22.287 -18.397  0.00  0.00    +0.137 C 
ATOM      6  C   UNL     1      34.580 -22.554 -17.925  0.00  0.00    +0.073 C 
ENDROOT
BRANCH   4   7
ATOM      7  O   UNL     1      36.936 -22.192 -18.053  0.00  0.00    -0.505 OA
ATOM      8  H   UNL     1      37.639 -22.317 -18.658  0.00  0.00    +0.292 HD
ENDBRANCH   4   7
BRANCH   5   9
ATOM      9  O   UNL     1      32.220 -22.894 -17.823  0.00  0.00    -0.505 OA
ATOM     10  H   UNL     1      31.634 -22.399 -17.284  0.00  0.00    +0.292 HD
ENDBRANCH   5   9
BRANCH   1  11
ATOM     11  C   UNL     1      34.018 -19.843 -21.143  0.00  0.00    +0.000 C 
ATOM     12  C   UNL     1      35.010 -19.272 -21.864  0.00  0.00    +0.000 C 
BRANCH  12  13
ATOM     13  C   UNL     1      34.818 -18.358 -22.979  0.00  0.00    +0.000 C 
ATOM     14  C   UNL     1      34.880 -16.981 -22.771  0.00  0.00    +0.003 C 
ATOM     15  C   UNL     1      34.570 -18.860 -24.257  0.00  0.00    +0.003 C 
ATOM     16  C   UNL     1      34.695 -16.105 -23.840  0.00  0.00    +0.037 C 
ATOM     17  C   UNL     1      34.385 -17.983 -25.326  0.00  0.00    +0.037 C 
ATOM     18  C   UNL     1      34.448 -16.606 -25.118  0.00  0.00    +0.134 C 
BRANCH  18  19
ATOM     19  O   UNL     1      34.267 -15.751 -26.162  0.00  0.00    -0.506 OA
ATOM     20  H   UNL     1      35.008 -15.409 -26.621  0.00  0.00    +0.292 HD
ENDBRANCH  18  19
ENDBRANCH  12  13
ENDBRANCH   1  11
TORSDOF 5
ENDMDL
MODEL 4
REMARK VINA RESULT:      -9.1      0.081      1.174
REMARK  Name = 445154
REMARK  5 active torsions:
REMARK  status: ('A' for Active; 'I' for Inactive)
REMARK    1  A    between atoms: C_1  and  C_11
REMARK    2  A    between atoms: C_4  and  O_7
REMARK    3  A    between atoms: C_5  and  O_9
REMARK    4  A    between atoms: C_12  and  C_13
REMARK    5  A    between atoms: C_18  and  O_19
REMARK                            x       y       z     vdW  Elec       q    Type
REMARK                         _______ _______ _______ _____ _____    ______ ____
ROOT
ATOM      1  C   UNL     1      34.576 -17.257 -22.284  0.00  0.00    +0.006 C 
ATOM      2  C   UNL     1      34.681 -17.688 -23.596  0.00  0.00    +0.037 C 
ATOM      3  C   UNL     1      34.484 -15.910 -21.973  0.00  0.00    +0.037 C 
ATOM      4  C   UNL     1      34.497 -14.969 -23.003  0.00  0.00    +0.137 C 
ATOM      5  C   UNL     1      34.694 -16.747 -24.625  0.00  0.00    +0.137 C 
ATOM      6  C   UNL     1      34.603 -15.387 -24.329  0.00  0.00    +0.073 C 
ENDROOT
BRANCH   4   7
ATOM      7  O   UNL     1      34.407 -13.641 -22.713  0.00  0.00    -0.505 OA
ATOM      8  H   UNL     1      35.130 -13.073 -22.890  0.00  0.00    +0.292 HD
ENDBRANCH   4   7
BRANCH   5   9
ATOM      9  O   UNL     1      34.799 -17.156 -25.920  0.00  0.00    -0.505 OA
ATOM     10  H   UNL     1      34.168 -17.752 -26.276  0.00  0.00    +0.292 HD
ENDBRANCH   5   9
BRANCH   1  11
ATOM     11  C   UNL     1      34.563 -18.251 -21.196  0.00  0.00    +0.000 C 
ATOM     12  C   UNL     1      34.602 -19.593 -21.365  0.00  0.00    +0.000 C 
BRANCH  12  13
ATOM     13  C   UNL     1      34.609 -20.574 -20.292  0.00  0.00    +0.000 C 
ATOM     14  C   UNL     1      33.411 -21.126 -19.843  0.00  0.00    +0.003 C 
ATOM     15  C   UNL     1      35.817 -20.963 -19.710  0.00  0.00    +0.003 C 
ATOM     16  C   UNL     1      33.417 -22.066 -18.813  0.00  0.00    +0.037 C 
ATOM     17  C   UNL     1      35.824 -21.903 -18.681  0.00  0.00    +0.037 C 
ATOM     18  C   UNL     1      34.624 -22.456 -18.232  0.00  0.00    +0.134 C 
BRANCH  18  19
ATOM     19  O   UNL     1      34.632 -23.373 -17.227  0.00  0.00    -0.506 OA
ATOM     20  H   UNL     1      34.993 -24.225 -17.373  0.00  0.00    +0.292 HD
ENDBRANCH  18  19
ENDBRANCH  12  13
ENDBRANCH   1  11
TORSDOF 5
ENDMDL
MODEL 5
REMARK VINA RESULT:      -9.0      1.415      7.418
REMARK  Name = 445154
REMARK  5 active torsions:
REMARK  status: ('A' for Active; 'I' for Inactive)
REMARK    1  A    between atoms: C_1  and  C_11
REMARK    2  A    between atoms: C_4  and  O_7
REMARK    3  A    between atoms: C_5  and  O_9
REMARK    4  A    between atoms: C_12  and  C_13
REMARK    5  A    between atoms: C_18  and  O_19
REMARK                            x       y       z     vdW  Elec       q    Type
REMARK                         _______ _______ _______ _____ _____    ______ ____
ROOT
ATOM      1  C   UNL     1      34.197 -20.796 -20.045  0.00  0.00    +0.006 C 
ATOM      2  C   UNL     1      35.484 -21.035 -19.591  0.00  0.00    +0.037 C 
ATOM      3  C   UNL     1      33.102 -21.415 -19.464  0.00  0.00    +0.037 C 
ATOM      4  C   UNL     1      33.299 -22.297 -18.402  0.00  0.00    +0.137 C 
ATOM      5  C   UNL     1      35.681 -21.917 -18.529  0.00  0.00    +0.137 C 
ATOM      6  C   UNL     1      34.589 -22.548 -17.934  0.00  0.00    +0.073 C 
ENDROOT
BRANCH   4   7
ATOM      7  O   UNL     1      32.233 -22.913 -17.821  0.00  0.00    -0.505 OA
ATOM      8  H   UNL     1      31.501 -23.175 -18.344  0.00  0.00    +0.292 HD
ENDBRANCH   4   7
BRANCH   5   9
ATOM      9  O   UNL     1      36.940 -22.163 -18.073  0.00  0.00    -0.505 OA
ATOM     10  H   UNL     1      37.152 -22.006 -17.173  0.00  0.00    +0.292 HD
ENDBRANCH   5   9
BRANCH   1  11
ATOM     11  C   UNL     1      33.989 -19.866 -21.168  0.00  0.00    +0.000 C 
ATOM     12  C   UNL     1      34.970 -19.212 -21.832  0.00  0.00    +0.000 C 
BRANCH  12  13
ATOM     13  C   UNL     1      34.767 -18.308 -22.953  0.00  0.00    +0.000 C 
ATOM     14  C   UNL     1      34.733 -16.931 -22.742  0.00  0.00    +0.003 C 
ATOM     15  C   UNL     1      34.605 -18.821 -24.241  0.00  0.00    +0.003 C 
ATOM     16  C   UNL     1      34.538 -16.064 -23.818  0.00  0.00    +0.037 C 
ATOM     17  C   UNL     1      34.409 -17.954 -25.316  0.00  0.00    +0.037 C 
ATOM     18  C   UNL     1      34.376 -16.576 -25.105  0.00  0.00    +0.134 C 
BRANCH  18  19
ATOM     19  O   UNL     1      34.185 -15.731 -26.155  0.00  0.00    -0.506 OA
ATOM     20  H   UNL     1      34.912 -15.268 -26.521  0.00  0.00    +0.292 HD
ENDBRANCH  18  19
ENDBRANCH  12  13
ENDBRANCH   1  11
TORSDOF 5
ENDMDL
MODEL 6
REMARK VINA RESULT:      -8.7      1.006      2.551
REMARK  Name = 445154
REMARK  5 active torsions:
REMARK  status: ('A' for Active; 'I' for Inactive)
REMARK    1  A    between atoms: C_1  and  C_11
REMARK    2  A    between atoms: C_4  and  O_7
REMARK    3  A    between atoms: C_5  and  O_9
REMARK    4  A    between atoms: C_12  and  C_13
REMARK    5  A    between atoms: C_18  and  O_19
REMARK                            x       y       z     vdW  Elec       q    Type
REMARK                         _______ _______ _______ _____ _____    ______ ____
ROOT
ATOM      1  C   UNL     1      34.051 -16.416 -22.474  0.00  0.00    +0.006 C 
ATOM      2  C   UNL     1      33.656 -15.166 -22.027  0.00  0.00    +0.037 C 
ATOM      3  C   UNL     1      34.233 -16.675 -23.823  0.00  0.00    +0.037 C 
ATOM      4  C   UNL     1      34.013 -15.657 -24.750  0.00  0.00    +0.137 C 
ATOM      5  C   UNL     1      33.437 -14.147 -22.954  0.00  0.00    +0.137 C 
ATOM      6  C   UNL     1      33.615 -14.392 -24.316  0.00  0.00    +0.073 C 
ENDROOT
BRANCH   4   7
ATOM      7  O   UNL     1      34.189 -15.896 -26.079  0.00  0.00    -0.505 OA
ATOM      8  H   UNL     1      33.497 -16.279 -26.580  0.00  0.00    +0.292 HD
ENDBRANCH   4   7
BRANCH   5   9
ATOM      9  O   UNL     1      33.047 -12.913 -22.531  0.00  0.00    -0.505 OA
ATOM     10  H   UNL     1      32.228 -12.807 -22.086  0.00  0.00    +0.292 HD
ENDBRANCH   5   9
BRANCH   1  11
ATOM     11  C   UNL     1      34.282 -17.493 -21.494  0.00  0.00    +0.000 C 
ATOM     12  C   UNL     1      34.137 -18.815 -21.740  0.00  0.00    +0.000 C 
BRANCH  12  13
ATOM     13  C   UNL     1      34.384 -19.879 -20.779  0.00  0.00    +0.000 C 
ATOM     14  C   UNL     1      33.314 -20.571 -20.214  0.00  0.00    +0.003 C 
ATOM     15  C   UNL     1      35.693 -20.207 -20.423  0.00  0.00    +0.003 C 
ATOM     16  C   UNL     1      33.550 -21.591 -19.293  0.00  0.00    +0.037 C 
ATOM     17  C   UNL     1      35.929 -21.227 -19.501  0.00  0.00    +0.037 C 
ATOM     18  C   UNL     1      34.858 -21.919 -18.936  0.00  0.00    +0.134 C 
BRANCH  18  19
ATOM     19  O   UNL     1      35.089 -22.914 -18.037  0.00  0.00    -0.506 OA
ATOM     20  H   UNL     1      34.374 -23.416 -17.700  0.00  0.00    +0.292 HD
ENDBRANCH  18  19
ENDBRANCH  12  13
ENDBRANCH   1  11
TORSDOF 5
ENDMDL
MODEL 7
REMARK VINA RESULT:      -8.6      3.782      9.342
REMARK  Name = 445154
REMARK  5 active torsions:
REMARK  status: ('A' for Active; 'I' for Inactive)
REMARK    1  A    between atoms: C_1  and  C_11
REMARK    2  A    between atoms: C_4  and  O_7
REMARK    3  A    between atoms: C_5  and  O_9
REMARK    4  A    between atoms: C_12  and  C_13
REMARK    5  A    between atoms: C_18  and  O_19
REMARK                            x       y       z     vdW  Elec       q    Type
REMARK                         _______ _______ _______ _____ _____    ______ ____
ROOT
ATOM      1  C   UNL     1      31.822 -23.464 -16.072  0.00  0.00    +0.006 C 
ATOM      2  C   UNL     1      30.506 -23.896 -16.035  0.00  0.00    +0.037 C 
ATOM      3  C   UNL     1      32.725 -23.818 -15.082  0.00  0.00    +0.037 C 
ATOM      4  C   UNL     1      32.300 -24.626 -14.028  0.00  0.00    +0.137 C 
ATOM      5  C   UNL     1      30.082 -24.704 -14.981  0.00  0.00    +0.137 C 
ATOM      6  C   UNL     1      30.978 -25.069 -13.977  0.00  0.00    +0.073 C 
ENDROOT
BRANCH   4   7
ATOM      7  O   UNL     1      33.175 -24.984 -13.048  0.00  0.00    -0.505 OA
ATOM      8  H   UNL     1      33.012 -24.734 -12.160  0.00  0.00    +0.292 HD
ENDBRANCH   4   7
BRANCH   5   9
ATOM      9  O   UNL     1      28.791 -25.135 -14.930  0.00  0.00    -0.505 OA
ATOM     10  H   UNL     1      28.103 -24.531 -14.728  0.00  0.00    +0.292 HD
ENDBRANCH   5   9
BRANCH   1  11
ATOM     11  C   UNL     1      32.270 -22.609 -17.185  0.00  0.00    +0.000 C 
ATOM     12  C   UNL     1      33.494 -22.655 -17.760  0.00  0.00    +0.000 C 
BRANCH  12  13
ATOM     13  C   UNL     1      33.930 -21.825 -18.872  0.00  0.00    +0.000 C 
ATOM     14  C   UNL     1      33.001 -21.066 -19.583  0.00  0.00    +0.003 C 
ATOM     15  C   UNL     1      35.279 -21.788 -19.228  0.00  0.00    +0.003 C 
ATOM     16  C   UNL     1      33.419 -20.270 -20.649  0.00  0.00    +0.037 C 
ATOM     17  C   UNL     1      35.697 -20.992 -20.294  0.00  0.00    +0.037 C 
ATOM     18  C   UNL     1      34.767 -20.233 -21.005  0.00  0.00    +0.134 C 
BRANCH  18  19
ATOM     19  O   UNL     1      35.176 -19.457 -22.045  0.00  0.00    -0.506 OA
ATOM     20  H   UNL     1      36.056 -19.522 -22.361  0.00  0.00    +0.292 HD
ENDBRANCH  18  19
ENDBRANCH  12  13
ENDBRANCH   1  11
TORSDOF 5
ENDMDL
MODEL 8
REMARK VINA RESULT:      -8.6      2.002      7.402
REMARK  Name = 445154
REMARK  5 active torsions:
REMARK  status: ('A' for Active; 'I' for Inactive)
REMARK    1  A    between atoms: C_1  and  C_11
REMARK    2  A    between atoms: C_4  and  O_7
REMARK    3  A    between atoms: C_5  and  O_9
REMARK    4  A    between atoms: C_12  and  C_13
REMARK    5  A    between atoms: C_18  and  O_19
REMARK                            x       y       z     vdW  Elec       q    Type
REMARK                         _______ _______ _______ _____ _____    ______ ____
ROOT
ATOM      1  C   UNL     1      34.205 -19.617 -20.677  0.00  0.00    +0.006 C 
ATOM      2  C   UNL     1      33.231 -20.413 -20.097  0.00  0.00    +0.037 C 
ATOM      3  C   UNL     1      35.541 -19.982 -20.655  0.00  0.00    +0.037 C 
ATOM      4  C   UNL     1      35.913 -21.176 -20.037  0.00  0.00    +0.137 C 
ATOM      5  C   UNL     1      33.603 -21.607 -19.479  0.00  0.00    +0.137 C 
ATOM      6  C   UNL     1      34.944 -21.988 -19.449  0.00  0.00    +0.073 C 
ENDROOT
BRANCH   4   7
ATOM      7  O   UNL     1      37.222 -21.548 -20.008  0.00  0.00    -0.505 OA
ATOM      8  H   UNL     1      37.808 -21.253 -20.677  0.00  0.00    +0.292 HD
ENDBRANCH   4   7
BRANCH   5   9
ATOM      9  O   UNL     1      32.657 -22.400 -18.903  0.00  0.00    -0.505 OA
ATOM     10  H   UNL     1      32.742 -23.333 -18.940  0.00  0.00    +0.292 HD
ENDBRANCH   5   9
BRANCH   1  11
ATOM     11  C   UNL     1      33.811 -18.355 -21.328  0.00  0.00    +0.000 C 
ATOM     12  C   UNL     1      34.246 -17.124 -20.972  0.00  0.00    +0.000 C 
BRANCH  12  13
ATOM     13  C   UNL     1      33.873 -15.881 -21.628  0.00  0.00    +0.000 C 
ATOM     14  C   UNL     1      32.831 -15.108 -21.118  0.00  0.00    +0.003 C 
ATOM     15  C   UNL     1      34.559 -15.461 -22.769  0.00  0.00    +0.003 C 
ATOM     16  C   UNL     1      32.474 -13.916 -21.747  0.00  0.00    +0.037 C 
ATOM     17  C   UNL     1      34.202 -14.269 -23.398  0.00  0.00    +0.037 C 
ATOM     18  C   UNL     1      33.159 -13.496 -22.887  0.00  0.00    +0.134 C 
BRANCH  18  19
ATOM     19  O   UNL     1      32.811 -12.333 -23.501  0.00  0.00    -0.506 OA
ATOM     20  H   UNL     1      32.223 -12.346 -24.231  0.00  0.00    +0.292 HD
ENDBRANCH  18  19
ENDBRANCH  12  13
ENDBRANCH   1  11
TORSDOF 5
ENDMDL
MODEL 9
REMARK VINA RESULT:      -8.5      8.057      9.494
REMARK  Name = 445154
REMARK  5 active torsions:
REMARK  status: ('A' for Active; 'I' for Inactive)
REMARK    1  A    between atoms: C_1  and  C_11
REMARK    2  A    between atoms: C_4  and  O_7
REMARK    3  A    between atoms: C_5  and  O_9
REMARK    4  A    between atoms: C_12  and  C_13
REMARK    5  A    between atoms: C_18  and  O_19
REMARK                            x       y       z     vdW  Elec       q    Type
REMARK                         _______ _______ _______ _____ _____    ______ ____
ROOT
ATOM      1  C   UNL     1      31.178 -23.616 -15.910  0.00  0.00    +0.006 C 
ATOM      2  C   UNL     1      30.396 -22.684 -16.572  0.00  0.00    +0.037 C 
ATOM      3  C   UNL     1      30.609 -24.610 -15.130  0.00  0.00    +0.037 C 
ATOM      4  C   UNL     1      29.221 -24.673 -15.008  0.00  0.00    +0.137 C 
ATOM      5  C   UNL     1      29.008 -22.746 -16.450  0.00  0.00    +0.137 C 
ATOM      6  C   UNL     1      28.420 -23.741 -15.668  0.00  0.00    +0.073 C 
ENDROOT
BRANCH   4   7
ATOM      7  O   UNL     1      28.647 -25.644 -14.245  0.00  0.00    -0.505 OA
ATOM      8  H   UNL     1      27.949 -25.428 -13.660  0.00  0.00    +0.292 HD
ENDBRANCH   4   7
BRANCH   5   9
ATOM      9  O   UNL     1      28.226 -21.836 -17.093  0.00  0.00    -0.505 OA
ATOM     10  H   UNL     1      28.595 -21.027 -17.389  0.00  0.00    +0.292 HD
ENDBRANCH   5   9
BRANCH   1  11
ATOM     11  C   UNL     1      32.644 -23.549 -16.038  0.00  0.00    +0.000 C 
ATOM     12  C   UNL     1      33.528 -23.890 -15.072  0.00  0.00    +0.000 C 
BRANCH  12  13
ATOM     13  C   UNL     1      34.975 -23.843 -15.205  0.00  0.00    +0.000 C 
ATOM     14  C   UNL     1      35.746 -24.949 -14.849  0.00  0.00    +0.003 C 
ATOM     15  C   UNL     1      35.594 -22.689 -15.688  0.00  0.00    +0.003 C 
ATOM     16  C   UNL     1      37.134 -24.903 -14.977  0.00  0.00    +0.037 C 
ATOM     17  C   UNL     1      36.982 -22.643 -15.815  0.00  0.00    +0.037 C 
ATOM     18  C   UNL     1      37.752 -23.750 -15.460  0.00  0.00    +0.134 C 
BRANCH  18  19
ATOM     19  O   UNL     1      39.107 -23.705 -15.584  0.00  0.00    -0.506 OA
ATOM     20  H   UNL     1      39.615 -24.481 -15.456  0.00  0.00    +0.292 HD
ENDBRANCH  18  19
ENDBRANCH  12  13
ENDBRANCH   1  11
TORSDOF 5
ENDMDL
