MODEL 1
REMARK VINA RESULT:     -10.5      0.000      0.000
REMARK  Name = 446236
REMARK  7 active torsions:
REMARK  status: ('A' for Active; 'I' for Inactive)
REMARK    1  A    between atoms: C_1  and  C_2
REMARK    2  A    between atoms: C_1  and  C_15
REMARK    3  A    between atoms: C_2  and  C_3
REMARK    4  A    between atoms: C_3  and  C_10
REMARK    5  A    between atoms: C_15  and  C_18
REMARK    6  A    between atoms: N_17  and  C_20
REMARK    7  A    between atoms: C_25  and  N_28
REMARK                            x       y       z     vdW  Elec       q    Type
REMARK                         _______ _______ _______ _____ _____    ______ ____
ROOT
ATOM      1  C   UNL     1      36.720 -21.635 -17.892  0.00  0.00    +0.010 C 
ENDROOT
BRANCH   1   2
ATOM      2  C   UNL     1      36.119 -22.446 -16.744  0.00  0.00    +0.001 C 
BRANCH   2   3
ATOM      3  C   UNL     1      37.084 -22.539 -15.563  0.00  0.00    +0.013 C 
BRANCH   3  10
ATOM      4  S   UNL     1      37.129 -23.421 -12.939  0.00  0.00    -0.138 S 
ATOM      5  O   UNL     1      41.076 -25.501 -14.628  0.00  0.00    -0.253 OA
ATOM      6  N   UNL     1      38.971 -24.769 -15.348  0.00  0.00    -0.288 N 
ATOM      7  N   UNL     1      39.085 -26.163 -13.585  0.00  0.00    -0.288 N 
ATOM      8  C   UNL     1      37.584 -25.009 -14.998  0.00  0.00    +0.102 C 
ATOM      9  C   UNL     1      37.668 -25.901 -13.739  0.00  0.00    +0.103 C 
ATOM     10  C   UNL     1      36.779 -23.744 -14.688  0.00  0.00    +0.067 C 
ATOM     11  C   UNL     1      37.097 -25.178 -12.520  0.00  0.00    +0.079 C 
ATOM     12  C   UNL     1      39.857 -25.478 -14.530  0.00  0.00    +0.301 C 
ATOM     13  H   UNL     1      39.256 -24.175 -16.080  0.00  0.00    +0.151 HD
ATOM     14  H   UNL     1      39.463 -26.754 -12.894  0.00  0.00    +0.151 HD
ENDBRANCH   3  10
ENDBRANCH   2   3
ENDBRANCH   1   2
BRANCH   1  15
ATOM     15  C   UNL     1      35.785 -21.600 -19.098  0.00  0.00    +0.085 C 
BRANCH  15  18
ATOM     16  O   UNL     1      37.123 -19.812 -20.002  0.00  0.00    -0.275 OA
ATOM     17  N   UNL     1      34.944 -20.151 -20.811  0.00  0.00    -0.284 N 
ATOM     18  C   UNL     1      36.054 -20.413 -20.014  0.00  0.00    +0.226 C 
ATOM     19  H   UNL     1      34.167 -20.742 -20.683  0.00  0.00    +0.155 HD
BRANCH  17  20
ATOM     20  C   UNL     1      34.802 -19.133 -21.785  0.00  0.00    +0.050 C 
ATOM     21  C   UNL     1      34.567 -17.832 -21.375  0.00  0.00    +0.016 C 
ATOM     22  C   UNL     1      34.900 -19.462 -23.126  0.00  0.00    +0.016 C 
ATOM     23  C   UNL     1      34.427 -16.829 -22.335  0.00  0.00    +0.025 C 
ATOM     24  C   UNL     1      34.759 -18.460 -24.087  0.00  0.00    +0.025 C 
ATOM     25  C   UNL     1      34.523 -17.143 -23.690  0.00  0.00    +0.143 C 
BRANCH  25  28
ATOM     26  O   UNL     1      34.079 -14.962 -24.296  0.00  0.00    -0.126 OA
ATOM     27  O   UNL     1      34.561 -16.409 -25.876  0.00  0.00    -0.126 OA
ATOM     28  N   UNL     1      34.381 -16.123 -24.667  0.00  0.00    +0.058 N 
ENDBRANCH  25  28
ENDBRANCH  17  20
ENDBRANCH  15  18
ENDBRANCH   1  15
TORSDOF 7
ENDMDL
MODEL 2
REMARK VINA RESULT:     -10.3      5.810     12.294
REMARK  Name = 446236
REMARK  7 active torsions:
REMARK  status: ('A' for Active; 'I' for Inactive)
REMARK    1  A    between atoms: C_1  and  C_2
REMARK    2  A    between atoms: C_1  and  C_15
REMARK    3  A    between atoms: C_2  and  C_3
REMARK    4  A    between atoms: C_3  and  C_10
REMARK    5  A    between atoms: C_15  and  C_18
REMARK    6  A    between atoms: N_17  and  C_20
REMARK    7  A    between atoms: C_25  and  N_28
REMARK                            x       y       z     vdW  Elec       q    Type
REMARK                         _______ _______ _______ _____ _____    ______ ____
ROOT
ATOM      1  C   UNL     1      34.458 -14.592 -22.413  0.00  0.00    +0.010 C 
ENDROOT
BRANCH   1   2
ATOM      2  C   UNL     1      33.036 -14.320 -22.905  0.00  0.00    +0.001 C 
BRANCH   2   3
ATOM      3  C   UNL     1      32.318 -13.318 -22.003  0.00  0.00    +0.013 C 
BRANCH   3  10
ATOM      4  S   UNL     1      33.382 -11.164 -23.379  0.00  0.00    -0.138 S 
ATOM      5  O   UNL     1      32.333  -9.102 -19.208  0.00  0.00    -0.253 OA
ATOM      6  N   UNL     1      31.613 -10.851 -20.589  0.00  0.00    -0.288 N 
ATOM      7  N   UNL     1      31.809  -8.789 -21.470  0.00  0.00    -0.288 N 
ATOM      8  C   UNL     1      31.163 -11.008 -21.959  0.00  0.00    +0.102 C 
ATOM      9  C   UNL     1      31.374  -9.610 -22.582  0.00  0.00    +0.103 C 
ATOM     10  C   UNL     1      31.932 -12.059 -22.764  0.00  0.00    +0.067 C 
ATOM     11  C   UNL     1      32.429  -9.660 -23.686  0.00  0.00    +0.079 C 
ATOM     12  C   UNL     1      31.965  -9.530 -20.293  0.00  0.00    +0.301 C 
ATOM     13  H   UNL     1      31.664 -11.591 -19.941  0.00  0.00    +0.151 HD
ATOM     14  H   UNL     1      31.977  -7.821 -21.533  0.00  0.00    +0.151 HD
ENDBRANCH   3  10
ENDBRANCH   2   3
ENDBRANCH   1   2
BRANCH   1  15
ATOM     15  C   UNL     1      34.902 -16.013 -22.753  0.00  0.00    +0.085 C 
BRANCH  15  18
ATOM     16  O   UNL     1      35.116 -16.514 -20.406  0.00  0.00    -0.275 OA
ATOM     17  N   UNL     1      34.637 -18.244 -21.920  0.00  0.00    -0.284 N 
ATOM     18  C   UNL     1      34.903 -16.933 -21.539  0.00  0.00    +0.226 C 
ATOM     19  H   UNL     1      34.489 -18.397 -22.882  0.00  0.00    +0.155 HD
BRANCH  17  20
ATOM     20  C   UNL     1      34.553 -19.386 -21.087  0.00  0.00    +0.050 C 
ATOM     21  C   UNL     1      35.714 -20.051 -20.731  0.00  0.00    +0.016 C 
ATOM     22  C   UNL     1      33.312 -19.812 -20.646  0.00  0.00    +0.016 C 
ATOM     23  C   UNL     1      35.632 -21.176 -19.910  0.00  0.00    +0.025 C 
ATOM     24  C   UNL     1      33.229 -20.938 -19.825  0.00  0.00    +0.025 C 
ATOM     25  C   UNL     1      34.389 -21.618 -19.457  0.00  0.00    +0.143 C 
BRANCH  25  28
ATOM     26  O   UNL     1      34.740 -22.691 -17.445  0.00  0.00    -0.126 OA
ATOM     27  O   UNL     1      33.800 -23.816 -19.080  0.00  0.00    -0.126 OA
ATOM     28  N   UNL     1      34.306 -22.763 -18.621  0.00  0.00    +0.058 N 
ENDBRANCH  25  28
ENDBRANCH  17  20
ENDBRANCH  15  18
ENDBRANCH   1  15
TORSDOF 7
ENDMDL
MODEL 3
REMARK VINA RESULT:     -10.0      2.077      2.656
REMARK  Name = 446236
REMARK  7 active torsions:
REMARK  status: ('A' for Active; 'I' for Inactive)
REMARK    1  A    between atoms: C_1  and  C_2
REMARK    2  A    between atoms: C_1  and  C_15
REMARK    3  A    between atoms: C_2  and  C_3
REMARK    4  A    between atoms: C_3  and  C_10
REMARK    5  A    between atoms: C_15  and  C_18
REMARK    6  A    between atoms: N_17  and  C_20
REMARK    7  A    between atoms: C_25  and  N_28
REMARK                            x       y       z     vdW  Elec       q    Type
REMARK                         _______ _______ _______ _____ _____    ______ ____
ROOT
ATOM      1  C   UNL     1      34.001 -23.174 -15.950  0.00  0.00    +0.010 C 
ENDROOT
BRANCH   1   2
ATOM      2  C   UNL     1      35.428 -22.952 -16.452  0.00  0.00    +0.001 C 
BRANCH   2   3
ATOM      3  C   UNL     1      36.426 -22.919 -15.295  0.00  0.00    +0.013 C 
BRANCH   3  10
ATOM      4  S   UNL     1      36.729 -23.958 -12.747  0.00  0.00    -0.138 S 
ATOM      5  O   UNL     1      40.992 -24.990 -14.624  0.00  0.00    -0.253 OA
ATOM      6  N   UNL     1      38.760 -24.689 -15.268  0.00  0.00    -0.288 N 
ATOM      7  N   UNL     1      39.221 -26.148 -13.617  0.00  0.00    -0.288 N 
ATOM      8  C   UNL     1      37.468 -25.253 -14.925  0.00  0.00    +0.102 C 
ATOM      9  C   UNL     1      37.777 -26.194 -13.739  0.00  0.00    +0.103 C 
ATOM     10  C   UNL     1      36.414 -24.222 -14.512  0.00  0.00    +0.067 C 
ATOM     11  C   UNL     1      37.093 -25.705 -12.463  0.00  0.00    +0.079 C 
ATOM     12  C   UNL     1      39.800 -25.243 -14.514  0.00  0.00    +0.301 C 
ATOM     13  H   UNL     1      38.890 -23.995 -15.954  0.00  0.00    +0.151 HD
ATOM     14  H   UNL     1      39.736 -26.690 -12.977  0.00  0.00    +0.151 HD
ENDBRANCH   3  10
ENDBRANCH   2   3
ENDBRANCH   1   2
BRANCH   1  15
ATOM     15  C   UNL     1      33.065 -23.566 -17.090  0.00  0.00    +0.085 C 
BRANCH  15  18
ATOM     16  O   UNL     1      33.971 -23.928 -19.293  0.00  0.00    -0.275 OA
ATOM     17  N   UNL     1      33.545 -21.737 -18.563  0.00  0.00    -0.284 N 
ATOM     18  C   UNL     1      33.585 -23.124 -18.452  0.00  0.00    +0.226 C 
ATOM     19  H   UNL     1      33.201 -21.248 -17.781  0.00  0.00    +0.155 HD
BRANCH  17  20
ATOM     20  C   UNL     1      33.942 -20.948 -19.669  0.00  0.00    +0.050 C 
ATOM     21  C   UNL     1      32.977 -20.296 -20.417  0.00  0.00    +0.016 C 
ATOM     22  C   UNL     1      35.287 -20.847 -19.980  0.00  0.00    +0.016 C 
ATOM     23  C   UNL     1      33.367 -19.518 -21.507  0.00  0.00    +0.025 C 
ATOM     24  C   UNL     1      35.679 -20.070 -21.071  0.00  0.00    +0.025 C 
ATOM     25  C   UNL     1      34.719 -19.405 -21.834  0.00  0.00    +0.143 C 
BRANCH  25  28
ATOM     26  O   UNL     1      35.664 -17.503 -22.734  0.00  0.00    -0.126 OA
ATOM     27  O   UNL     1      34.911 -19.046 -24.103  0.00  0.00    -0.126 OA
ATOM     28  N   UNL     1      35.117 -18.614 -22.943  0.00  0.00    +0.058 N 
ENDBRANCH  25  28
ENDBRANCH  17  20
ENDBRANCH  15  18
ENDBRANCH   1  15
TORSDOF 7
ENDMDL
MODEL 4
REMARK VINA RESULT:     -10.0      2.122      2.430
REMARK  Name = 446236
REMARK  7 active torsions:
REMARK  status: ('A' for Active; 'I' for Inactive)
REMARK    1  A    between atoms: C_1  and  C_2
REMARK    2  A    between atoms: C_1  and  C_15
REMARK    3  A    between atoms: C_2  and  C_3
REMARK    4  A    between atoms: C_3  and  C_10
REMARK    5  A    between atoms: C_15  and  C_18
REMARK    6  A    between atoms: N_17  and  C_20
REMARK    7  A    between atoms: C_25  and  N_28
REMARK                            x       y       z     vdW  Elec       q    Type
REMARK                         _______ _______ _______ _____ _____    ______ ____
ROOT
ATOM      1  C   UNL     1      33.386 -22.472 -18.312  0.00  0.00    +0.010 C 
ENDROOT
BRANCH   1   2
ATOM      2  C   UNL     1      33.993 -23.534 -17.395  0.00  0.00    +0.001 C 
BRANCH   2   3
ATOM      3  C   UNL     1      33.627 -23.280 -15.933  0.00  0.00    +0.013 C 
BRANCH   3  10
ATOM      4  S   UNL     1      36.301 -22.566 -16.024  0.00  0.00    -0.138 S 
ATOM      5  O   UNL     1      36.670 -27.321 -15.908  0.00  0.00    -0.253 OA
ATOM      6  N   UNL     1      35.251 -25.602 -15.189  0.00  0.00    -0.288 N 
ATOM      7  N   UNL     1      37.435 -25.497 -14.651  0.00  0.00    -0.288 N 
ATOM      8  C   UNL     1      35.358 -24.403 -14.379  0.00  0.00    +0.102 C 
ATOM      9  C   UNL     1      36.870 -24.291 -14.079  0.00  0.00    +0.103 C 
ATOM     10  C   UNL     1      34.868 -23.126 -15.067  0.00  0.00    +0.067 C 
ATOM     11  C   UNL     1      37.462 -23.038 -14.722  0.00  0.00    +0.079 C 
ATOM     12  C   UNL     1      36.476 -26.265 -15.322  0.00  0.00    +0.301 C 
ATOM     13  H   UNL     1      34.411 -25.914 -15.598  0.00  0.00    +0.151 HD
ATOM     14  H   UNL     1      38.383 -25.749 -14.577  0.00  0.00    +0.151 HD
ENDBRANCH   3  10
ENDBRANCH   2   3
ENDBRANCH   1   2
BRANCH   1  15
ATOM     15  C   UNL     1      34.457 -21.800 -19.169  0.00  0.00    +0.085 C 
BRANCH  15  18
ATOM     16  O   UNL     1      32.669 -20.598 -20.248  0.00  0.00    -0.275 OA
ATOM     17  N   UNL     1      34.897 -20.096 -20.795  0.00  0.00    -0.284 N 
ATOM     18  C   UNL     1      33.877 -20.767 -20.127  0.00  0.00    +0.226 C 
ATOM     19  H   UNL     1      35.817 -20.366 -20.570  0.00  0.00    +0.155 HD
BRANCH  17  20
ATOM     20  C   UNL     1      34.766 -19.070 -21.762  0.00  0.00    +0.050 C 
ATOM     21  C   UNL     1      34.551 -17.769 -21.343  0.00  0.00    +0.016 C 
ATOM     22  C   UNL     1      34.855 -19.392 -23.106  0.00  0.00    +0.016 C 
ATOM     23  C   UNL     1      34.421 -16.758 -22.296  0.00  0.00    +0.025 C 
ATOM     24  C   UNL     1      34.725 -18.381 -24.059  0.00  0.00    +0.025 C 
ATOM     25  C   UNL     1      34.509 -17.064 -23.654  0.00  0.00    +0.143 C 
BRANCH  25  28
ATOM     26  O   UNL     1      34.139 -14.864 -24.240  0.00  0.00    -0.126 OA
ATOM     27  O   UNL     1      34.503 -16.325 -25.838  0.00  0.00    -0.126 OA
ATOM     28  N   UNL     1      34.378 -16.035 -24.623  0.00  0.00    +0.058 N 
ENDBRANCH  25  28
ENDBRANCH  17  20
ENDBRANCH  15  18
ENDBRANCH   1  15
TORSDOF 7
ENDMDL
MODEL 5
REMARK VINA RESULT:      -9.8      3.061      3.815
REMARK  Name = 446236
REMARK  7 active torsions:
REMARK  status: ('A' for Active; 'I' for Inactive)
REMARK    1  A    between atoms: C_1  and  C_2
REMARK    2  A    between atoms: C_1  and  C_15
REMARK    3  A    between atoms: C_2  and  C_3
REMARK    4  A    between atoms: C_3  and  C_10
REMARK    5  A    between atoms: C_15  and  C_18
REMARK    6  A    between atoms: N_17  and  C_20
REMARK    7  A    between atoms: C_25  and  N_28
REMARK                            x       y       z     vdW  Elec       q    Type
REMARK                         _______ _______ _______ _____ _____    ______ ____
ROOT
ATOM      1  C   UNL     1      33.168 -23.121 -15.620  0.00  0.00    +0.010 C 
ENDROOT
BRANCH   1   2
ATOM      2  C   UNL     1      34.680 -23.291 -15.770  0.00  0.00    +0.001 C 
BRANCH   2   3
ATOM      3  C   UNL     1      35.165 -24.572 -15.094  0.00  0.00    +0.013 C 
BRANCH   3  10
ATOM      4  S   UNL     1      37.314 -25.999 -14.089  0.00  0.00    -0.138 S 
ATOM      5  O   UNL     1      35.368 -24.388 -10.043  0.00  0.00    -0.253 OA
ATOM      6  N   UNL     1      35.588 -23.801 -12.299  0.00  0.00    -0.288 N 
ATOM      7  N   UNL     1      37.444 -24.284 -11.122  0.00  0.00    -0.288 N 
ATOM      8  C   UNL     1      36.669 -23.584 -13.241  0.00  0.00    +0.102 C 
ATOM      9  C   UNL     1      37.935 -23.993 -12.454  0.00  0.00    +0.103 C 
ATOM     10  C   UNL     1      36.566 -24.408 -14.528  0.00  0.00    +0.067 C 
ATOM     11  C   UNL     1      38.597 -25.217 -13.086  0.00  0.00    +0.079 C 
ATOM     12  C   UNL     1      36.052 -24.185 -11.036  0.00  0.00    +0.301 C 
ATOM     13  H   UNL     1      34.635 -23.690 -12.524  0.00  0.00    +0.151 HD
ATOM     14  H   UNL     1      38.024 -24.525 -10.363  0.00  0.00    +0.151 HD
ENDBRANCH   3  10
ENDBRANCH   2   3
ENDBRANCH   1   2
BRANCH   1  15
ATOM     15  C   UNL     1      32.434 -23.514 -16.900  0.00  0.00    +0.085 C 
BRANCH  15  18
ATOM     16  O   UNL     1      33.842 -23.972 -18.801  0.00  0.00    -0.275 OA
ATOM     17  N   UNL     1      33.081 -21.783 -18.425  0.00  0.00    -0.284 N 
ATOM     18  C   UNL     1      33.210 -23.142 -18.157  0.00  0.00    +0.226 C 
ATOM     19  H   UNL     1      32.529 -21.265 -17.795  0.00  0.00    +0.155 HD
BRANCH  17  20
ATOM     20  C   UNL     1      33.650 -21.057 -19.499  0.00  0.00    +0.050 C 
ATOM     21  C   UNL     1      32.825 -20.322 -20.333  0.00  0.00    +0.016 C 
ATOM     22  C   UNL     1      35.021 -21.099 -19.693  0.00  0.00    +0.016 C 
ATOM     23  C   UNL     1      33.386 -19.607 -21.391  0.00  0.00    +0.025 C 
ATOM     24  C   UNL     1      35.583 -20.385 -20.751  0.00  0.00    +0.025 C 
ATOM     25  C   UNL     1      34.765 -19.639 -21.600  0.00  0.00    +0.143 C 
BRANCH  25  28
ATOM     26  O   UNL     1      36.078 -17.930 -22.423  0.00  0.00    -0.126 OA
ATOM     27  O   UNL     1      35.084 -19.268 -23.853  0.00  0.00    -0.126 OA
ATOM     28  N   UNL     1      35.337 -18.911 -22.677  0.00  0.00    +0.058 N 
ENDBRANCH  25  28
ENDBRANCH  17  20
ENDBRANCH  15  18
ENDBRANCH   1  15
TORSDOF 7
ENDMDL
MODEL 6
REMARK VINA RESULT:      -9.7      2.830      3.741
REMARK  Name = 446236
REMARK  7 active torsions:
REMARK  status: ('A' for Active; 'I' for Inactive)
REMARK    1  A    between atoms: C_1  and  C_2
REMARK    2  A    between atoms: C_1  and  C_15
REMARK    3  A    between atoms: C_2  and  C_3
REMARK    4  A    between atoms: C_3  and  C_10
REMARK    5  A    between atoms: C_15  and  C_18
REMARK    6  A    between atoms: N_17  and  C_20
REMARK    7  A    between atoms: C_25  and  N_28
REMARK                            x       y       z     vdW  Elec       q    Type
REMARK                         _______ _______ _______ _____ _____    ______ ____
ROOT
ATOM      1  C   UNL     1      32.254 -23.069 -15.337  0.00  0.00    +0.010 C 
ENDROOT
BRANCH   1   2
ATOM      2  C   UNL     1      32.639 -24.232 -14.422  0.00  0.00    +0.001 C 
BRANCH   2   3
ATOM      3  C   UNL     1      33.852 -23.885 -13.562  0.00  0.00    +0.013 C 
BRANCH   3  10
ATOM      4  S   UNL     1      36.176 -24.804 -12.369  0.00  0.00    -0.138 S 
ATOM      5  O   UNL     1      37.991 -22.275 -15.984  0.00  0.00    -0.253 OA
ATOM      6  N   UNL     1      36.083 -23.512 -15.425  0.00  0.00    -0.288 N 
ATOM      7  N   UNL     1      38.103 -24.475 -15.187  0.00  0.00    -0.288 N 
ATOM      8  C   UNL     1      35.781 -24.858 -14.978  0.00  0.00    +0.102 C 
ATOM      9  C   UNL     1      37.170 -25.491 -14.740  0.00  0.00    +0.103 C 
ATOM     10  C   UNL     1      34.948 -24.931 -13.695  0.00  0.00    +0.067 C 
ATOM     11  C   UNL     1      37.372 -25.822 -13.262  0.00  0.00    +0.079 C 
ATOM     12  C   UNL     1      37.457 -23.297 -15.577  0.00  0.00    +0.301 C 
ATOM     13  H   UNL     1      35.398 -22.826 -15.601  0.00  0.00    +0.151 HD
ATOM     14  H   UNL     1      39.079 -24.598 -15.213  0.00  0.00    +0.151 HD
ENDBRANCH   3  10
ENDBRANCH   2   3
ENDBRANCH   1   2
BRANCH   1  15
ATOM     15  C   UNL     1      32.075 -23.533 -16.781  0.00  0.00    +0.085 C 
BRANCH  15  18
ATOM     16  O   UNL     1      34.297 -23.506 -17.712  0.00  0.00    -0.275 OA
ATOM     17  N   UNL     1      32.701 -21.963 -18.479  0.00  0.00    -0.284 N 
ATOM     18  C   UNL     1      33.173 -23.017 -17.702  0.00  0.00    +0.226 C 
ATOM     19  H   UNL     1      31.763 -21.702 -18.336  0.00  0.00    +0.155 HD
BRANCH  17  20
ATOM     20  C   UNL     1      33.415 -21.221 -19.451  0.00  0.00    +0.050 C 
ATOM     21  C   UNL     1      32.733 -20.321 -20.252  0.00  0.00    +0.016 C 
ATOM     22  C   UNL     1      34.780 -21.411 -19.579  0.00  0.00    +0.016 C 
ATOM     23  C   UNL     1      33.436 -19.590 -21.210  0.00  0.00    +0.025 C 
ATOM     24  C   UNL     1      35.484 -20.681 -20.537  0.00  0.00    +0.025 C 
ATOM     25  C   UNL     1      34.812 -19.770 -21.352  0.00  0.00    +0.143 C 
BRANCH  25  28
ATOM     26  O   UNL     1      35.169 -19.092 -23.527  0.00  0.00    -0.126 OA
ATOM     27  O   UNL     1      36.501 -18.323 -21.960  0.00  0.00    -0.126 OA
ATOM     28  N   UNL     1      35.528 -19.026 -22.326  0.00  0.00    +0.058 N 
ENDBRANCH  25  28
ENDBRANCH  17  20
ENDBRANCH  15  18
ENDBRANCH   1  15
TORSDOF 7
ENDMDL
MODEL 7
REMARK VINA RESULT:      -9.6      3.498     10.948
REMARK  Name = 446236
REMARK  7 active torsions:
REMARK  status: ('A' for Active; 'I' for Inactive)
REMARK    1  A    between atoms: C_1  and  C_2
REMARK    2  A    between atoms: C_1  and  C_15
REMARK    3  A    between atoms: C_2  and  C_3
REMARK    4  A    between atoms: C_3  and  C_10
REMARK    5  A    between atoms: C_15  and  C_18
REMARK    6  A    between atoms: N_17  and  C_20
REMARK    7  A    between atoms: C_25  and  N_28
REMARK                            x       y       z     vdW  Elec       q    Type
REMARK                         _______ _______ _______ _____ _____    ______ ____
ROOT
ATOM      1  C   UNL     1      33.227 -20.989 -19.523  0.00  0.00    +0.010 C 
ENDROOT
BRANCH   1   2
ATOM      2  C   UNL     1      33.304 -20.091 -20.758  0.00  0.00    +0.001 C 
BRANCH   2   3
ATOM      3  C   UNL     1      34.752 -19.854 -21.184  0.00  0.00    +0.013 C 
BRANCH   3  10
ATOM      4  S   UNL     1      33.605 -17.339 -21.020  0.00  0.00    -0.138 S 
ATOM      5  O   UNL     1      34.073 -17.779 -25.747  0.00  0.00    -0.253 OA
ATOM      6  N   UNL     1      35.082 -18.495 -23.758  0.00  0.00    -0.288 N 
ATOM      7  N   UNL     1      34.760 -16.290 -24.074  0.00  0.00    -0.288 N 
ATOM      8  C   UNL     1      35.664 -17.882 -22.580  0.00  0.00    +0.102 C 
ATOM      9  C   UNL     1      35.371 -16.376 -22.762  0.00  0.00    +0.103 C 
ATOM     10  C   UNL     1      35.077 -18.370 -21.253  0.00  0.00    +0.067 C 
ATOM     11  C   UNL     1      34.428 -15.869 -21.673  0.00  0.00    +0.079 C 
ATOM     12  C   UNL     1      34.576 -17.549 -24.655  0.00  0.00    +0.301 C 
ATOM     13  H   UNL     1      35.047 -19.468 -23.909  0.00  0.00    +0.151 HD
ATOM     14  H   UNL     1      34.504 -15.444 -24.507  0.00  0.00    +0.151 HD
ENDBRANCH   3  10
ENDBRANCH   2   3
ENDBRANCH   1   2
BRANCH   1  15
ATOM     15  C   UNL     1      34.472 -21.863 -19.392  0.00  0.00    +0.085 C 
BRANCH  15  18
ATOM     16  O   UNL     1      33.669 -23.868 -18.325  0.00  0.00    -0.275 OA
ATOM     17  N   UNL     1      35.153 -22.459 -17.173  0.00  0.00    -0.284 N 
ATOM     18  C   UNL     1      34.367 -22.864 -18.248  0.00  0.00    +0.226 C 
ATOM     19  H   UNL     1      35.650 -21.617 -17.289  0.00  0.00    +0.155 HD
BRANCH  17  20
ATOM     20  C   UNL     1      35.320 -23.117 -15.930  0.00  0.00    +0.050 C 
ATOM     21  C   UNL     1      36.564 -23.621 -15.593  0.00  0.00    +0.016 C 
ATOM     22  C   UNL     1      34.234 -23.243 -15.080  0.00  0.00    +0.016 C 
ATOM     23  C   UNL     1      36.729 -24.270 -14.369  0.00  0.00    +0.025 C 
ATOM     24  C   UNL     1      34.398 -23.892 -13.856  0.00  0.00    +0.025 C 
ATOM     25  C   UNL     1      35.646 -24.405 -13.501  0.00  0.00    +0.143 C 
BRANCH  25  28
ATOM     26  O   UNL     1      36.800 -25.823 -12.095  0.00  0.00    -0.126 OA
ATOM     27  O   UNL     1      34.969 -24.871 -11.346  0.00  0.00    -0.126 OA
ATOM     28  N   UNL     1      35.813 -25.065 -12.255  0.00  0.00    +0.058 N 
ENDBRANCH  25  28
ENDBRANCH  17  20
ENDBRANCH  15  18
ENDBRANCH   1  15
TORSDOF 7
ENDMDL
MODEL 8
REMARK VINA RESULT:      -9.5      3.437     11.248
REMARK  Name = 446236
REMARK  7 active torsions:
REMARK  status: ('A' for Active; 'I' for Inactive)
REMARK    1  A    between atoms: C_1  and  C_2
REMARK    2  A    between atoms: C_1  and  C_15
REMARK    3  A    between atoms: C_2  and  C_3
REMARK    4  A    between atoms: C_3  and  C_10
REMARK    5  A    between atoms: C_15  and  C_18
REMARK    6  A    between atoms: N_17  and  C_20
REMARK    7  A    between atoms: C_25  and  N_28
REMARK                            x       y       z     vdW  Elec       q    Type
REMARK                         _______ _______ _______ _____ _____    ______ ____
ROOT
ATOM      1  C   UNL     1      35.437 -20.351 -20.716  0.00  0.00    +0.010 C 
ENDROOT
BRANCH   1   2
ATOM      2  C   UNL     1      35.627 -18.856 -20.977  0.00  0.00    +0.001 C 
BRANCH   2   3
ATOM      3  C   UNL     1      34.303 -18.179 -21.325  0.00  0.00    +0.013 C 
BRANCH   3  10
ATOM      4  S   UNL     1      32.871 -15.811 -21.215  0.00  0.00    -0.138 S 
ATOM      5  O   UNL     1      33.451 -16.264 -25.928  0.00  0.00    -0.253 OA
ATOM      6  N   UNL     1      34.509 -16.829 -23.916  0.00  0.00    -0.288 N 
ATOM      7  N   UNL     1      33.939 -14.681 -24.271  0.00  0.00    -0.288 N 
ATOM      8  C   UNL     1      35.000 -16.135 -22.741  0.00  0.00    +0.102 C 
ATOM      9  C   UNL     1      34.537 -14.676 -22.951  0.00  0.00    +0.103 C 
ATOM     10  C   UNL     1      34.456 -16.669 -21.414  0.00  0.00    +0.067 C 
ATOM     11  C   UNL     1      33.527 -14.266 -21.881  0.00  0.00    +0.079 C 
ATOM     12  C   UNL     1      33.909 -15.961 -24.835  0.00  0.00    +0.301 C 
ATOM     13  H   UNL     1      34.589 -17.801 -24.052  0.00  0.00    +0.151 HD
ATOM     14  H   UNL     1      33.592 -13.876 -24.721  0.00  0.00    +0.151 HD
ENDBRANCH   3  10
ENDBRANCH   2   3
ENDBRANCH   1   2
BRANCH   1  15
ATOM     15  C   UNL     1      36.493 -20.887 -19.753  0.00  0.00    +0.085 C 
BRANCH  15  18
ATOM     16  O   UNL     1      34.974 -22.602 -19.007  0.00  0.00    -0.275 OA
ATOM     17  N   UNL     1      36.605 -21.778 -17.532  0.00  0.00    -0.284 N 
ATOM     18  C   UNL     1      35.916 -21.865 -18.738  0.00  0.00    +0.226 C 
ATOM     19  H   UNL     1      37.341 -21.125 -17.497  0.00  0.00    +0.155 HD
BRANCH  17  20
ATOM     20  C   UNL     1      36.371 -22.520 -16.349  0.00  0.00    +0.050 C 
ATOM     21  C   UNL     1      35.069 -22.797 -15.970  0.00  0.00    +0.016 C 
ATOM     22  C   UNL     1      37.450 -22.951 -15.596  0.00  0.00    +0.016 C 
ATOM     23  C   UNL     1      34.837 -23.528 -14.804  0.00  0.00    +0.025 C 
ATOM     24  C   UNL     1      37.219 -23.682 -14.429  0.00  0.00    +0.025 C 
ATOM     25  C   UNL     1      35.913 -23.970 -14.034  0.00  0.00    +0.143 C 
BRANCH  25  28
ATOM     26  O   UNL     1      34.687 -24.425 -12.134  0.00  0.00    -0.126 OA
ATOM     27  O   UNL     1      36.469 -25.641 -12.545  0.00  0.00    -0.126 OA
ATOM     28  N   UNL     1      35.678 -24.714 -12.848  0.00  0.00    +0.058 N 
ENDBRANCH  25  28
ENDBRANCH  17  20
ENDBRANCH  15  18
ENDBRANCH   1  15
TORSDOF 7
ENDMDL
MODEL 9
REMARK VINA RESULT:      -9.5      2.389      2.855
REMARK  Name = 446236
REMARK  7 active torsions:
REMARK  status: ('A' for Active; 'I' for Inactive)
REMARK    1  A    between atoms: C_1  and  C_2
REMARK    2  A    between atoms: C_1  and  C_15
REMARK    3  A    between atoms: C_2  and  C_3
REMARK    4  A    between atoms: C_3  and  C_10
REMARK    5  A    between atoms: C_15  and  C_18
REMARK    6  A    between atoms: N_17  and  C_20
REMARK    7  A    between atoms: C_25  and  N_28
REMARK                            x       y       z     vdW  Elec       q    Type
REMARK                         _______ _______ _______ _____ _____    ______ ____
ROOT
ATOM      1  C   UNL     1      33.622 -22.434 -17.736  0.00  0.00    +0.010 C 
ENDROOT
BRANCH   1   2
ATOM      2  C   UNL     1      34.093 -23.607 -16.876  0.00  0.00    +0.001 C 
BRANCH   2   3
ATOM      3  C   UNL     1      34.509 -23.143 -15.482  0.00  0.00    +0.013 C 
BRANCH   3  10
ATOM      4  S   UNL     1      36.174 -25.353 -15.398  0.00  0.00    -0.138 S 
ATOM      5  O   UNL     1      35.113 -24.884 -10.771  0.00  0.00    -0.253 OA
ATOM      6  N   UNL     1      35.345 -23.591 -12.710  0.00  0.00    -0.288 N 
ATOM      7  N   UNL     1      37.038 -24.945 -12.104  0.00  0.00    -0.288 N 
ATOM      8  C   UNL     1      36.372 -23.339 -13.704  0.00  0.00    +0.102 C 
ATOM      9  C   UNL     1      37.500 -24.327 -13.331  0.00  0.00    +0.103 C 
ATOM     10  C   UNL     1      35.928 -23.575 -15.150  0.00  0.00    +0.067 C 
ATOM     11  C   UNL     1      37.704 -25.362 -14.436  0.00  0.00    +0.079 C 
ATOM     12  C   UNL     1      35.755 -24.519 -11.747  0.00  0.00    +0.301 C 
ATOM     13  H   UNL     1      34.461 -23.158 -12.714  0.00  0.00    +0.151 HD
ATOM     14  H   UNL     1      37.566 -25.591 -11.582  0.00  0.00    +0.151 HD
ENDBRANCH   3  10
ENDBRANCH   2   3
ENDBRANCH   1   2
BRANCH   1  15
ATOM     15  C   UNL     1      34.656 -22.074 -18.800  0.00  0.00    +0.085 C 
BRANCH  15  18
ATOM     16  O   UNL     1      32.910 -21.070 -20.123  0.00  0.00    -0.275 OA
ATOM     17  N   UNL     1      35.132 -20.368 -20.414  0.00  0.00    -0.284 N 
ATOM     18  C   UNL     1      34.105 -21.120 -19.853  0.00  0.00    +0.226 C 
ATOM     19  H   UNL     1      36.039 -20.544 -20.071  0.00  0.00    +0.155 HD
BRANCH  17  20
ATOM     20  C   UNL     1      35.026 -19.379 -21.421  0.00  0.00    +0.050 C 
ATOM     21  C   UNL     1      34.896 -19.769 -22.743  0.00  0.00    +0.016 C 
ATOM     22  C   UNL     1      35.056 -18.042 -21.062  0.00  0.00    +0.016 C 
ATOM     23  C   UNL     1      34.792 -18.794 -23.735  0.00  0.00    +0.025 C 
ATOM     24  C   UNL     1      34.952 -17.066 -22.054  0.00  0.00    +0.025 C 
ATOM     25  C   UNL     1      34.820 -17.442 -23.391  0.00  0.00    +0.143 C 
BRANCH  25  28
ATOM     26  O   UNL     1      34.491 -15.261 -24.064  0.00  0.00    -0.126 OA
ATOM     27  O   UNL     1      34.844 -16.789 -25.602  0.00  0.00    -0.126 OA
ATOM     28  N   UNL     1      34.713 -16.450 -24.400  0.00  0.00    +0.058 N 
ENDBRANCH  25  28
ENDBRANCH  17  20
ENDBRANCH  15  18
ENDBRANCH   1  15
TORSDOF 7
ENDMDL
