MODEL 1
REMARK VINA RESULT:      -6.1      0.000      0.000
REMARK  Name = 444453
REMARK  1 active torsions:
REMARK  status: ('A' for Active; 'I' for Inactive)
REMARK    1  A    between atoms: N_5  and  C_7
REMARK                            x       y       z     vdW  Elec       q    Type
REMARK                         _______ _______ _______ _____ _____    ______ ____
ROOT
ATOM      1  N   UNL     1      34.761 -19.394 -21.084  0.00  0.00    -0.274 N 
ATOM      2  N   UNL     1      35.075 -22.125 -18.704  0.00  0.00    -0.312 N 
ATOM      3  N   UNL     1      32.657 -20.422 -20.554  0.00  0.00    -0.233 NA
ATOM      4  N   UNL     1      32.865 -22.248 -18.964  0.00  0.00    -0.301 N 
ATOM      5  C   UNL     1      34.753 -21.141 -19.596  0.00  0.00    +0.105 C 
ATOM      6  C   UNL     1      35.477 -20.192 -20.286  0.00  0.00    +0.111 C 
ATOM      7  C   UNL     1      33.373 -21.238 -19.739  0.00  0.00    +0.142 C 
ATOM      8  C   UNL     1      33.434 -19.523 -21.193  0.00  0.00    +0.222 C 
ATOM      9  C   UNL     1      35.422 -18.350 -21.865  0.00  0.00    +0.115 C 
ATOM     10  C   UNL     1      33.913 -22.761 -18.355  0.00  0.00    +0.183 C 
ATOM     11  H   UNL     1      35.978 -22.339 -18.372  0.00  0.00    +0.149 HD
ATOM     12  H   UNL     1      31.925 -22.529 -18.880  0.00  0.00    +0.150 HD
ENDROOT
BRANCH   6  13
ATOM     13  N   UNL     1      36.868 -20.061 -20.169  0.00  0.00    -0.345 N 
ATOM     14  H   UNL     1      37.337 -19.338 -20.645  0.00  0.00    +0.144 HD
ATOM     15  H   UNL     1      37.377 -20.692 -19.610  0.00  0.00    +0.144 HD
ENDBRANCH   6  13
TORSDOF 1
ENDMDL
MODEL 2
REMARK VINA RESULT:      -5.9      3.418      5.282
REMARK  Name = 444453
REMARK  1 active torsions:
REMARK  status: ('A' for Active; 'I' for Inactive)
REMARK    1  A    between atoms: N_5  and  C_7
REMARK                            x       y       z     vdW  Elec       q    Type
REMARK                         _______ _______ _______ _____ _____    ______ ____
ROOT
ATOM      1  N   UNL     1      34.321 -14.840 -22.633  0.00  0.00    -0.274 N 
ATOM      2  N   UNL     1      35.240 -18.349 -22.885  0.00  0.00    -0.312 N 
ATOM      3  N   UNL     1      34.875 -15.819 -20.511  0.00  0.00    -0.233 NA
ATOM      4  N   UNL     1      35.490 -18.164 -20.678  0.00  0.00    -0.301 N 
ATOM      5  C   UNL     1      34.928 -17.052 -22.586  0.00  0.00    +0.105 C 
ATOM      6  C   UNL     1      34.530 -15.961 -23.329  0.00  0.00    +0.111 C 
ATOM      7  C   UNL     1      35.093 -16.963 -21.208  0.00  0.00    +0.142 C 
ATOM      8  C   UNL     1      34.490 -14.798 -21.306  0.00  0.00    +0.222 C 
ATOM      9  C   UNL     1      33.896 -13.618 -23.315  0.00  0.00    +0.115 C 
ATOM     10  C   UNL     1      35.568 -18.975 -21.713  0.00  0.00    +0.183 C 
ATOM     11  H   UNL     1      35.230 -18.759 -23.781  0.00  0.00    +0.149 HD
ATOM     12  H   UNL     1      35.674 -18.375 -19.735  0.00  0.00    +0.150 HD
ENDROOT
BRANCH   6  13
ATOM     13  N   UNL     1      34.354 -16.009 -24.720  0.00  0.00    -0.345 N 
ATOM     14  H   UNL     1      34.511 -16.849 -25.207  0.00  0.00    +0.144 HD
ATOM     15  H   UNL     1      34.073 -15.202 -25.208  0.00  0.00    +0.144 HD
ENDBRANCH   6  13
TORSDOF 1
ENDMDL
MODEL 3
REMARK VINA RESULT:      -5.9      4.731      7.127
REMARK  Name = 444453
REMARK  1 active torsions:
REMARK  status: ('A' for Active; 'I' for Inactive)
REMARK    1  A    between atoms: N_5  and  C_7
REMARK                            x       y       z     vdW  Elec       q    Type
REMARK                         _______ _______ _______ _____ _____    ______ ____
ROOT
ATOM      1  N   UNL     1      35.038 -17.246 -23.297  0.00  0.00    -0.274 N 
ATOM      2  N   UNL     1      33.324 -14.198 -24.295  0.00  0.00    -0.312 N 
ATOM      3  N   UNL     1      34.325 -17.279 -25.590  0.00  0.00    -0.233 NA
ATOM      4  N   UNL     1      33.180 -15.243 -26.259  0.00  0.00    -0.301 N 
ATOM      5  C   UNL     1      33.935 -15.407 -24.116  0.00  0.00    +0.105 C 
ATOM      6  C   UNL     1      34.556 -16.024 -23.051  0.00  0.00    +0.111 C 
ATOM      7  C   UNL     1      33.833 -16.037 -25.352  0.00  0.00    +0.142 C 
ATOM      8  C   UNL     1      34.917 -17.815 -24.502  0.00  0.00    +0.222 C 
ATOM      9  C   UNL     1      35.717 -17.996 -22.242  0.00  0.00    +0.115 C 
ATOM     10  C   UNL     1      32.888 -14.146 -25.592  0.00  0.00    +0.183 C 
ATOM     11  H   UNL     1      33.217 -13.493 -23.616  0.00  0.00    +0.149 HD
ATOM     12  H   UNL     1      32.974 -15.447 -27.200  0.00  0.00    +0.150 HD
ENDROOT
BRANCH   6  13
ATOM     13  N   UNL     1      34.681 -15.423 -21.789  0.00  0.00    -0.345 N 
ATOM     14  H   UNL     1      35.573 -15.240 -21.417  0.00  0.00    +0.144 HD
ATOM     15  H   UNL     1      33.875 -15.185 -21.276  0.00  0.00    +0.144 HD
ENDBRANCH   6  13
TORSDOF 1
ENDMDL
MODEL 4
REMARK VINA RESULT:      -5.9      6.884      8.850
REMARK  Name = 444453
REMARK  1 active torsions:
REMARK  status: ('A' for Active; 'I' for Inactive)
REMARK    1  A    between atoms: N_5  and  C_7
REMARK                            x       y       z     vdW  Elec       q    Type
REMARK                         _______ _______ _______ _____ _____    ______ ____
ROOT
ATOM      1  N   UNL     1      36.149 -24.629 -13.316  0.00  0.00    -0.274 N 
ATOM      2  N   UNL     1      39.117 -24.881 -15.400  0.00  0.00    -0.312 N 
ATOM      3  N   UNL     1      37.917 -25.882 -12.281  0.00  0.00    -0.233 NA
ATOM      4  N   UNL     1      39.902 -26.051 -13.673  0.00  0.00    -0.301 N 
ATOM      5  C   UNL     1      38.109 -24.899 -14.477  0.00  0.00    +0.105 C 
ATOM      6  C   UNL     1      36.833 -24.377 -14.435  0.00  0.00    +0.111 C 
ATOM      7  C   UNL     1      38.623 -25.632 -13.413  0.00  0.00    +0.142 C 
ATOM      8  C   UNL     1      36.681 -25.340 -12.315  0.00  0.00    +0.222 C 
ATOM      9  C   UNL     1      34.785 -24.125 -13.157  0.00  0.00    +0.115 C 
ATOM     10  C   UNL     1      40.168 -25.584 -14.874  0.00  0.00    +0.183 C 
ATOM     11  H   UNL     1      39.093 -24.442 -16.282  0.00  0.00    +0.149 HD
ATOM     12  H   UNL     1      40.491 -26.584 -13.091  0.00  0.00    +0.150 HD
ENDROOT
BRANCH   6  13
ATOM     13  N   UNL     1      36.279 -23.632 -15.486  0.00  0.00    -0.345 N 
ATOM     14  H   UNL     1      35.981 -22.708 -15.331  0.00  0.00    +0.144 HD
ATOM     15  H   UNL     1      36.188 -24.035 -16.380  0.00  0.00    +0.144 HD
ENDBRANCH   6  13
TORSDOF 1
ENDMDL
MODEL 5
REMARK VINA RESULT:      -5.8      1.041      4.240
REMARK  Name = 444453
REMARK  1 active torsions:
REMARK  status: ('A' for Active; 'I' for Inactive)
REMARK    1  A    between atoms: N_5  and  C_7
REMARK                            x       y       z     vdW  Elec       q    Type
REMARK                         _______ _______ _______ _____ _____    ______ ____
ROOT
ATOM      1  N   UNL     1      34.633 -21.415 -19.414  0.00  0.00    -0.274 N 
ATOM      2  N   UNL     1      34.351 -18.728 -21.847  0.00  0.00    -0.312 N 
ATOM      3  N   UNL     1      36.733 -20.346 -19.877  0.00  0.00    -0.233 NA
ATOM      4  N   UNL     1      36.546 -18.549 -21.503  0.00  0.00    -0.301 N 
ATOM      5  C   UNL     1      34.661 -19.691 -20.928  0.00  0.00    +0.105 C 
ATOM      6  C   UNL     1      33.932 -20.647 -20.252  0.00  0.00    +0.111 C 
ATOM      7  C   UNL     1      36.031 -19.558 -20.731  0.00  0.00    +0.142 C 
ATOM      8  C   UNL     1      35.952 -21.254 -19.255  0.00  0.00    +0.222 C 
ATOM      9  C   UNL     1      33.967 -22.464 -18.642  0.00  0.00    +0.115 C 
ATOM     10  C   UNL     1      35.511 -18.072 -22.162  0.00  0.00    +0.183 C 
ATOM     11  H   UNL     1      33.457 -18.540 -22.216  0.00  0.00    +0.149 HD
ATOM     12  H   UNL     1      37.482 -18.249 -21.556  0.00  0.00    +0.150 HD
ENDROOT
BRANCH   6  13
ATOM     13  N   UNL     1      32.550 -20.813 -20.421  0.00  0.00    -0.345 N 
ATOM     14  H   UNL     1      32.021 -21.276 -19.733  0.00  0.00    +0.144 HD
ATOM     15  H   UNL     1      32.108 -20.465 -21.230  0.00  0.00    +0.144 HD
ENDBRANCH   6  13
TORSDOF 1
ENDMDL
MODEL 6
REMARK VINA RESULT:      -5.8      5.030      6.705
REMARK  Name = 444453
REMARK  1 active torsions:
REMARK  status: ('A' for Active; 'I' for Inactive)
REMARK    1  A    between atoms: N_5  and  C_7
REMARK                            x       y       z     vdW  Elec       q    Type
REMARK                         _______ _______ _______ _____ _____    ______ ____
ROOT
ATOM      1  N   UNL     1      33.677 -14.269 -24.481  0.00  0.00    -0.274 N 
ATOM      2  N   UNL     1      35.009 -17.381 -23.154  0.00  0.00    -0.312 N 
ATOM      3  N   UNL     1      33.626 -16.065 -26.074  0.00  0.00    -0.233 NA
ATOM      4  N   UNL     1      34.516 -18.146 -25.188  0.00  0.00    -0.301 N 
ATOM      5  C   UNL     1      34.477 -16.318 -23.829  0.00  0.00    +0.105 C 
ATOM      6  C   UNL     1      34.221 -15.002 -23.506  0.00  0.00    +0.111 C 
ATOM      7  C   UNL     1      34.178 -16.821 -25.091  0.00  0.00    +0.142 C 
ATOM      8  C   UNL     1      33.406 -14.792 -25.682  0.00  0.00    +0.222 C 
ATOM      9  C   UNL     1      33.362 -12.859 -24.253  0.00  0.00    +0.115 C 
ATOM     10  C   UNL     1      35.012 -18.451 -24.008  0.00  0.00    +0.183 C 
ATOM     11  H   UNL     1      35.330 -17.378 -22.223  0.00  0.00    +0.149 HD
ATOM     12  H   UNL     1      34.412 -18.738 -25.967  0.00  0.00    +0.150 HD
ENDROOT
BRANCH   6  13
ATOM     13  N   UNL     1      34.506 -14.457 -22.246  0.00  0.00    -0.345 N 
ATOM     14  H   UNL     1      35.088 -14.944 -21.619  0.00  0.00    +0.144 HD
ATOM     15  H   UNL     1      34.125 -13.587 -21.988  0.00  0.00    +0.144 HD
ENDBRANCH   6  13
TORSDOF 1
ENDMDL
MODEL 7
REMARK VINA RESULT:      -5.7      7.115      8.519
REMARK  Name = 444453
REMARK  1 active torsions:
REMARK  status: ('A' for Active; 'I' for Inactive)
REMARK    1  A    between atoms: N_5  and  C_7
REMARK                            x       y       z     vdW  Elec       q    Type
REMARK                         _______ _______ _______ _____ _____    ______ ____
ROOT
ATOM      1  N   UNL     1      38.581 -25.270 -13.673  0.00  0.00    -0.274 N 
ATOM      2  N   UNL     1      35.373 -23.749 -14.456  0.00  0.00    -0.312 N 
ATOM      3  N   UNL     1      36.885 -25.771 -12.049  0.00  0.00    -0.233 NA
ATOM      4  N   UNL     1      34.740 -24.754 -12.571  0.00  0.00    -0.301 N 
ATOM      5  C   UNL     1      36.483 -24.398 -13.993  0.00  0.00    +0.105 C 
ATOM      6  C   UNL     1      37.781 -24.524 -14.441  0.00  0.00    +0.111 C 
ATOM      7  C   UNL     1      36.062 -25.016 -12.821  0.00  0.00    +0.142 C 
ATOM      8  C   UNL     1      38.135 -25.846 -12.551  0.00  0.00    +0.222 C 
ATOM      9  C   UNL     1      39.980 -25.474 -14.048  0.00  0.00    +0.115 C 
ATOM     10  C   UNL     1      34.356 -23.991 -13.571  0.00  0.00    +0.183 C 
ATOM     11  H   UNL     1      35.314 -23.206 -15.276  0.00  0.00    +0.149 HD
ATOM     12  H   UNL     1      34.197 -25.067 -11.811  0.00  0.00    +0.150 HD
ENDROOT
BRANCH   6  13
ATOM     13  N   UNL     1      38.244 -23.918 -15.618  0.00  0.00    -0.345 N 
ATOM     14  H   UNL     1      37.690 -23.932 -16.430  0.00  0.00    +0.144 HD
ATOM     15  H   UNL     1      39.125 -23.477 -15.631  0.00  0.00    +0.144 HD
ENDBRANCH   6  13
TORSDOF 1
ENDMDL
MODEL 8
REMARK VINA RESULT:      -5.7      3.471      5.075
REMARK  Name = 444453
REMARK  1 active torsions:
REMARK  status: ('A' for Active; 'I' for Inactive)
REMARK    1  A    between atoms: N_5  and  C_7
REMARK                            x       y       z     vdW  Elec       q    Type
REMARK                         _______ _______ _______ _____ _____    ______ ____
ROOT
ATOM      1  N   UNL     1      34.380 -15.220 -23.234  0.00  0.00    -0.274 N 
ATOM      2  N   UNL     1      35.320 -17.720 -20.768  0.00  0.00    -0.312 N 
ATOM      3  N   UNL     1      34.833 -17.369 -24.204  0.00  0.00    -0.233 NA
ATOM      4  N   UNL     1      35.461 -19.042 -22.557  0.00  0.00    -0.301 N 
ATOM      5  C   UNL     1      34.991 -16.933 -21.835  0.00  0.00    +0.105 C 
ATOM      6  C   UNL     1      34.627 -15.611 -21.981  0.00  0.00    +0.111 C 
ATOM      7  C   UNL     1      35.085 -17.779 -22.935  0.00  0.00    +0.142 C 
ATOM      8  C   UNL     1      34.484 -16.067 -24.264  0.00  0.00    +0.222 C 
ATOM      9  C   UNL     1      33.986 -13.839 -23.510  0.00  0.00    +0.115 C 
ATOM     10  C   UNL     1      35.595 -18.973 -21.249  0.00  0.00    +0.183 C 
ATOM     11  H   UNL     1      35.354 -17.439 -19.824  0.00  0.00    +0.149 HD
ATOM     12  H   UNL     1      35.602 -19.827 -23.134  0.00  0.00    +0.150 HD
ENDROOT
BRANCH   6  13
ATOM     13  N   UNL     1      34.519 -14.726 -20.898  0.00  0.00    -0.345 N 
ATOM     14  H   UNL     1      35.001 -14.912 -20.060  0.00  0.00    +0.144 HD
ATOM     15  H   UNL     1      33.961 -13.919 -20.975  0.00  0.00    +0.144 HD
ENDBRANCH   6  13
TORSDOF 1
ENDMDL
MODEL 9
REMARK VINA RESULT:      -5.7      3.771      5.301
REMARK  Name = 444453
REMARK  1 active torsions:
REMARK  status: ('A' for Active; 'I' for Inactive)
REMARK    1  A    between atoms: N_5  and  C_7
REMARK                            x       y       z     vdW  Elec       q    Type
REMARK                         _______ _______ _______ _____ _____    ______ ____
ROOT
ATOM      1  N   UNL     1      33.952 -15.795 -24.199  0.00  0.00    -0.274 N 
ATOM      2  N   UNL     1      35.577 -18.606 -22.563  0.00  0.00    -0.312 N 
ATOM      3  N   UNL     1      34.246 -15.463 -21.839  0.00  0.00    -0.233 NA
ATOM      4  N   UNL     1      35.332 -17.342 -20.744  0.00  0.00    -0.301 N 
ATOM      5  C   UNL     1      34.962 -17.462 -22.988  0.00  0.00    +0.105 C 
ATOM      6  C   UNL     1      34.516 -17.006 -24.211  0.00  0.00    +0.111 C 
ATOM      7  C   UNL     1      34.822 -16.693 -21.838  0.00  0.00    +0.142 C 
ATOM      8  C   UNL     1      33.836 -15.088 -23.069  0.00  0.00    +0.222 C 
ATOM      9  C   UNL     1      33.442 -15.208 -25.438  0.00  0.00    +0.115 C 
ATOM     10  C   UNL     1      35.777 -18.488 -21.214  0.00  0.00    +0.183 C 
ATOM     11  H   UNL     1      35.831 -19.374 -23.124  0.00  0.00    +0.149 HD
ATOM     12  H   UNL     1      35.359 -17.023 -19.813  0.00  0.00    +0.150 HD
ENDROOT
BRANCH   6  13
ATOM     13  N   UNL     1      34.639 -17.750 -25.393  0.00  0.00    -0.345 N 
ATOM     14  H   UNL     1      35.529 -17.930 -25.772  0.00  0.00    +0.144 HD
ATOM     15  H   UNL     1      33.834 -18.093 -25.845  0.00  0.00    +0.144 HD
ENDBRANCH   6  13
TORSDOF 1
ENDMDL
