MODEL 1
REMARK VINA RESULT:     -10.3      0.000      0.000
REMARK  Name = 1396
REMARK  5 active torsions:
REMARK  status: ('A' for Active; 'I' for Inactive)
REMARK    1  A    between atoms: N_1  and  C_13
REMARK    2  A    between atoms: C_3  and  C_7
REMARK    3  A    between atoms: C_5  and  C_28
REMARK    4  A    between atoms: C_16  and  S_19
REMARK    5  A    between atoms: S_19  and  N_22
REMARK                            x       y       z     vdW  Elec       q    Type
REMARK                         _______ _______ _______ _____ _____    ______ ____
ROOT
ATOM      1  N   UNL     1      34.277 -24.234 -14.843  0.00  0.00    -0.190 N 
ATOM      2  N   UNL     1      33.416 -24.703 -13.925  0.00  0.00    -0.170 NA
ATOM      3  C   UNL     1      33.689 -23.483 -15.821  0.00  0.00    +0.075 C 
ATOM      4  C   UNL     1      32.349 -23.462 -15.518  0.00  0.00    +0.041 C 
ATOM      5  C   UNL     1      32.240 -24.228 -14.342  0.00  0.00    +0.172 C 
ENDROOT
BRANCH   3   7
ATOM      6 BR   UNL     1      36.693 -20.878 -20.477  0.00  0.00    -0.049 Br
ATOM      7  C   UNL     1      34.397 -22.868 -16.918  0.00  0.00    +0.016 C 
ATOM      8  C   UNL     1      33.782 -22.748 -18.164  0.00  0.00    +0.002 C 
ATOM      9  C   UNL     1      35.697 -22.396 -16.732  0.00  0.00    +0.002 C 
ATOM     10  C   UNL     1      34.466 -22.154 -19.225  0.00  0.00    +0.007 C 
ATOM     11  C   UNL     1      36.381 -21.802 -17.793  0.00  0.00    +0.007 C 
ATOM     12  C   UNL     1      35.766 -21.681 -19.039  0.00  0.00    +0.035 C 
ENDBRANCH   3   7
BRANCH   1  13
ATOM     13  C   UNL     1      35.636 -24.537 -14.729  0.00  0.00    +0.074 C 
ATOM     14  C   UNL     1      36.476 -23.668 -14.046  0.00  0.00    +0.018 C 
ATOM     15  C   UNL     1      36.126 -25.702 -15.301  0.00  0.00    +0.018 C 
ATOM     16  C   UNL     1      38.336 -25.140 -14.503  0.00  0.00    +0.122 C 
ATOM     17  C   UNL     1      37.832 -23.970 -13.933  0.00  0.00    +0.021 C 
ATOM     18  C   UNL     1      37.483 -26.005 -15.187  0.00  0.00    +0.021 C 
BRANCH  16  19
ATOM     19  S   UNL     1      40.034 -25.519 -14.360  0.00  0.00    +0.057 S 
ATOM     20  O   UNL     1      40.743 -24.310 -13.967  0.00  0.00    -0.153 OA
ATOM     21  O   UNL     1      40.173 -26.731 -13.565  0.00  0.00    -0.153 OA
BRANCH  19  22
ATOM     22  N   UNL     1      40.423 -25.882 -15.984  0.00  0.00    -0.203 NA
ATOM     23  H   UNL     1      40.379 -25.029 -16.543  0.00  0.00    +0.144 HD
ATOM     24  H   UNL     1      39.757 -26.561 -16.350  0.00  0.00    +0.144 HD
ENDBRANCH  19  22
ENDBRANCH  16  19
ENDBRANCH   1  13
BRANCH   5  28
ATOM     25  F   UNL     1      30.603 -23.491 -12.801  0.00  0.00    -0.164 F 
ATOM     26  F   UNL     1      29.952 -24.845 -14.372  0.00  0.00    -0.164 F 
ATOM     27  F   UNL     1      31.189 -25.589 -12.739  0.00  0.00    -0.164 F 
ATOM     28  C   UNL     1      31.016 -24.532 -13.580  0.00  0.00    +0.436 C 
ENDBRANCH   5  28
TORSDOF 5
ENDMDL
MODEL 2
REMARK VINA RESULT:      -9.8      1.378      2.100
REMARK  Name = 1396
REMARK  5 active torsions:
REMARK  status: ('A' for Active; 'I' for Inactive)
REMARK    1  A    between atoms: N_1  and  C_13
REMARK    2  A    between atoms: C_3  and  C_7
REMARK    3  A    between atoms: C_5  and  C_28
REMARK    4  A    between atoms: C_16  and  S_19
REMARK    5  A    between atoms: S_19  and  N_22
REMARK                            x       y       z     vdW  Elec       q    Type
REMARK                         _______ _______ _______ _____ _____    ______ ____
ROOT
ATOM      1  N   UNL     1      33.324 -24.133 -15.043  0.00  0.00    -0.190 N 
ATOM      2  N   UNL     1      32.320 -24.619 -14.294  0.00  0.00    -0.170 NA
ATOM      3  C   UNL     1      32.910 -23.488 -16.174  0.00  0.00    +0.075 C 
ATOM      4  C   UNL     1      31.537 -23.559 -16.160  0.00  0.00    +0.041 C 
ATOM      5  C   UNL     1      31.231 -24.264 -14.981  0.00  0.00    +0.172 C 
ENDROOT
BRANCH   3   7
ATOM      6 BR   UNL     1      36.652 -20.903 -20.273  0.00  0.00    -0.049 Br
ATOM      7  C   UNL     1      33.792 -22.880 -17.140  0.00  0.00    +0.016 C 
ATOM      8  C   UNL     1      35.112 -22.592 -16.794  0.00  0.00    +0.002 C 
ATOM      9  C   UNL     1      33.323 -22.578 -18.419  0.00  0.00    +0.002 C 
ATOM     10  C   UNL     1      35.965 -22.003 -17.728  0.00  0.00    +0.007 C 
ATOM     11  C   UNL     1      34.177 -21.989 -19.353  0.00  0.00    +0.007 C 
ATOM     12  C   UNL     1      35.497 -21.702 -19.008  0.00  0.00    +0.035 C 
ENDBRANCH   3   7
BRANCH   1  13
ATOM     13  C   UNL     1      34.644 -24.318 -14.627  0.00  0.00    +0.074 C 
ATOM     14  C   UNL     1      35.398 -25.344 -15.179  0.00  0.00    +0.018 C 
ATOM     15  C   UNL     1      35.182 -23.474 -13.666  0.00  0.00    +0.018 C 
ATOM     16  C   UNL     1      37.268 -24.686 -13.798  0.00  0.00    +0.122 C 
ATOM     17  C   UNL     1      36.716 -25.529 -14.762  0.00  0.00    +0.021 C 
ATOM     18  C   UNL     1      36.501 -23.658 -13.250  0.00  0.00    +0.021 C 
BRANCH  16  19
ATOM     19  S   UNL     1      38.918 -24.917 -13.278  0.00  0.00    +0.057 S 
ATOM     20  O   UNL     1      39.035 -26.249 -12.702  0.00  0.00    -0.153 OA
ATOM     21  O   UNL     1      39.806 -24.516 -14.361  0.00  0.00    -0.153 OA
BRANCH  19  22
ATOM     22  N   UNL     1      39.028 -23.763 -12.023  0.00  0.00    -0.203 NA
ATOM     23  H   UNL     1      38.105 -23.362 -11.848  0.00  0.00    +0.144 HD
ATOM     24  H   UNL     1      39.673 -23.022 -12.296  0.00  0.00    +0.144 HD
ENDBRANCH  19  22
ENDBRANCH  16  19
ENDBRANCH   1  13
BRANCH   5  28
ATOM     25  F   UNL     1      28.904 -23.834 -14.976  0.00  0.00    -0.164 F 
ATOM     26  F   UNL     1      29.534 -25.905 -14.766  0.00  0.00    -0.164 F 
ATOM     27  F   UNL     1      29.820 -24.508 -13.116  0.00  0.00    -0.164 F 
ATOM     28  C   UNL     1      29.896 -24.623 -14.471  0.00  0.00    +0.436 C 
ENDBRANCH   5  28
TORSDOF 5
ENDMDL
MODEL 3
REMARK VINA RESULT:      -9.5      5.048      6.432
REMARK  Name = 1396
REMARK  5 active torsions:
REMARK  status: ('A' for Active; 'I' for Inactive)
REMARK    1  A    between atoms: N_1  and  C_13
REMARK    2  A    between atoms: C_3  and  C_7
REMARK    3  A    between atoms: C_5  and  C_28
REMARK    4  A    between atoms: C_16  and  S_19
REMARK    5  A    between atoms: S_19  and  N_22
REMARK                            x       y       z     vdW  Elec       q    Type
REMARK                         _______ _______ _______ _____ _____    ______ ____
ROOT
ATOM      1  N   UNL     1      33.779 -23.836 -14.092  0.00  0.00    -0.190 N 
ATOM      2  N   UNL     1      33.973 -24.297 -12.845  0.00  0.00    -0.170 NA
ATOM      3  C   UNL     1      34.931 -23.506 -14.746  0.00  0.00    +0.075 C 
ATOM      4  C   UNL     1      35.950 -23.772 -13.863  0.00  0.00    +0.041 C 
ATOM      5  C   UNL     1      35.301 -24.257 -12.710  0.00  0.00    +0.172 C 
ENDROOT
BRANCH   3   7
ATOM      6 BR   UNL     1      35.182 -21.321 -20.460  0.00  0.00    -0.049 Br
ATOM      7  C   UNL     1      34.990 -22.990 -16.092  0.00  0.00    +0.016 C 
ATOM      8  C   UNL     1      33.907 -23.165 -16.954  0.00  0.00    +0.002 C 
ATOM      9  C   UNL     1      36.131 -22.319 -16.533  0.00  0.00    +0.002 C 
ATOM     10  C   UNL     1      33.963 -22.667 -18.256  0.00  0.00    +0.007 C 
ATOM     11  C   UNL     1      36.187 -21.820 -17.835  0.00  0.00    +0.007 C 
ATOM     12  C   UNL     1      35.104 -21.994 -18.696  0.00  0.00    +0.035 C 
ENDBRANCH   3   7
BRANCH   1  13
ATOM     13  C   UNL     1      32.479 -23.735 -14.592  0.00  0.00    +0.074 C 
ATOM     14  C   UNL     1      31.828 -22.509 -14.563  0.00  0.00    +0.018 C 
ATOM     15  C   UNL     1      31.857 -24.862 -15.110  0.00  0.00    +0.018 C 
ATOM     16  C   UNL     1      29.894 -23.535 -15.586  0.00  0.00    +0.122 C 
ATOM     17  C   UNL     1      30.530 -22.409 -15.062  0.00  0.00    +0.021 C 
ATOM     18  C   UNL     1      30.558 -24.761 -15.610  0.00  0.00    +0.021 C 
BRANCH  16  19
ATOM     19  S   UNL     1      28.269 -23.409 -16.212  0.00  0.00    +0.057 S 
ATOM     20  O   UNL     1      28.037 -24.526 -17.116  0.00  0.00    -0.153 OA
ATOM     21  O   UNL     1      27.361 -23.178 -15.097  0.00  0.00    -0.153 OA
BRANCH  19  22
ATOM     22  N   UNL     1      28.386 -21.972 -17.130  0.00  0.00    -0.203 NA
ATOM     23  H   UNL     1      29.340 -21.613 -17.080  0.00  0.00    +0.144 HD
ATOM     24  H   UNL     1      27.742 -21.276 -16.757  0.00  0.00    +0.144 HD
ENDBRANCH  19  22
ENDBRANCH  16  19
ENDBRANCH   1  13
BRANCH   5  28
ATOM     25  F   UNL     1      36.671 -23.719 -10.858  0.00  0.00    -0.164 F 
ATOM     26  F   UNL     1      35.015 -25.085 -10.509  0.00  0.00    -0.164 F 
ATOM     27  F   UNL     1      36.758 -25.755 -11.634  0.00  0.00    -0.164 F 
ATOM     28  C   UNL     1      35.923 -24.695 -11.449  0.00  0.00    +0.436 C 
ENDBRANCH   5  28
TORSDOF 5
ENDMDL
MODEL 4
REMARK VINA RESULT:      -9.5      5.048      6.557
REMARK  Name = 1396
REMARK  5 active torsions:
REMARK  status: ('A' for Active; 'I' for Inactive)
REMARK    1  A    between atoms: N_1  and  C_13
REMARK    2  A    between atoms: C_3  and  C_7
REMARK    3  A    between atoms: C_5  and  C_28
REMARK    4  A    between atoms: C_16  and  S_19
REMARK    5  A    between atoms: S_19  and  N_22
REMARK                            x       y       z     vdW  Elec       q    Type
REMARK                         _______ _______ _______ _____ _____    ______ ____
ROOT
ATOM      1  N   UNL     1      33.781 -23.835 -14.097  0.00  0.00    -0.190 N 
ATOM      2  N   UNL     1      33.976 -24.295 -12.850  0.00  0.00    -0.170 NA
ATOM      3  C   UNL     1      34.933 -23.505 -14.752  0.00  0.00    +0.075 C 
ATOM      4  C   UNL     1      35.952 -23.771 -13.868  0.00  0.00    +0.041 C 
ATOM      5  C   UNL     1      35.304 -24.255 -12.716  0.00  0.00    +0.172 C 
ENDROOT
BRANCH   3   7
ATOM      6 BR   UNL     1      35.177 -21.312 -20.463  0.00  0.00    -0.049 Br
ATOM      7  C   UNL     1      34.991 -22.989 -16.098  0.00  0.00    +0.016 C 
ATOM      8  C   UNL     1      36.130 -22.315 -16.538  0.00  0.00    +0.002 C 
ATOM      9  C   UNL     1      33.907 -23.162 -16.958  0.00  0.00    +0.002 C 
ATOM     10  C   UNL     1      36.186 -21.816 -17.839  0.00  0.00    +0.007 C 
ATOM     11  C   UNL     1      33.963 -22.663 -18.260  0.00  0.00    +0.007 C 
ATOM     12  C   UNL     1      35.102 -21.990 -18.700  0.00  0.00    +0.035 C 
ENDBRANCH   3   7
BRANCH   1  13
ATOM     13  C   UNL     1      32.481 -23.734 -14.596  0.00  0.00    +0.074 C 
ATOM     14  C   UNL     1      31.858 -24.861 -15.115  0.00  0.00    +0.018 C 
ATOM     15  C   UNL     1      31.831 -22.508 -14.569  0.00  0.00    +0.018 C 
ATOM     16  C   UNL     1      29.896 -23.533 -15.591  0.00  0.00    +0.122 C 
ATOM     17  C   UNL     1      30.560 -24.760 -15.615  0.00  0.00    +0.021 C 
ATOM     18  C   UNL     1      30.532 -22.407 -15.068  0.00  0.00    +0.021 C 
BRANCH  16  19
ATOM     19  S   UNL     1      28.271 -23.408 -16.215  0.00  0.00    +0.057 S 
ATOM     20  O   UNL     1      28.039 -24.525 -17.119  0.00  0.00    -0.153 OA
ATOM     21  O   UNL     1      27.363 -23.177 -15.100  0.00  0.00    -0.153 OA
BRANCH  19  22
ATOM     22  N   UNL     1      28.387 -21.972 -17.134  0.00  0.00    -0.203 NA
ATOM     23  H   UNL     1      28.570 -22.206 -18.110  0.00  0.00    +0.144 HD
ATOM     24  H   UNL     1      29.149 -21.397 -16.774  0.00  0.00    +0.144 HD
ENDBRANCH  19  22
ENDBRANCH  16  19
ENDBRANCH   1  13
BRANCH   5  28
ATOM     25  F   UNL     1      36.674 -23.717 -10.863  0.00  0.00    -0.164 F 
ATOM     26  F   UNL     1      35.018 -25.082 -10.514  0.00  0.00    -0.164 F 
ATOM     27  F   UNL     1      36.761 -25.752 -11.639  0.00  0.00    -0.164 F 
ATOM     28  C   UNL     1      35.925 -24.692 -11.454  0.00  0.00    +0.436 C 
ENDBRANCH   5  28
TORSDOF 5
ENDMDL
MODEL 5
REMARK VINA RESULT:      -9.0     10.668     12.513
REMARK  Name = 1396
REMARK  5 active torsions:
REMARK  status: ('A' for Active; 'I' for Inactive)
REMARK    1  A    between atoms: N_1  and  C_13
REMARK    2  A    between atoms: C_3  and  C_7
REMARK    3  A    between atoms: C_5  and  C_28
REMARK    4  A    between atoms: C_16  and  S_19
REMARK    5  A    between atoms: S_19  and  N_22
REMARK                            x       y       z     vdW  Elec       q    Type
REMARK                         _______ _______ _______ _____ _____    ______ ____
ROOT
ATOM      1  N   UNL     1      32.527 -13.218 -20.859  0.00  0.00    -0.190 N 
ATOM      2  N   UNL     1      32.109 -12.742 -19.674  0.00  0.00    -0.170 NA
ATOM      3  C   UNL     1      32.398 -12.330 -21.889  0.00  0.00    +0.075 C 
ATOM      4  C   UNL     1      31.856 -11.194 -21.336  0.00  0.00    +0.041 C 
ATOM      5  C   UNL     1      31.701 -11.505 -19.971  0.00  0.00    +0.172 C 
ENDROOT
BRANCH   3   7
ATOM      6 BR   UNL     1      33.992 -13.475 -27.689  0.00  0.00    -0.049 Br
ATOM      7  C   UNL     1      32.774 -12.600 -23.255  0.00  0.00    +0.016 C 
ATOM      8  C   UNL     1      33.533 -11.671 -23.966  0.00  0.00    +0.002 C 
ATOM      9  C   UNL     1      32.377 -13.790 -23.866  0.00  0.00    +0.002 C 
ATOM     10  C   UNL     1      33.898 -11.932 -25.288  0.00  0.00    +0.007 C 
ATOM     11  C   UNL     1      32.741 -14.051 -25.188  0.00  0.00    +0.007 C 
ATOM     12  C   UNL     1      33.501 -13.122 -25.898  0.00  0.00    +0.035 C 
ENDBRANCH   3   7
BRANCH   1  13
ATOM     13  C   UNL     1      33.034 -14.516 -20.938  0.00  0.00    +0.074 C 
ATOM     14  C   UNL     1      34.398 -14.710 -21.106  0.00  0.00    +0.018 C 
ATOM     15  C   UNL     1      32.166 -15.595 -20.847  0.00  0.00    +0.018 C 
ATOM     16  C   UNL     1      34.041 -17.099 -21.095  0.00  0.00    +0.122 C 
ATOM     17  C   UNL     1      34.904 -16.007 -21.186  0.00  0.00    +0.021 C 
ATOM     18  C   UNL     1      32.672 -16.893 -20.926  0.00  0.00    +0.021 C 
BRANCH  16  19
ATOM     19  S   UNL     1      34.675 -18.723 -21.193  0.00  0.00    +0.057 S 
ATOM     20  O   UNL     1      36.015 -18.728 -20.625  0.00  0.00    -0.153 OA
ATOM     21  O   UNL     1      33.669 -19.644 -20.683  0.00  0.00    -0.153 OA
BRANCH  19  22
ATOM     22  N   UNL     1      34.793 -18.923 -22.885  0.00  0.00    -0.203 NA
ATOM     23  H   UNL     1      34.970 -19.905 -23.100  0.00  0.00    +0.144 HD
ATOM     24  H   UNL     1      35.559 -18.354 -23.243  0.00  0.00    +0.144 HD
ENDBRANCH  19  22
ENDBRANCH  16  19
ENDBRANCH   1  13
BRANCH   5  28
ATOM     25  F   UNL     1      29.822 -10.413 -19.038  0.00  0.00    -0.164 F 
ATOM     26  F   UNL     1      31.331 -11.152 -17.658  0.00  0.00    -0.164 F 
ATOM     27  F   UNL     1      31.754  -9.413 -18.902  0.00  0.00    -0.164 F 
ATOM     28  C   UNL     1      31.161 -10.639 -18.910  0.00  0.00    +0.436 C 
ENDBRANCH   5  28
TORSDOF 5
ENDMDL
MODEL 6
REMARK VINA RESULT:      -8.8      4.979      6.412
REMARK  Name = 1396
REMARK  5 active torsions:
REMARK  status: ('A' for Active; 'I' for Inactive)
REMARK    1  A    between atoms: N_1  and  C_13
REMARK    2  A    between atoms: C_3  and  C_7
REMARK    3  A    between atoms: C_5  and  C_28
REMARK    4  A    between atoms: C_16  and  S_19
REMARK    5  A    between atoms: S_19  and  N_22
REMARK                            x       y       z     vdW  Elec       q    Type
REMARK                         _______ _______ _______ _____ _____    ______ ____
ROOT
ATOM      1  N   UNL     1      34.555 -23.946 -14.850  0.00  0.00    -0.190 N 
ATOM      2  N   UNL     1      34.883 -24.661 -13.761  0.00  0.00    -0.170 NA
ATOM      3  C   UNL     1      35.623 -23.592 -15.624  0.00  0.00    +0.075 C 
ATOM      4  C   UNL     1      36.728 -24.116 -14.994  0.00  0.00    +0.041 C 
ATOM      5  C   UNL     1      36.212 -24.763 -13.855  0.00  0.00    +0.172 C 
ENDROOT
BRANCH   3   7
ATOM      6 BR   UNL     1      35.242 -20.331 -20.791  0.00  0.00    -0.049 Br
ATOM      7  C   UNL     1      35.534 -22.824 -16.842  0.00  0.00    +0.016 C 
ATOM      8  C   UNL     1      36.610 -22.037 -17.250  0.00  0.00    +0.002 C 
ATOM      9  C   UNL     1      34.370 -22.868 -17.610  0.00  0.00    +0.002 C 
ATOM     10  C   UNL     1      36.524 -21.294 -18.428  0.00  0.00    +0.007 C 
ATOM     11  C   UNL     1      34.284 -22.125 -18.787  0.00  0.00    +0.007 C 
ATOM     12  C   UNL     1      35.360 -21.339 -19.197  0.00  0.00    +0.035 C 
ENDBRANCH   3   7
BRANCH   1  13
ATOM     13  C   UNL     1      33.215 -23.635 -15.089  0.00  0.00    +0.074 C 
ATOM     14  C   UNL     1      32.560 -22.740 -14.255  0.00  0.00    +0.018 C 
ATOM     15  C   UNL     1      32.556 -24.227 -16.158  0.00  0.00    +0.018 C 
ATOM     16  C   UNL     1      30.549 -23.019 -15.565  0.00  0.00    +0.122 C 
ATOM     17  C   UNL     1      31.221 -22.431 -14.493  0.00  0.00    +0.021 C 
ATOM     18  C   UNL     1      31.217 -23.917 -16.397  0.00  0.00    +0.021 C 
BRANCH  16  19
ATOM     19  S   UNL     1      28.874 -22.631 -15.865  0.00  0.00    +0.057 S 
ATOM     20  O   UNL     1      28.427 -21.701 -14.837  0.00  0.00    -0.153 OA
ATOM     21  O   UNL     1      28.724 -22.283 -17.271  0.00  0.00    -0.153 OA
BRANCH  19  22
ATOM     22  N   UNL     1      28.136 -24.148 -15.594  0.00  0.00    -0.203 NA
ATOM     23  H   UNL     1      28.697 -24.685 -14.931  0.00  0.00    +0.144 HD
ATOM     24  H   UNL     1      28.071 -24.657 -16.474  0.00  0.00    +0.144 HD
ENDBRANCH  19  22
ENDBRANCH  16  19
ENDBRANCH   1  13
BRANCH   5  28
ATOM     25  F   UNL     1      37.035 -26.836 -13.067  0.00  0.00    -0.164 F 
ATOM     26  F   UNL     1      38.255 -25.075 -12.696  0.00  0.00    -0.164 F 
ATOM     27  F   UNL     1      36.398 -25.364 -11.590  0.00  0.00    -0.164 F 
ATOM     28  C   UNL     1      36.964 -25.496 -12.822  0.00  0.00    +0.436 C 
ENDBRANCH   5  28
TORSDOF 5
ENDMDL
MODEL 7
REMARK VINA RESULT:      -8.4      4.519      5.982
REMARK  Name = 1396
REMARK  5 active torsions:
REMARK  status: ('A' for Active; 'I' for Inactive)
REMARK    1  A    between atoms: N_1  and  C_13
REMARK    2  A    between atoms: C_3  and  C_7
REMARK    3  A    between atoms: C_5  and  C_28
REMARK    4  A    between atoms: C_16  and  S_19
REMARK    5  A    between atoms: S_19  and  N_22
REMARK                            x       y       z     vdW  Elec       q    Type
REMARK                         _______ _______ _______ _____ _____    ______ ____
ROOT
ATOM      1  N   UNL     1      34.772 -23.632 -14.597  0.00  0.00    -0.190 N 
ATOM      2  N   UNL     1      35.862 -23.906 -13.861  0.00  0.00    -0.170 NA
ATOM      3  C   UNL     1      33.595 -23.952 -13.984  0.00  0.00    +0.075 C 
ATOM      4  C   UNL     1      33.942 -24.471 -12.760  0.00  0.00    +0.041 C 
ATOM      5  C   UNL     1      35.349 -24.418 -12.739  0.00  0.00    +0.172 C 
ENDROOT
BRANCH   3   7
ATOM      6 BR   UNL     1      28.051 -23.120 -16.446  0.00  0.00    -0.049 Br
ATOM      7  C   UNL     1      32.289 -23.756 -14.565  0.00  0.00    +0.016 C 
ATOM      8  C   UNL     1      31.682 -22.501 -14.508  0.00  0.00    +0.002 C 
ATOM      9  C   UNL     1      31.632 -24.821 -15.181  0.00  0.00    +0.002 C 
ATOM     10  C   UNL     1      30.419 -22.311 -15.070  0.00  0.00    +0.007 C 
ATOM     11  C   UNL     1      30.369 -24.631 -15.743  0.00  0.00    +0.007 C 
ATOM     12  C   UNL     1      29.763 -23.376 -15.687  0.00  0.00    +0.035 C 
ENDBRANCH   3   7
BRANCH   1  13
ATOM     13  C   UNL     1      34.925 -23.072 -15.867  0.00  0.00    +0.074 C 
ATOM     14  C   UNL     1      33.904 -23.203 -16.800  0.00  0.00    +0.018 C 
ATOM     15  C   UNL     1      36.094 -22.393 -16.179  0.00  0.00    +0.018 C 
ATOM     16  C   UNL     1      35.227 -21.958 -18.393  0.00  0.00    +0.122 C 
ATOM     17  C   UNL     1      34.056 -22.644 -18.068  0.00  0.00    +0.021 C 
ATOM     18  C   UNL     1      36.246 -21.833 -17.449  0.00  0.00    +0.021 C 
BRANCH  16  19
ATOM     19  S   UNL     1      35.417 -21.258 -19.980  0.00  0.00    +0.057 S 
ATOM     20  O   UNL     1      36.002 -22.262 -20.858  0.00  0.00    -0.153 OA
ATOM     21  O   UNL     1      34.167 -20.609 -20.353  0.00  0.00    -0.153 OA
BRANCH  19  22
ATOM     22  N   UNL     1      36.587 -20.053 -19.665  0.00  0.00    -0.203 NA
ATOM     23  H   UNL     1      36.762 -20.003 -18.661  0.00  0.00    +0.144 HD
ATOM     24  H   UNL     1      36.244 -19.151 -19.995  0.00  0.00    +0.144 HD
ENDBRANCH  19  22
ENDBRANCH  16  19
ENDBRANCH   1  13
BRANCH   5  28
ATOM     25  F   UNL     1      36.817 -26.067 -11.890  0.00  0.00    -0.164 F 
ATOM     26  F   UNL     1      37.285 -23.992 -11.441  0.00  0.00    -0.164 F 
ATOM     27  F   UNL     1      35.593 -24.961 -10.465  0.00  0.00    -0.164 F 
ATOM     28  C   UNL     1      36.247 -24.850 -11.655  0.00  0.00    +0.436 C 
ENDBRANCH   5  28
TORSDOF 5
ENDMDL
MODEL 8
REMARK VINA RESULT:      -7.9     12.056     14.094
REMARK  Name = 1396
REMARK  5 active torsions:
REMARK  status: ('A' for Active; 'I' for Inactive)
REMARK    1  A    between atoms: N_1  and  C_13
REMARK    2  A    between atoms: C_3  and  C_7
REMARK    3  A    between atoms: C_5  and  C_28
REMARK    4  A    between atoms: C_16  and  S_19
REMARK    5  A    between atoms: S_19  and  N_22
REMARK                            x       y       z     vdW  Elec       q    Type
REMARK                         _______ _______ _______ _____ _____    ______ ____
ROOT
ATOM      1  N   UNL     1      32.372 -12.536 -21.569  0.00  0.00    -0.190 N 
ATOM      2  N   UNL     1      31.865 -11.361 -21.162  0.00  0.00    -0.170 NA
ATOM      3  C   UNL     1      32.540 -13.445 -20.564  0.00  0.00    +0.075 C 
ATOM      4  C   UNL     1      32.112 -12.817 -19.419  0.00  0.00    +0.041 C 
ATOM      5  C   UNL     1      31.707 -11.538 -19.847  0.00  0.00    +0.172 C 
ENDROOT
BRANCH   3   7
ATOM      6 BR   UNL     1      34.771 -19.096 -21.328  0.00  0.00    -0.049 Br
ATOM      7  C   UNL     1      33.066 -14.777 -20.743  0.00  0.00    +0.016 C 
ATOM      8  C   UNL     1      34.436 -14.967 -20.926  0.00  0.00    +0.002 C 
ATOM      9  C   UNL     1      32.204 -15.874 -20.736  0.00  0.00    +0.002 C 
ATOM     10  C   UNL     1      34.944 -16.254 -21.099  0.00  0.00    +0.007 C 
ATOM     11  C   UNL     1      32.713 -17.161 -20.909  0.00  0.00    +0.007 C 
ATOM     12  C   UNL     1      34.082 -17.351 -21.091  0.00  0.00    +0.035 C 
ENDBRANCH   3   7
BRANCH   1  13
ATOM     13  C   UNL     1      32.671 -12.724 -22.920  0.00  0.00    +0.074 C 
ATOM     14  C   UNL     1      33.370 -11.742 -23.609  0.00  0.00    +0.018 C 
ATOM     15  C   UNL     1      32.266 -13.890 -23.555  0.00  0.00    +0.018 C 
ATOM     16  C   UNL     1      33.268 -13.097 -25.606  0.00  0.00    +0.122 C 
ATOM     17  C   UNL     1      33.669 -11.929 -24.958  0.00  0.00    +0.021 C 
ATOM     18  C   UNL     1      32.566 -14.077 -24.905  0.00  0.00    +0.021 C 
BRANCH  16  19
ATOM     19  S   UNL     1      33.643 -13.332 -27.295  0.00  0.00    +0.057 S 
ATOM     20  O   UNL     1      34.755 -12.460 -27.643  0.00  0.00    -0.153 OA
ATOM     21  O   UNL     1      33.734 -14.762 -27.554  0.00  0.00    -0.153 OA
BRANCH  19  22
ATOM     22  N   UNL     1      32.222 -12.732 -28.029  0.00  0.00    -0.203 NA
ATOM     23  H   UNL     1      31.879 -13.409 -28.711  0.00  0.00    +0.144 HD
ATOM     24  H   UNL     1      32.427 -11.851 -28.499  0.00  0.00    +0.144 HD
ENDBRANCH  19  22
ENDBRANCH  16  19
ENDBRANCH   1  13
BRANCH   5  28
ATOM     25  F   UNL     1      31.574  -9.213 -19.431  0.00  0.00    -0.164 F 
ATOM     26  F   UNL     1      29.797 -10.400 -19.029  0.00  0.00    -0.164 F 
ATOM     27  F   UNL     1      31.531 -10.560 -17.717  0.00  0.00    -0.164 F 
ATOM     28  C   UNL     1      31.160 -10.447 -19.023  0.00  0.00    +0.436 C 
ENDBRANCH   5  28
TORSDOF 5
ENDMDL
MODEL 9
REMARK VINA RESULT:      -7.8      4.931      6.611
REMARK  Name = 1396
REMARK  5 active torsions:
REMARK  status: ('A' for Active; 'I' for Inactive)
REMARK    1  A    between atoms: N_1  and  C_13
REMARK    2  A    between atoms: C_3  and  C_7
REMARK    3  A    between atoms: C_5  and  C_28
REMARK    4  A    between atoms: C_16  and  S_19
REMARK    5  A    between atoms: S_19  and  N_22
REMARK                            x       y       z     vdW  Elec       q    Type
REMARK                         _______ _______ _______ _____ _____    ______ ____
ROOT
ATOM      1  N   UNL     1      35.275 -23.601 -16.073  0.00  0.00    -0.190 N 
ATOM      2  N   UNL     1      36.494 -24.072 -15.762  0.00  0.00    -0.170 NA
ATOM      3  C   UNL     1      34.289 -24.008 -15.221  0.00  0.00    +0.075 C 
ATOM      4  C   UNL     1      34.911 -24.801 -14.285  0.00  0.00    +0.041 C 
ATOM      5  C   UNL     1      36.266 -24.804 -14.668  0.00  0.00    +0.172 C 
ENDROOT
BRANCH   3   7
ATOM      6 BR   UNL     1      28.390 -22.447 -15.722  0.00  0.00    -0.049 Br
ATOM      7  C   UNL     1      32.900 -23.639 -15.339  0.00  0.00    +0.016 C 
ATOM      8  C   UNL     1      32.343 -22.721 -14.449  0.00  0.00    +0.002 C 
ATOM      9  C   UNL     1      32.112 -24.203 -16.343  0.00  0.00    +0.002 C 
ATOM     10  C   UNL     1      30.999 -22.364 -14.564  0.00  0.00    +0.007 C 
ATOM     11  C   UNL     1      30.768 -23.847 -16.458  0.00  0.00    +0.007 C 
ATOM     12  C   UNL     1      30.212 -22.928 -15.568  0.00  0.00    +0.035 C 
ENDBRANCH   3   7
BRANCH   1  13
ATOM     13  C   UNL     1      35.123 -22.775 -17.189  0.00  0.00    +0.074 C 
ATOM     14  C   UNL     1      33.898 -22.724 -17.841  0.00  0.00    +0.018 C 
ATOM     15  C   UNL     1      36.198 -22.017 -17.630  0.00  0.00    +0.018 C 
ATOM     16  C   UNL     1      34.819 -21.133 -19.407  0.00  0.00    +0.122 C 
ATOM     17  C   UNL     1      33.746 -21.901 -18.955  0.00  0.00    +0.021 C 
ATOM     18  C   UNL     1      36.045 -21.191 -18.745  0.00  0.00    +0.021 C 
BRANCH  16  19
ATOM     19  S   UNL     1      34.628 -20.100 -20.802  0.00  0.00    +0.057 S 
ATOM     20  O   UNL     1      35.147 -18.781 -20.470  0.00  0.00    -0.153 OA
ATOM     21  O   UNL     1      35.134 -20.805 -21.972  0.00  0.00    -0.153 OA
BRANCH  19  22
ATOM     22  N   UNL     1      32.926 -20.012 -20.909  0.00  0.00    -0.203 NA
ATOM     23  H   UNL     1      32.659 -19.145 -21.378  0.00  0.00    +0.144 HD
ATOM     24  H   UNL     1      32.524 -20.028 -19.972  0.00  0.00    +0.144 HD
ENDBRANCH  19  22
ENDBRANCH  16  19
ENDBRANCH   1  13
BRANCH   5  28
ATOM     25  F   UNL     1      38.193 -24.660 -13.304  0.00  0.00    -0.164 F 
ATOM     26  F   UNL     1      36.974 -26.451 -13.119  0.00  0.00    -0.164 F 
ATOM     27  F   UNL     1      38.185 -26.140 -14.905  0.00  0.00    -0.164 F 
ATOM     28  C   UNL     1      37.382 -25.502 -14.008  0.00  0.00    +0.436 C 
ENDBRANCH   5  28
TORSDOF 5
ENDMDL
