MODEL 1
REMARK VINA RESULT:      -3.6      0.000      0.000
REMARK  Name = 1030
REMARK  3 active torsions:
REMARK  status: ('A' for Active; 'I' for Inactive)
REMARK    1  A    between atoms: C_1  and  O_3
REMARK    2  A    between atoms: C_1  and  C_5
REMARK    3  A    between atoms: C_5  and  O_6
REMARK                            x       y       z     vdW  Elec       q    Type
REMARK                         _______ _______ _______ _____ _____    ______ ____
ROOT
ATOM      1  C   UNL     1      38.829 -25.174 -14.627  0.00  0.00    +0.140 C 
ATOM      2  C   UNL     1      38.450 -24.812 -13.199  0.00  0.00    +0.034 C 
ENDROOT
BRANCH   1   3
ATOM      3  O   UNL     1      38.795 -23.992 -15.427  0.00  0.00    -0.382 OA
ATOM      4  H   UNL     1      38.148 -23.371 -15.059  0.00  0.00    +0.210 HD
ENDBRANCH   1   3
BRANCH   1   5
ATOM      5  C   UNL     1      40.234 -25.760 -14.699  0.00  0.00    +0.166 C 
BRANCH   5   6
ATOM      6  O   UNL     1      40.557 -26.018 -16.062  0.00  0.00    -0.379 OA
ATOM      7  H   UNL     1      40.768 -25.182 -16.507  0.00  0.00    +0.211 HD
ENDBRANCH   5   6
ENDBRANCH   1   5
TORSDOF 3
ENDMDL
MODEL 2
REMARK VINA RESULT:      -3.6     11.169     11.911
REMARK  Name = 1030
REMARK  3 active torsions:
REMARK  status: ('A' for Active; 'I' for Inactive)
REMARK    1  A    between atoms: C_1  and  O_3
REMARK    2  A    between atoms: C_1  and  C_5
REMARK    3  A    between atoms: C_5  and  O_6
REMARK                            x       y       z     vdW  Elec       q    Type
REMARK                         _______ _______ _______ _____ _____    ______ ____
ROOT
ATOM      1  C   UNL     1      28.441 -23.578 -16.615  0.00  0.00    +0.140 C 
ATOM      2  C   UNL     1      28.923 -24.491 -15.498  0.00  0.00    +0.034 C 
ENDROOT
BRANCH   1   3
ATOM      3  O   UNL     1      27.698 -24.353 -17.556  0.00  0.00    -0.382 OA
ATOM      4  H   UNL     1      28.123 -24.299 -18.426  0.00  0.00    +0.210 HD
ENDBRANCH   1   3
BRANCH   1   5
ATOM      5  C   UNL     1      27.534 -22.476 -16.081  0.00  0.00    +0.166 C 
BRANCH   5   6
ATOM      6  O   UNL     1      27.299 -21.529 -17.118  0.00  0.00    -0.379 OA
ATOM      7  H   UNL     1      27.952 -21.656 -17.825  0.00  0.00    +0.211 HD
ENDBRANCH   5   6
ENDBRANCH   1   5
TORSDOF 3
ENDMDL
MODEL 3
REMARK VINA RESULT:      -3.6      1.395      1.623
REMARK  Name = 1030
REMARK  3 active torsions:
REMARK  status: ('A' for Active; 'I' for Inactive)
REMARK    1  A    between atoms: C_1  and  O_3
REMARK    2  A    between atoms: C_1  and  C_5
REMARK    3  A    between atoms: C_5  and  O_6
REMARK                            x       y       z     vdW  Elec       q    Type
REMARK                         _______ _______ _______ _____ _____    ______ ____
ROOT
ATOM      1  C   UNL     1      38.893 -25.759 -14.240  0.00  0.00    +0.140 C 
ATOM      2  C   UNL     1      37.951 -24.690 -14.771  0.00  0.00    +0.034 C 
ENDROOT
BRANCH   1   3
ATOM      3  O   UNL     1      38.464 -27.033 -14.719  0.00  0.00    -0.382 OA
ATOM      4  H   UNL     1      37.537 -26.977 -14.998  0.00  0.00    +0.210 HD
ENDBRANCH   1   3
BRANCH   1   5
ATOM      5  C   UNL     1      40.323 -25.526 -14.715  0.00  0.00    +0.166 C 
BRANCH   5   6
ATOM      6  O   UNL     1      40.436 -25.959 -16.067  0.00  0.00    -0.379 OA
ATOM      7  H   UNL     1      40.232 -26.906 -16.121  0.00  0.00    +0.211 HD
ENDBRANCH   5   6
ENDBRANCH   1   5
TORSDOF 3
ENDMDL
MODEL 4
REMARK VINA RESULT:      -3.5      2.658      3.043
REMARK  Name = 1030
REMARK  3 active torsions:
REMARK  status: ('A' for Active; 'I' for Inactive)
REMARK    1  A    between atoms: C_1  and  O_3
REMARK    2  A    between atoms: C_1  and  C_5
REMARK    3  A    between atoms: C_5  and  O_6
REMARK                            x       y       z     vdW  Elec       q    Type
REMARK                         _______ _______ _______ _____ _____    ______ ____
ROOT
ATOM      1  C   UNL     1      37.661 -26.118 -14.381  0.00  0.00    +0.140 C 
ATOM      2  C   UNL     1      37.310 -26.202 -12.904  0.00  0.00    +0.034 C 
ENDROOT
BRANCH   1   3
ATOM      3  O   UNL     1      38.673 -27.081 -14.671  0.00  0.00    -0.382 OA
ATOM      4  H   UNL     1      38.949 -26.992 -15.596  0.00  0.00    +0.210 HD
ENDBRANCH   1   3
BRANCH   1   5
ATOM      5  C   UNL     1      36.451 -26.418 -15.258  0.00  0.00    +0.166 C 
BRANCH   5   6
ATOM      6  O   UNL     1      36.846 -27.300 -16.304  0.00  0.00    -0.379 OA
ATOM      7  H   UNL     1      37.404 -26.822 -16.936  0.00  0.00    +0.211 HD
ENDBRANCH   5   6
ENDBRANCH   1   5
TORSDOF 3
ENDMDL
MODEL 5
REMARK VINA RESULT:      -3.5      3.919      5.012
REMARK  Name = 1030
REMARK  3 active torsions:
REMARK  status: ('A' for Active; 'I' for Inactive)
REMARK    1  A    between atoms: C_1  and  O_3
REMARK    2  A    between atoms: C_1  and  C_5
REMARK    3  A    between atoms: C_5  and  O_6
REMARK                            x       y       z     vdW  Elec       q    Type
REMARK                         _______ _______ _______ _____ _____    ______ ____
ROOT
ATOM      1  C   UNL     1      36.731 -25.149 -12.397  0.00  0.00    +0.140 C 
ATOM      2  C   UNL     1      38.012 -24.421 -12.022  0.00  0.00    +0.034 C 
ENDROOT
BRANCH   1   3
ATOM      3  O   UNL     1      36.826 -26.505 -11.962  0.00  0.00    -0.382 OA
ATOM      4  H   UNL     1      37.009 -26.527 -11.010  0.00  0.00    +0.210 HD
ENDBRANCH   1   3
BRANCH   1   5
ATOM      5  C   UNL     1      35.515 -24.518 -11.729  0.00  0.00    +0.166 C 
BRANCH   5   6
ATOM      6  O   UNL     1      35.329 -25.115 -10.449  0.00  0.00    -0.379 OA
ATOM      7  H   UNL     1      36.193 -25.326 -10.063  0.00  0.00    +0.211 HD
ENDBRANCH   5   6
ENDBRANCH   1   5
TORSDOF 3
ENDMDL
MODEL 6
REMARK VINA RESULT:      -3.5     10.263     10.962
REMARK  Name = 1030
REMARK  3 active torsions:
REMARK  status: ('A' for Active; 'I' for Inactive)
REMARK    1  A    between atoms: C_1  and  O_3
REMARK    2  A    between atoms: C_1  and  C_5
REMARK    3  A    between atoms: C_5  and  O_6
REMARK                            x       y       z     vdW  Elec       q    Type
REMARK                         _______ _______ _______ _____ _____    ______ ____
ROOT
ATOM      1  C   UNL     1      29.152 -22.884 -16.162  0.00  0.00    +0.140 C 
ATOM      2  C   UNL     1      30.655 -22.879 -16.395  0.00  0.00    +0.034 C 
ENDROOT
BRANCH   1   3
ATOM      3  O   UNL     1      28.545 -21.942 -17.045  0.00  0.00    -0.382 OA
ATOM      4  H   UNL     1      27.877 -21.430 -16.563  0.00  0.00    +0.210 HD
ENDBRANCH   1   3
BRANCH   1   5
ATOM      5  C   UNL     1      28.550 -24.257 -16.440  0.00  0.00    +0.166 C 
BRANCH   5   6
ATOM      6  O   UNL     1      27.695 -24.164 -17.575  0.00  0.00    -0.379 OA
ATOM      7  H   UNL     1      26.841 -24.578 -17.370  0.00  0.00    +0.211 HD
ENDBRANCH   5   6
ENDBRANCH   1   5
TORSDOF 3
ENDMDL
MODEL 7
REMARK VINA RESULT:      -3.4     10.826     11.313
REMARK  Name = 1030
REMARK  3 active torsions:
REMARK  status: ('A' for Active; 'I' for Inactive)
REMARK    1  A    between atoms: C_1  and  O_3
REMARK    2  A    between atoms: C_1  and  C_5
REMARK    3  A    between atoms: C_5  and  O_6
REMARK                            x       y       z     vdW  Elec       q    Type
REMARK                         _______ _______ _______ _____ _____    ______ ____
ROOT
ATOM      1  C   UNL     1      41.842 -14.334 -16.324  0.00  0.00    +0.140 C 
ATOM      2  C   UNL     1      41.266 -14.192 -17.724  0.00  0.00    +0.034 C 
ENDROOT
BRANCH   1   3
ATOM      3  O   UNL     1      41.770 -13.070 -15.665  0.00  0.00    -0.382 OA
ATOM      4  H   UNL     1      42.468 -13.016 -14.994  0.00  0.00    +0.210 HD
ENDBRANCH   1   3
BRANCH   1   5
ATOM      5  C   UNL     1      41.059 -15.349 -15.500  0.00  0.00    +0.166 C 
BRANCH   5   6
ATOM      6  O   UNL     1      40.451 -14.680 -14.400  0.00  0.00    -0.379 OA
ATOM      7  H   UNL     1      40.847 -13.800 -14.299  0.00  0.00    +0.211 HD
ENDBRANCH   5   6
ENDBRANCH   1   5
TORSDOF 3
ENDMDL
MODEL 8
REMARK VINA RESULT:      -3.4      9.660      9.949
REMARK  Name = 1030
REMARK  3 active torsions:
REMARK  status: ('A' for Active; 'I' for Inactive)
REMARK    1  A    between atoms: C_1  and  O_3
REMARK    2  A    between atoms: C_1  and  C_5
REMARK    3  A    between atoms: C_5  and  O_6
REMARK                            x       y       z     vdW  Elec       q    Type
REMARK                         _______ _______ _______ _____ _____    ______ ____
ROOT
ATOM      1  C   UNL     1      41.188 -15.530 -15.206  0.00  0.00    +0.140 C 
ATOM      2  C   UNL     1      40.922 -14.063 -14.905  0.00  0.00    +0.034 C 
ENDROOT
BRANCH   1   3
ATOM      3  O   UNL     1      39.945 -16.230 -15.226  0.00  0.00    -0.382 OA
ATOM      4  H   UNL     1      40.018 -17.002 -15.808  0.00  0.00    +0.210 HD
ENDBRANCH   1   3
BRANCH   1   5
ATOM      5  C   UNL     1      41.858 -15.707 -16.564  0.00  0.00    +0.166 C 
BRANCH   5   6
ATOM      6  O   UNL     1      43.166 -16.234 -16.368  0.00  0.00    -0.379 OA
ATOM      7  H   UNL     1      43.161 -17.187 -16.552  0.00  0.00    +0.211 HD
ENDBRANCH   5   6
ENDBRANCH   1   5
TORSDOF 3
ENDMDL
MODEL 9
REMARK VINA RESULT:      -3.3     12.474     13.086
REMARK  Name = 1030
REMARK  3 active torsions:
REMARK  status: ('A' for Active; 'I' for Inactive)
REMARK    1  A    between atoms: C_1  and  O_3
REMARK    2  A    between atoms: C_1  and  C_5
REMARK    3  A    between atoms: C_5  and  O_6
REMARK                            x       y       z     vdW  Elec       q    Type
REMARK                         _______ _______ _______ _____ _____    ______ ____
ROOT
ATOM      1  C   UNL     1      34.889 -17.354 -23.592  0.00  0.00    +0.140 C 
ATOM      2  C   UNL     1      35.627 -18.452 -22.842  0.00  0.00    +0.034 C 
ENDROOT
BRANCH   1   3
ATOM      3  O   UNL     1      35.720 -16.195 -23.649  0.00  0.00    -0.382 OA
ATOM      4  H   UNL     1      35.181 -15.403 -23.499  0.00  0.00    +0.210 HD
ENDBRANCH   1   3
BRANCH   1   5
ATOM      5  C   UNL     1      34.561 -17.777 -25.019  0.00  0.00    +0.166 C 
BRANCH   5   6
ATOM      6  O   UNL     1      34.762 -16.668 -25.888  0.00  0.00    -0.379 OA
ATOM      7  H   UNL     1      34.925 -16.989 -26.789  0.00  0.00    +0.211 HD
ENDBRANCH   5   6
ENDBRANCH   1   5
TORSDOF 3
ENDMDL
