MODEL 1
REMARK VINA RESULT:      -8.5      0.000      0.000
REMARK  Name = 444390
REMARK  7 active torsions:
REMARK  status: ('A' for Active; 'I' for Inactive)
REMARK    1  A    between atoms: C_2  and  O_7
REMARK    2  A    between atoms: C_3  and  O_17
REMARK    3  A    between atoms: C_4  and  O_9
REMARK    4  A    between atoms: C_5  and  C_14
REMARK    5  A    between atoms: C_6  and  O_11
REMARK    6  A    between atoms: C_14  and  O_15
REMARK    7  A    between atoms: O_17  and  S_18
REMARK                            x       y       z     vdW  Elec       q    Type
REMARK                         _______ _______ _______ _____ _____    ______ ____
ROOT
ATOM      1  O   UNL     1      36.432 -25.972 -12.856  0.00  0.00    -0.317 OA
ATOM      2  C   UNL     1      37.877 -24.408 -14.808  0.00  0.00    +0.175 C 
ATOM      3  C   UNL     1      37.995 -25.938 -14.742  0.00  0.00    +0.232 C 
ATOM      4  C   UNL     1      37.394 -23.820 -13.477  0.00  0.00    +0.178 C 
ATOM      5  C   UNL     1      36.166 -24.580 -12.978  0.00  0.00    +0.245 C 
ATOM      6  C   UNL     1      36.766 -26.596 -14.099  0.00  0.00    +0.266 C 
ENDROOT
BRANCH   2   7
ATOM      7  O   UNL     1      36.956 -24.066 -15.841  0.00  0.00    -0.379 OA
ATOM      8  H   UNL     1      36.401 -24.834 -16.047  0.00  0.00    +0.211 HD
ENDBRANCH   2   7
BRANCH   4   9
ATOM      9  O   UNL     1      38.440 -23.919 -12.512  0.00  0.00    -0.379 OA
ATOM     10  H   UNL     1      38.531 -24.841 -12.226  0.00  0.00    +0.211 HD
ENDBRANCH   4   9
BRANCH   6  11
ATOM     11  O   UNL     1      35.677 -26.584 -15.018  0.00  0.00    -0.358 OA
ATOM     12  H   UNL     1      35.756 -27.338 -15.623  0.00  0.00    +0.213 HD
ENDBRANCH   6  11
BRANCH   5  14
ATOM     13  O   UNL     1      36.428 -24.262 -10.598  0.00  0.00    -0.247 OA
ATOM     14  C   UNL     1      35.760 -24.122 -11.612  0.00  0.00    +0.344 C 
BRANCH  14  15
ATOM     15  O   UNL     1      34.542 -23.530 -11.648  0.00  0.00    -0.478 OA
ATOM     16  H   UNL     1      34.411 -22.701 -11.234  0.00  0.00    +0.295 HD
ENDBRANCH  14  15
ENDBRANCH   5  14
BRANCH   3  17
ATOM     17  O   UNL     1      39.153 -26.271 -13.979  0.00  0.00    -0.195 OA
BRANCH  17  18
ATOM     18  S   UNL     1      40.632 -25.872 -14.543  0.00  0.00    +0.239 S 
ATOM     19  O   UNL     1      41.611 -26.998 -13.883  0.00  0.00    -0.022 OA
ATOM     20  O   UNL     1      40.621 -26.090 -15.978  0.00  0.00    -0.116 OA
ATOM     21  O   UNL     1      41.012 -24.579 -14.005  0.00  0.00    -0.116 OA
ENDBRANCH  17  18
ENDBRANCH   3  17
TORSDOF 7
ENDMDL
MODEL 2
REMARK VINA RESULT:      -7.8      1.893      4.910
REMARK  Name = 444390
REMARK  7 active torsions:
REMARK  status: ('A' for Active; 'I' for Inactive)
REMARK    1  A    between atoms: C_2  and  O_7
REMARK    2  A    between atoms: C_3  and  O_17
REMARK    3  A    between atoms: C_4  and  O_9
REMARK    4  A    between atoms: C_5  and  C_14
REMARK    5  A    between atoms: C_6  and  O_11
REMARK    6  A    between atoms: C_14  and  O_15
REMARK    7  A    between atoms: O_17  and  S_18
REMARK                            x       y       z     vdW  Elec       q    Type
REMARK                         _______ _______ _______ _____ _____    ______ ____
ROOT
ATOM      1  O   UNL     1      38.410 -23.945 -14.197  0.00  0.00    -0.317 OA
ATOM      2  C   UNL     1      36.443 -26.042 -14.484  0.00  0.00    +0.175 C 
ATOM      3  C   UNL     1      36.156 -24.760 -13.689  0.00  0.00    +0.232 C 
ATOM      4  C   UNL     1      37.949 -26.303 -14.612  0.00  0.00    +0.178 C 
ATOM      5  C   UNL     1      38.668 -25.036 -15.073  0.00  0.00    +0.245 C 
ATOM      6  C   UNL     1      37.028 -23.580 -14.140  0.00  0.00    +0.266 C 
ENDROOT
BRANCH   2   7
ATOM      7  O   UNL     1      35.872 -25.911 -15.783  0.00  0.00    -0.379 OA
ATOM      8  H   UNL     1      34.960 -26.240 -15.771  0.00  0.00    +0.211 HD
ENDBRANCH   2   7
BRANCH   4   9
ATOM      9  O   UNL     1      38.465 -26.709 -13.345  0.00  0.00    -0.379 OA
ATOM     10  H   UNL     1      39.183 -26.113 -13.082  0.00  0.00    +0.211 HD
ENDBRANCH   4   9
BRANCH   6  11
ATOM     11  O   UNL     1      36.552 -23.077 -15.384  0.00  0.00    -0.358 OA
ATOM     12  H   UNL     1      36.425 -23.813 -16.004  0.00  0.00    +0.213 HD
ENDBRANCH   6  11
BRANCH   5  14
ATOM     13  O   UNL     1      40.915 -24.749 -14.235  0.00  0.00    -0.247 OA
ATOM     14  C   UNL     1      40.153 -25.220 -15.067  0.00  0.00    +0.344 C 
BRANCH  14  15
ATOM     15  O   UNL     1      40.545 -25.981 -16.118  0.00  0.00    -0.478 OA
ATOM     16  H   UNL     1      41.393 -26.379 -16.118  0.00  0.00    +0.295 HD
ENDBRANCH  14  15
ENDBRANCH   5  14
BRANCH   3  17
ATOM     17  O   UNL     1      36.401 -25.019 -12.308  0.00  0.00    -0.195 OA
BRANCH  17  18
ATOM     18  S   UNL     1      35.781 -24.019 -11.178  0.00  0.00    +0.239 S 
ATOM     19  O   UNL     1      35.381 -25.021  -9.955  0.00  0.00    -0.022 OA
ATOM     20  O   UNL     1      36.862 -23.170 -10.711  0.00  0.00    -0.116 OA
ATOM     21  O   UNL     1      34.558 -23.428 -11.688  0.00  0.00    -0.116 OA
ENDBRANCH  17  18
ENDBRANCH   3  17
TORSDOF 7
ENDMDL
MODEL 3
REMARK VINA RESULT:      -7.7      2.186      4.839
REMARK  Name = 444390
REMARK  7 active torsions:
REMARK  status: ('A' for Active; 'I' for Inactive)
REMARK    1  A    between atoms: C_2  and  O_7
REMARK    2  A    between atoms: C_3  and  O_17
REMARK    3  A    between atoms: C_4  and  O_9
REMARK    4  A    between atoms: C_5  and  C_14
REMARK    5  A    between atoms: C_6  and  O_11
REMARK    6  A    between atoms: C_14  and  O_15
REMARK    7  A    between atoms: O_17  and  S_18
REMARK                            x       y       z     vdW  Elec       q    Type
REMARK                         _______ _______ _______ _____ _____    ______ ____
ROOT
ATOM      1  O   UNL     1      38.147 -26.587 -15.102  0.00  0.00    -0.317 OA
ATOM      2  C   UNL     1      37.285 -24.217 -13.693  0.00  0.00    +0.175 C 
ATOM      3  C   UNL     1      36.313 -25.067 -14.524  0.00  0.00    +0.232 C 
ATOM      4  C   UNL     1      38.739 -24.433 -14.126  0.00  0.00    +0.178 C 
ATOM      5  C   UNL     1      39.047 -25.927 -14.220  0.00  0.00    +0.245 C 
ATOM      6  C   UNL     1      36.783 -26.522 -14.673  0.00  0.00    +0.266 C 
ENDROOT
BRANCH   2   7
ATOM      7  O   UNL     1      37.141 -24.571 -12.320  0.00  0.00    -0.379 OA
ATOM      8  H   UNL     1      36.593 -25.368 -12.247  0.00  0.00    +0.211 HD
ENDBRANCH   2   7
BRANCH   4   9
ATOM      9  O   UNL     1      38.947 -23.823 -15.399  0.00  0.00    -0.379 OA
ATOM     10  H   UNL     1      39.831 -24.050 -15.726  0.00  0.00    +0.211 HD
ENDBRANCH   4   9
BRANCH   6  11
ATOM     11  O   UNL     1      36.568 -27.224 -13.452  0.00  0.00    -0.358 OA
ATOM     12  H   UNL     1      35.938 -26.732 -12.902  0.00  0.00    +0.213 HD
ENDBRANCH   6  11
BRANCH   5  14
ATOM     13  O   UNL     1      41.386 -26.520 -14.127  0.00  0.00    -0.247 OA
ATOM     14  C   UNL     1      40.414 -26.168 -14.779  0.00  0.00    +0.344 C 
BRANCH  14  15
ATOM     15  O   UNL     1      40.431 -25.941 -16.115  0.00  0.00    -0.478 OA
ATOM     16  H   UNL     1      41.204 -25.605 -16.523  0.00  0.00    +0.295 HD
ENDBRANCH  14  15
ENDBRANCH   5  14
BRANCH   3  17
ATOM     17  O   UNL     1      36.193 -24.483 -15.820  0.00  0.00    -0.195 OA
BRANCH  17  18
ATOM     18  S   UNL     1      35.496 -23.017 -15.981  0.00  0.00    +0.239 S 
ATOM     19  O   UNL     1      34.797 -23.084 -17.453  0.00  0.00    -0.022 OA
ATOM     20  O   UNL     1      34.432 -22.933 -14.996  0.00  0.00    -0.116 OA
ATOM     21  O   UNL     1      36.531 -22.001 -16.024  0.00  0.00    -0.116 OA
ENDBRANCH  17  18
ENDBRANCH   3  17
TORSDOF 7
ENDMDL
MODEL 4
REMARK VINA RESULT:      -7.5      1.393      2.561
REMARK  Name = 444390
REMARK  7 active torsions:
REMARK  status: ('A' for Active; 'I' for Inactive)
REMARK    1  A    between atoms: C_2  and  O_7
REMARK    2  A    between atoms: C_3  and  O_17
REMARK    3  A    between atoms: C_4  and  O_9
REMARK    4  A    between atoms: C_5  and  C_14
REMARK    5  A    between atoms: C_6  and  O_11
REMARK    6  A    between atoms: C_14  and  O_15
REMARK    7  A    between atoms: O_17  and  S_18
REMARK                            x       y       z     vdW  Elec       q    Type
REMARK                         _______ _______ _______ _____ _____    ______ ____
ROOT
ATOM      1  O   UNL     1      36.517 -24.450 -12.931  0.00  0.00    -0.317 OA
ATOM      2  C   UNL     1      37.008 -26.425 -14.982  0.00  0.00    +0.175 C 
ATOM      3  C   UNL     1      38.061 -26.075 -13.921  0.00  0.00    +0.232 C 
ATOM      4  C   UNL     1      35.982 -25.299 -15.153  0.00  0.00    +0.178 C 
ATOM      5  C   UNL     1      35.456 -24.851 -13.790  0.00  0.00    +0.245 C 
ATOM      6  C   UNL     1      37.438 -25.505 -12.638  0.00  0.00    +0.266 C 
ENDROOT
BRANCH   2   7
ATOM      7  O   UNL     1      36.340 -27.620 -14.586  0.00  0.00    -0.379 OA
ATOM      8  H   UNL     1      35.529 -27.394 -14.105  0.00  0.00    +0.211 HD
ENDBRANCH   2   7
BRANCH   4   9
ATOM      9  O   UNL     1      36.600 -24.194 -15.811  0.00  0.00    -0.379 OA
ATOM     10  H   UNL     1      36.462 -23.388 -15.290  0.00  0.00    +0.211 HD
ENDBRANCH   4   9
BRANCH   6  11
ATOM     11  O   UNL     1      36.833 -26.555 -11.889  0.00  0.00    -0.358 OA
ATOM     12  H   UNL     1      37.240 -26.600 -11.009  0.00  0.00    +0.213 HD
ENDBRANCH   6  11
BRANCH   5  14
ATOM     13  O   UNL     1      34.392 -23.013 -14.941  0.00  0.00    -0.247 OA
ATOM     14  C   UNL     1      34.562 -23.657 -13.916  0.00  0.00    +0.344 C 
BRANCH  14  15
ATOM     15  O   UNL     1      33.963 -23.381 -12.732  0.00  0.00    -0.478 OA
ATOM     16  H   UNL     1      33.442 -22.609 -12.639  0.00  0.00    +0.295 HD
ENDBRANCH  14  15
ENDBRANCH   5  14
BRANCH   3  17
ATOM     17  O   UNL     1      38.957 -25.111 -14.471  0.00  0.00    -0.195 OA
BRANCH  17  18
ATOM     18  S   UNL     1      40.526 -25.501 -14.691  0.00  0.00    +0.239 S 
ATOM     19  O   UNL     1      40.563 -26.105 -16.206  0.00  0.00    -0.022 OA
ATOM     20  O   UNL     1      41.283 -24.263 -14.696  0.00  0.00    -0.116 OA
ATOM     21  O   UNL     1      40.881 -26.570 -13.776  0.00  0.00    -0.116 OA
ENDBRANCH  17  18
ENDBRANCH   3  17
TORSDOF 7
ENDMDL
MODEL 5
REMARK VINA RESULT:      -7.3      1.583      3.044
REMARK  Name = 444390
REMARK  7 active torsions:
REMARK  status: ('A' for Active; 'I' for Inactive)
REMARK    1  A    between atoms: C_2  and  O_7
REMARK    2  A    between atoms: C_3  and  O_17
REMARK    3  A    between atoms: C_4  and  O_9
REMARK    4  A    between atoms: C_5  and  C_14
REMARK    5  A    between atoms: C_6  and  O_11
REMARK    6  A    between atoms: C_14  and  O_15
REMARK    7  A    between atoms: O_17  and  S_18
REMARK                            x       y       z     vdW  Elec       q    Type
REMARK                         _______ _______ _______ _____ _____    ______ ____
ROOT
ATOM      1  O   UNL     1      36.713 -23.418 -13.554  0.00  0.00    -0.317 OA
ATOM      2  C   UNL     1      37.247 -26.246 -13.296  0.00  0.00    +0.175 C 
ATOM      3  C   UNL     1      38.362 -25.195 -13.191  0.00  0.00    +0.232 C 
ATOM      4  C   UNL     1      36.029 -25.705 -14.053  0.00  0.00    +0.178 C 
ATOM      5  C   UNL     1      35.628 -24.337 -13.501  0.00  0.00    +0.245 C 
ATOM      6  C   UNL     1      37.834 -23.819 -12.760  0.00  0.00    +0.266 C 
ENDROOT
BRANCH   2   7
ATOM      7  O   UNL     1      36.858 -26.631 -11.981  0.00  0.00    -0.379 OA
ATOM      8  H   UNL     1      37.540 -27.202 -11.595  0.00  0.00    +0.211 HD
ENDBRANCH   2   7
BRANCH   4   9
ATOM      9  O   UNL     1      36.349 -25.584 -15.438  0.00  0.00    -0.379 OA
ATOM     10  H   UNL     1      37.303 -25.704 -15.561  0.00  0.00    +0.211 HD
ENDBRANCH   4   9
BRANCH   6  11
ATOM     11  O   UNL     1      37.530 -23.834 -11.369  0.00  0.00    -0.358 OA
ATOM     12  H   UNL     1      37.330 -22.932 -11.071  0.00  0.00    +0.213 HD
ENDBRANCH   6  11
BRANCH   5  14
ATOM     13  O   UNL     1      33.468 -24.258 -14.577  0.00  0.00    -0.247 OA
ATOM     14  C   UNL     1      34.533 -23.720 -14.313  0.00  0.00    +0.344 C 
BRANCH  14  15
ATOM     15  O   UNL     1      34.884 -22.477 -14.723  0.00  0.00    -0.478 OA
ATOM     16  H   UNL     1      35.611 -22.362 -15.301  0.00  0.00    +0.295 HD
ENDBRANCH  14  15
ENDBRANCH   5  14
BRANCH   3  17
ATOM     17  O   UNL     1      38.992 -25.073 -14.465  0.00  0.00    -0.195 OA
BRANCH  17  18
ATOM     18  S   UNL     1      40.549 -25.528 -14.640  0.00  0.00    +0.239 S 
ATOM     19  O   UNL     1      40.607 -26.126 -16.157  0.00  0.00    -0.022 OA
ATOM     20  O   UNL     1      41.358 -24.322 -14.616  0.00  0.00    -0.116 OA
ATOM     21  O   UNL     1      40.833 -26.614 -13.721  0.00  0.00    -0.116 OA
ENDBRANCH  17  18
ENDBRANCH   3  17
TORSDOF 7
ENDMDL
MODEL 6
REMARK VINA RESULT:      -7.0      2.675      4.335
REMARK  Name = 444390
REMARK  7 active torsions:
REMARK  status: ('A' for Active; 'I' for Inactive)
REMARK    1  A    between atoms: C_2  and  O_7
REMARK    2  A    between atoms: C_3  and  O_17
REMARK    3  A    between atoms: C_4  and  O_9
REMARK    4  A    between atoms: C_5  and  C_14
REMARK    5  A    between atoms: C_6  and  O_11
REMARK    6  A    between atoms: C_14  and  O_15
REMARK    7  A    between atoms: O_17  and  S_18
REMARK                            x       y       z     vdW  Elec       q    Type
REMARK                         _______ _______ _______ _____ _____    ______ ____
ROOT
ATOM      1  O   UNL     1      35.048 -25.009 -15.371  0.00  0.00    -0.317 OA
ATOM      2  C   UNL     1      37.293 -23.293 -14.770  0.00  0.00    +0.175 C 
ATOM      3  C   UNL     1      37.018 -24.580 -13.978  0.00  0.00    +0.232 C 
ATOM      4  C   UNL     1      36.031 -22.780 -15.473  0.00  0.00    +0.178 C 
ATOM      5  C   UNL     1      35.349 -23.918 -16.233  0.00  0.00    +0.245 C 
ATOM      6  C   UNL     1      36.210 -25.605 -14.786  0.00  0.00    +0.266 C 
ENDROOT
BRANCH   2   7
ATOM      7  O   UNL     1      38.302 -23.561 -15.741  0.00  0.00    -0.379 OA
ATOM      8  H   UNL     1      39.000 -22.891 -15.674  0.00  0.00    +0.211 HD
ENDBRANCH   2   7
BRANCH   4   9
ATOM      9  O   UNL     1      35.131 -22.252 -14.499  0.00  0.00    -0.379 OA
ATOM     10  H   UNL     1      34.973 -21.313 -14.680  0.00  0.00    +0.211 HD
ENDBRANCH   4   9
BRANCH   6  11
ATOM     11  O   UNL     1      37.048 -26.221 -15.759  0.00  0.00    -0.358 OA
ATOM     12  H   UNL     1      37.968 -26.202 -15.452  0.00  0.00    +0.213 HD
ENDBRANCH   6  11
BRANCH   5  14
ATOM     13  O   UNL     1      32.991 -23.402 -16.185  0.00  0.00    -0.247 OA
ATOM     14  C   UNL     1      34.039 -23.481 -16.808  0.00  0.00    +0.344 C 
BRANCH  14  15
ATOM     15  O   UNL     1      34.170 -23.185 -18.124  0.00  0.00    -0.478 OA
ATOM     16  H   UNL     1      33.641 -23.626 -18.758  0.00  0.00    +0.295 HD
ENDBRANCH  14  15
ENDBRANCH   5  14
BRANCH   3  17
ATOM     17  O   UNL     1      36.292 -24.240 -12.798  0.00  0.00    -0.195 OA
BRANCH  17  18
ATOM     18  S   UNL     1      37.103 -23.789 -11.456  0.00  0.00    +0.239 S 
ATOM     19  O   UNL     1      36.088 -24.189 -10.243  0.00  0.00    -0.022 OA
ATOM     20  O   UNL     1      38.271 -24.644 -11.347  0.00  0.00    -0.116 OA
ATOM     21  O   UNL     1      37.253 -22.346 -11.455  0.00  0.00    -0.116 OA
ENDBRANCH  17  18
ENDBRANCH   3  17
TORSDOF 7
ENDMDL
MODEL 7
REMARK VINA RESULT:      -6.9      3.046      5.240
REMARK  Name = 444390
REMARK  7 active torsions:
REMARK  status: ('A' for Active; 'I' for Inactive)
REMARK    1  A    between atoms: C_2  and  O_7
REMARK    2  A    between atoms: C_3  and  O_17
REMARK    3  A    between atoms: C_4  and  O_9
REMARK    4  A    between atoms: C_5  and  C_14
REMARK    5  A    between atoms: C_6  and  O_11
REMARK    6  A    between atoms: C_14  and  O_15
REMARK    7  A    between atoms: O_17  and  S_18
REMARK                            x       y       z     vdW  Elec       q    Type
REMARK                         _______ _______ _______ _____ _____    ______ ____
ROOT
ATOM      1  O   UNL     1      36.160 -22.849 -13.445  0.00  0.00    -0.317 OA
ATOM      2  C   UNL     1      36.060 -25.550 -14.467  0.00  0.00    +0.175 C 
ATOM      3  C   UNL     1      34.962 -24.522 -14.776  0.00  0.00    +0.232 C 
ATOM      4  C   UNL     1      36.845 -25.177 -13.204  0.00  0.00    +0.178 C 
ATOM      5  C   UNL     1      37.277 -23.712 -13.263  0.00  0.00    +0.245 C 
ATOM      6  C   UNL     1      35.465 -23.075 -14.675  0.00  0.00    +0.266 C 
ENDROOT
BRANCH   2   7
ATOM      7  O   UNL     1      36.950 -25.615 -15.578  0.00  0.00    -0.379 OA
ATOM      8  H   UNL     1      37.735 -26.129 -15.334  0.00  0.00    +0.211 HD
ENDBRANCH   2   7
BRANCH   4   9
ATOM      9  O   UNL     1      36.020 -25.384 -12.058  0.00  0.00    -0.379 OA
ATOM     10  H   UNL     1      35.096 -25.200 -12.286  0.00  0.00    +0.211 HD
ENDBRANCH   4   9
BRANCH   6  11
ATOM     11  O   UNL     1      36.266 -22.763 -15.811  0.00  0.00    -0.358 OA
ATOM     12  H   UNL     1      35.722 -22.314 -16.477  0.00  0.00    +0.213 HD
ENDBRANCH   6  11
BRANCH   5  14
ATOM     13  O   UNL     1      39.085 -23.488 -11.677  0.00  0.00    -0.247 OA
ATOM     14  C   UNL     1      37.919 -23.281 -11.982  0.00  0.00    +0.344 C 
BRANCH  14  15
ATOM     15  O   UNL     1      37.029 -22.628 -11.196  0.00  0.00    -0.478 OA
ATOM     16  H   UNL     1      37.233 -21.776 -10.865  0.00  0.00    +0.295 HD
ENDBRANCH  14  15
ENDBRANCH   5  14
BRANCH   3  17
ATOM     17  O   UNL     1      33.893 -24.708 -13.849  0.00  0.00    -0.195 OA
BRANCH  17  18
ATOM     18  S   UNL     1      32.402 -24.158 -14.219  0.00  0.00    +0.239 S 
ATOM     19  O   UNL     1      31.466 -25.490 -14.120  0.00  0.00    -0.022 OA
ATOM     20  O   UNL     1      31.996 -23.259 -13.153  0.00  0.00    -0.116 OA
ATOM     21  O   UNL     1      32.391 -23.706 -15.598  0.00  0.00    -0.116 OA
ENDBRANCH  17  18
ENDBRANCH   3  17
TORSDOF 7
ENDMDL
MODEL 8
REMARK VINA RESULT:      -6.8      3.288      5.532
REMARK  Name = 444390
REMARK  7 active torsions:
REMARK  status: ('A' for Active; 'I' for Inactive)
REMARK    1  A    between atoms: C_2  and  O_7
REMARK    2  A    between atoms: C_3  and  O_17
REMARK    3  A    between atoms: C_4  and  O_9
REMARK    4  A    between atoms: C_5  and  C_14
REMARK    5  A    between atoms: C_6  and  O_11
REMARK    6  A    between atoms: C_14  and  O_15
REMARK    7  A    between atoms: O_17  and  S_18
REMARK                            x       y       z     vdW  Elec       q    Type
REMARK                         _______ _______ _______ _____ _____    ______ ____
ROOT
ATOM      1  O   UNL     1      35.450 -25.685 -15.470  0.00  0.00    -0.317 OA
ATOM      2  C   UNL     1      35.849 -22.949 -14.634  0.00  0.00    +0.175 C 
ATOM      3  C   UNL     1      34.624 -23.378 -15.454  0.00  0.00    +0.232 C 
ATOM      4  C   UNL     1      37.009 -23.939 -14.789  0.00  0.00    +0.178 C 
ATOM      5  C   UNL     1      36.514 -25.370 -14.581  0.00  0.00    +0.245 C 
ATOM      6  C   UNL     1      34.292 -24.867 -15.280  0.00  0.00    +0.266 C 
ENDROOT
BRANCH   2   7
ATOM      7  O   UNL     1      35.474 -22.868 -13.261  0.00  0.00    -0.379 OA
ATOM      8  H   UNL     1      34.644 -23.351 -13.123  0.00  0.00    +0.211 HD
ENDBRANCH   2   7
BRANCH   4   9
ATOM      9  O   UNL     1      37.564 -23.813 -16.098  0.00  0.00    -0.379 OA
ATOM     10  H   UNL     1      38.449 -24.209 -16.113  0.00  0.00    +0.211 HD
ENDBRANCH   4   9
BRANCH   6  11
ATOM     11  O   UNL     1      33.685 -25.080 -14.008  0.00  0.00    -0.358 OA
ATOM     12  H   UNL     1      32.849 -25.558 -14.125  0.00  0.00    +0.213 HD
ENDBRANCH   6  11
BRANCH   5  14
ATOM     13  O   UNL     1      38.554 -26.588 -14.145  0.00  0.00    -0.247 OA
ATOM     14  C   UNL     1      37.593 -26.367 -14.868  0.00  0.00    +0.344 C 
BRANCH  14  15
ATOM     15  O   UNL     1      37.362 -26.995 -16.046  0.00  0.00    -0.478 OA
ATOM     16  H   UNL     1      37.081 -26.504 -16.792  0.00  0.00    +0.295 HD
ENDBRANCH  14  15
ENDBRANCH   5  14
BRANCH   3  17
ATOM     17  O   UNL     1      34.886 -23.118 -16.832  0.00  0.00    -0.195 OA
BRANCH  17  18
ATOM     18  S   UNL     1      33.644 -23.034 -17.887  0.00  0.00    +0.239 S 
ATOM     19  O   UNL     1      33.999 -21.726 -18.794  0.00  0.00    -0.022 OA
ATOM     20  O   UNL     1      33.729 -24.199 -18.749  0.00  0.00    -0.116 OA
ATOM     21  O   UNL     1      32.421 -22.753 -17.158  0.00  0.00    -0.116 OA
ENDBRANCH  17  18
ENDBRANCH   3  17
TORSDOF 7
ENDMDL
MODEL 9
REMARK VINA RESULT:      -6.6      2.643      4.762
REMARK  Name = 444390
REMARK  7 active torsions:
REMARK  status: ('A' for Active; 'I' for Inactive)
REMARK    1  A    between atoms: C_2  and  O_7
REMARK    2  A    between atoms: C_3  and  O_17
REMARK    3  A    between atoms: C_4  and  O_9
REMARK    4  A    between atoms: C_5  and  C_14
REMARK    5  A    between atoms: C_6  and  O_11
REMARK    6  A    between atoms: C_14  and  O_15
REMARK    7  A    between atoms: O_17  and  S_18
REMARK                            x       y       z     vdW  Elec       q    Type
REMARK                         _______ _______ _______ _____ _____    ______ ____
ROOT
ATOM      1  O   UNL     1      35.455 -22.580 -15.105  0.00  0.00    -0.317 OA
ATOM      2  C   UNL     1      36.107 -25.223 -14.135  0.00  0.00    +0.175 C 
ATOM      3  C   UNL     1      34.957 -24.398 -13.538  0.00  0.00    +0.232 C 
ATOM      4  C   UNL     1      37.131 -24.333 -14.849  0.00  0.00    +0.178 C 
ATOM      5  C   UNL     1      36.422 -23.364 -15.794  0.00  0.00    +0.245 C 
ATOM      6  C   UNL     1      34.404 -23.359 -14.525  0.00  0.00    +0.266 C 
ENDROOT
BRANCH   2   7
ATOM      7  O   UNL     1      35.563 -26.159 -15.063  0.00  0.00    -0.379 OA
ATOM      8  H   UNL     1      34.617 -25.983 -15.183  0.00  0.00    +0.211 HD
ENDBRANCH   2   7
BRANCH   4   9
ATOM      9  O   UNL     1      37.871 -23.594 -13.877  0.00  0.00    -0.379 OA
ATOM     10  H   UNL     1      38.442 -22.952 -14.325  0.00  0.00    +0.211 HD
ENDBRANCH   4   9
BRANCH   6  11
ATOM     11  O   UNL     1      33.608 -24.008 -15.511  0.00  0.00    -0.358 OA
ATOM     12  H   UNL     1      32.964 -24.590 -15.076  0.00  0.00    +0.213 HD
ENDBRANCH   6  11
BRANCH   5  14
ATOM     13  O   UNL     1      37.080 -21.292 -16.847  0.00  0.00    -0.247 OA
ATOM     14  C   UNL     1      37.383 -22.387 -16.395  0.00  0.00    +0.344 C 
BRANCH  14  15
ATOM     15  O   UNL     1      38.644 -22.882 -16.374  0.00  0.00    -0.478 OA
ATOM     16  H   UNL     1      39.287 -22.554 -16.971  0.00  0.00    +0.295 HD
ENDBRANCH  14  15
ENDBRANCH   5  14
BRANCH   3  17
ATOM     17  O   UNL     1      35.438 -23.726 -12.376  0.00  0.00    -0.195 OA
BRANCH  17  18
ATOM     18  S   UNL     1      36.140 -24.585 -11.180  0.00  0.00    +0.239 S 
ATOM     19  O   UNL     1      37.583 -23.853 -10.977  0.00  0.00    -0.022 OA
ATOM     20  O   UNL     1      35.365 -24.364  -9.973  0.00  0.00    -0.116 OA
ATOM     21  O   UNL     1      36.388 -25.936 -11.650  0.00  0.00    -0.116 OA
ENDBRANCH  17  18
ENDBRANCH   3  17
TORSDOF 7
ENDMDL
