MODEL 1
REMARK VINA RESULT:      -8.4      0.000      0.000
REMARK  Name = 4722579
REMARK  3 active torsions:
REMARK  status: ('A' for Active; 'I' for Inactive)
REMARK    1  A    between atoms: N_1  and  C_14
REMARK    2  A    between atoms: C_8  and  C_16
REMARK    3  A    between atoms: C_16  and  N_17
REMARK                            x       y       z     vdW  Elec       q    Type
REMARK                         _______ _______ _______ _____ _____    ______ ____
ROOT
ATOM      1  N   UNL     1      33.888 -15.325 -23.998  0.00  0.00    -0.327 N 
ATOM      2  C   UNL     1      34.304 -16.540 -23.510  0.00  0.00    +0.060 A 
ATOM      3  C   UNL     1      33.995 -16.567 -22.150  0.00  0.00    +0.017 A 
ATOM      4  C   UNL     1      33.320 -14.566 -23.002  0.00  0.00    +0.060 A 
ATOM      5  C   UNL     1      33.373 -15.319 -21.829  0.00  0.00    +0.017 A 
ATOM      6  C   UNL     1      34.323 -17.720 -21.407  0.00  0.00    -0.005 C 
ATOM      7  C   UNL     1      34.926 -17.609 -24.166  0.00  0.00    +0.017 C 
ATOM      8  C   UNL     1      34.945 -18.797 -22.049  0.00  0.00    -0.044 C 
ATOM      9  C   UNL     1      32.768 -13.281 -23.052  0.00  0.00    +0.017 C 
ATOM     10  C   UNL     1      32.848 -14.760 -20.644  0.00  0.00    +0.001 C 
ATOM     11  C   UNL     1      35.241 -18.740 -23.409  0.00  0.00    -0.005 C 
ATOM     12  C   UNL     1      32.256 -12.748 -21.865  0.00  0.00    +0.001 C 
ATOM     13  C   UNL     1      32.295 -13.476 -20.678  0.00  0.00    +0.000 C 
ENDROOT
BRANCH   1  14
ATOM     14  C   UNL     1      34.027 -14.900 -25.377  0.00  0.00    +0.106 C 
ATOM     15  C   UNL     1      32.849 -15.332 -26.234  0.00  0.00    +0.026 C 
ENDBRANCH   1  14
BRANCH   8  16
ATOM     16  C   UNL     1      35.293 -20.020 -21.266  0.00  0.00    -0.054 C 
BRANCH  16  17
ATOM     17  N   UNL     1      36.238 -19.737 -20.186  0.00  0.00    +0.385 N 
ATOM     18  C   UNL     1      36.546 -20.948 -19.441  0.00  0.00    -0.105 C 
ATOM     19  H   UNL     1      35.829 -19.050 -19.553  0.00  0.00    -0.084 HD
ATOM     20  H   UNL     1      37.102 -19.374 -20.591  0.00  0.00    -0.084 HD
ENDBRANCH  16  17
ENDBRANCH   8  16
TORSDOF 3
ENDMDL
MODEL 2
REMARK VINA RESULT:      -8.2      1.197      1.273
REMARK  Name = 4722579
REMARK  3 active torsions:
REMARK  status: ('A' for Active; 'I' for Inactive)
REMARK    1  A    between atoms: N_1  and  C_14
REMARK    2  A    between atoms: C_8  and  C_16
REMARK    3  A    between atoms: C_16  and  N_17
REMARK                            x       y       z     vdW  Elec       q    Type
REMARK                         _______ _______ _______ _____ _____    ______ ____
ROOT
ATOM      1  N   UNL     1      33.590 -14.374 -23.866  0.00  0.00    -0.327 N 
ATOM      2  C   UNL     1      34.197 -15.503 -23.371  0.00  0.00    +0.060 A 
ATOM      3  C   UNL     1      33.960 -15.530 -21.996  0.00  0.00    +0.017 A 
ATOM      4  C   UNL     1      32.968 -13.671 -22.862  0.00  0.00    +0.060 A 
ATOM      5  C   UNL     1      33.183 -14.371 -21.675  0.00  0.00    +0.017 A 
ATOM      6  C   UNL     1      34.483 -16.601 -21.242  0.00  0.00    -0.005 C 
ATOM      7  C   UNL     1      34.932 -16.494 -24.031  0.00  0.00    +0.017 C 
ATOM      8  C   UNL     1      35.219 -17.600 -21.889  0.00  0.00    -0.044 C 
ATOM      9  C   UNL     1      32.238 -12.478 -22.915  0.00  0.00    +0.017 C 
ATOM     10  C   UNL     1      32.642 -13.854 -20.479  0.00  0.00    +0.001 C 
ATOM     11  C   UNL     1      35.439 -17.545 -23.263  0.00  0.00    -0.005 C 
ATOM     12  C   UNL     1      31.713 -11.985 -21.717  0.00  0.00    +0.001 C 
ATOM     13  C   UNL     1      31.911 -12.661 -20.516  0.00  0.00    +0.000 C 
ENDROOT
BRANCH   1  14
ATOM     14  C   UNL     1      33.602 -13.978 -25.261  0.00  0.00    +0.106 C 
ATOM     15  C   UNL     1      32.725 -14.873 -26.121  0.00  0.00    +0.026 C 
ENDBRANCH   1  14
BRANCH   8  16
ATOM     16  C   UNL     1      35.774 -18.736 -21.095  0.00  0.00    -0.054 C 
BRANCH  16  17
ATOM     17  N   UNL     1      35.097 -20.000 -21.384  0.00  0.00    +0.385 N 
ATOM     18  C   UNL     1      33.902 -20.143 -20.566  0.00  0.00    -0.105 C 
ATOM     19  H   UNL     1      35.732 -20.773 -21.187  0.00  0.00    -0.084 HD
ATOM     20  H   UNL     1      34.823 -20.008 -22.367  0.00  0.00    -0.084 HD
ENDBRANCH  16  17
ENDBRANCH   8  16
TORSDOF 3
ENDMDL
MODEL 3
REMARK VINA RESULT:      -8.1      7.401     10.646
REMARK  Name = 4722579
REMARK  3 active torsions:
REMARK  status: ('A' for Active; 'I' for Inactive)
REMARK    1  A    between atoms: N_1  and  C_14
REMARK    2  A    between atoms: C_8  and  C_16
REMARK    3  A    between atoms: C_16  and  N_17
REMARK                            x       y       z     vdW  Elec       q    Type
REMARK                         _______ _______ _______ _____ _____    ______ ____
ROOT
ATOM      1  N   UNL     1      34.652 -23.290 -15.472  0.00  0.00    -0.327 N 
ATOM      2  C   UNL     1      33.339 -23.625 -15.243  0.00  0.00    +0.060 A 
ATOM      3  C   UNL     1      32.627 -23.323 -16.404  0.00  0.00    +0.017 A 
ATOM      4  C   UNL     1      34.814 -22.782 -16.739  0.00  0.00    +0.060 A 
ATOM      5  C   UNL     1      33.560 -22.790 -17.350  0.00  0.00    +0.017 A 
ATOM      6  C   UNL     1      31.240 -23.578 -16.430  0.00  0.00    -0.005 C 
ATOM      7  C   UNL     1      32.734 -24.170 -14.105  0.00  0.00    +0.017 C 
ATOM      8  C   UNL     1      30.621 -24.122 -15.300  0.00  0.00    -0.044 C 
ATOM      9  C   UNL     1      35.968 -22.322 -17.384  0.00  0.00    +0.017 C 
ATOM     10  C   UNL     1      33.451 -22.312 -18.673  0.00  0.00    +0.001 C 
ATOM     11  C   UNL     1      31.359 -24.413 -14.155  0.00  0.00    -0.005 C 
ATOM     12  C   UNL     1      35.834 -21.853 -18.694  0.00  0.00    +0.001 C 
ATOM     13  C   UNL     1      34.595 -21.847 -19.331  0.00  0.00    +0.000 C 
ENDROOT
BRANCH   1  14
ATOM     14  C   UNL     1      35.723 -23.450 -14.507  0.00  0.00    +0.106 C 
ATOM     15  C   UNL     1      36.403 -24.804 -14.623  0.00  0.00    +0.026 C 
ENDBRANCH   1  14
BRANCH   8  16
ATOM     16  C   UNL     1      29.153 -24.394 -15.324  0.00  0.00    -0.054 C 
BRANCH  16  17
ATOM     17  N   UNL     1      28.479 -23.710 -16.428  0.00  0.00    +0.385 N 
ATOM     18  C   UNL     1      27.682 -22.598 -15.935  0.00  0.00    -0.105 C 
ATOM     19  H   UNL     1      27.870 -24.371 -16.909  0.00  0.00    -0.084 HD
ATOM     20  H   UNL     1      29.185 -23.348 -17.070  0.00  0.00    -0.084 HD
ENDBRANCH  16  17
ENDBRANCH   8  16
TORSDOF 3
ENDMDL
MODEL 4
REMARK VINA RESULT:      -8.1      4.903      9.946
REMARK  Name = 4722579
REMARK  3 active torsions:
REMARK  status: ('A' for Active; 'I' for Inactive)
REMARK    1  A    between atoms: N_1  and  C_14
REMARK    2  A    between atoms: C_8  and  C_16
REMARK    3  A    between atoms: C_16  and  N_17
REMARK                            x       y       z     vdW  Elec       q    Type
REMARK                         _______ _______ _______ _____ _____    ______ ____
ROOT
ATOM      1  N   UNL     1      33.328 -23.492 -15.931  0.00  0.00    -0.327 N 
ATOM      2  C   UNL     1      33.942 -22.942 -17.031  0.00  0.00    +0.060 A 
ATOM      3  C   UNL     1      35.269 -22.692 -16.681  0.00  0.00    +0.017 A 
ATOM      4  C   UNL     1      34.211 -23.605 -14.883  0.00  0.00    +0.060 A 
ATOM      5  C   UNL     1      35.438 -23.111 -15.323  0.00  0.00    +0.017 A 
ATOM      6  C   UNL     1      36.125 -22.122 -17.646  0.00  0.00    -0.005 C 
ATOM      7  C   UNL     1      33.426 -22.652 -18.299  0.00  0.00    +0.017 C 
ATOM      8  C   UNL     1      35.623 -21.826 -18.919  0.00  0.00    -0.044 C 
ATOM      9  C   UNL     1      34.015 -24.106 -13.590  0.00  0.00    +0.017 C 
ATOM     10  C   UNL     1      36.528 -23.115 -14.426  0.00  0.00    +0.001 C 
ATOM     11  C   UNL     1      34.293 -22.088 -19.238  0.00  0.00    -0.005 C 
ATOM     12  C   UNL     1      35.109 -24.098 -12.720  0.00  0.00    +0.001 C 
ATOM     13  C   UNL     1      36.348 -23.611 -13.130  0.00  0.00    +0.000 C 
ENDROOT
BRANCH   1  14
ATOM     14  C   UNL     1      31.937 -23.898 -15.882  0.00  0.00    +0.106 C 
ATOM     15  C   UNL     1      31.046 -22.827 -15.275  0.00  0.00    +0.026 C 
ENDBRANCH   1  14
BRANCH   8  16
ATOM     16  C   UNL     1      36.526 -21.223 -19.944  0.00  0.00    -0.054 C 
BRANCH  16  17
ATOM     17  N   UNL     1      36.546 -19.762 -19.876  0.00  0.00    +0.385 N 
ATOM     18  C   UNL     1      35.948 -19.183 -21.069  0.00  0.00    -0.105 C 
ATOM     19  H   UNL     1      37.512 -19.443 -19.798  0.00  0.00    -0.084 HD
ATOM     20  H   UNL     1      36.008 -19.463 -19.063  0.00  0.00    -0.084 HD
ENDBRANCH  16  17
ENDBRANCH   8  16
TORSDOF 3
ENDMDL
MODEL 5
REMARK VINA RESULT:      -8.1      5.087     10.183
REMARK  Name = 4722579
REMARK  3 active torsions:
REMARK  status: ('A' for Active; 'I' for Inactive)
REMARK    1  A    between atoms: N_1  and  C_14
REMARK    2  A    between atoms: C_8  and  C_16
REMARK    3  A    between atoms: C_16  and  N_17
REMARK                            x       y       z     vdW  Elec       q    Type
REMARK                         _______ _______ _______ _____ _____    ______ ____
ROOT
ATOM      1  N   UNL     1      35.078 -23.367 -14.859  0.00  0.00    -0.327 N 
ATOM      2  C   UNL     1      35.473 -22.837 -16.065  0.00  0.00    +0.060 A 
ATOM      3  C   UNL     1      34.347 -22.802 -16.888  0.00  0.00    +0.017 A 
ATOM      4  C   UNL     1      33.739 -23.674 -14.874  0.00  0.00    +0.060 A 
ATOM      5  C   UNL     1      33.251 -23.331 -16.135  0.00  0.00    +0.017 A 
ATOM      6  C   UNL     1      34.485 -22.294 -18.197  0.00  0.00    -0.005 C 
ATOM      7  C   UNL     1      36.731 -22.391 -16.484  0.00  0.00    +0.017 C 
ATOM      8  C   UNL     1      35.737 -21.844 -18.630  0.00  0.00    -0.044 C 
ATOM      9  C   UNL     1      32.929 -24.224 -13.873  0.00  0.00    +0.017 C 
ATOM     10  C   UNL     1      31.884 -23.548 -16.412  0.00  0.00    +0.001 C 
ATOM     11  C   UNL     1      36.842 -21.892 -17.785  0.00  0.00    -0.005 C 
ATOM     12  C   UNL     1      31.580 -24.431 -14.172  0.00  0.00    +0.001 C 
ATOM     13  C   UNL     1      31.063 -24.099 -15.423  0.00  0.00    +0.000 C 
ENDROOT
BRANCH   1  14
ATOM     14  C   UNL     1      35.957 -23.573 -13.724  0.00  0.00    +0.106 C 
ATOM     15  C   UNL     1      36.592 -24.953 -13.732  0.00  0.00    +0.026 C 
ENDBRANCH   1  14
BRANCH   8  16
ATOM     16  C   UNL     1      35.886 -21.305 -20.015  0.00  0.00    -0.054 C 
BRANCH  16  17
ATOM     17  N   UNL     1      36.551 -20.002 -20.035  0.00  0.00    +0.385 N 
ATOM     18  C   UNL     1      35.956 -19.136 -21.042  0.00  0.00    -0.105 C 
ATOM     19  H   UNL     1      37.540 -20.133 -20.249  0.00  0.00    -0.084 HD
ATOM     20  H   UNL     1      36.443 -19.563 -19.121  0.00  0.00    -0.084 HD
ENDBRANCH  16  17
ENDBRANCH   8  16
TORSDOF 3
ENDMDL
MODEL 6
REMARK VINA RESULT:      -7.9      1.787      5.642
REMARK  Name = 4722579
REMARK  3 active torsions:
REMARK  status: ('A' for Active; 'I' for Inactive)
REMARK    1  A    between atoms: N_1  and  C_14
REMARK    2  A    between atoms: C_8  and  C_16
REMARK    3  A    between atoms: C_16  and  N_17
REMARK                            x       y       z     vdW  Elec       q    Type
REMARK                         _______ _______ _______ _____ _____    ______ ____
ROOT
ATOM      1  N   UNL     1      34.023 -15.542 -24.084  0.00  0.00    -0.327 N 
ATOM      2  C   UNL     1      33.411 -14.611 -23.280  0.00  0.00    +0.060 A 
ATOM      3  C   UNL     1      33.510 -15.070 -21.967  0.00  0.00    +0.017 A 
ATOM      4  C   UNL     1      34.514 -16.586 -23.337  0.00  0.00    +0.060 A 
ATOM      5  C   UNL     1      34.207 -16.319 -22.003  0.00  0.00    +0.017 A 
ATOM      6  C   UNL     1      32.953 -14.286 -20.934  0.00  0.00    -0.005 C 
ATOM      7  C   UNL     1      32.783 -13.406 -23.615  0.00  0.00    +0.017 C 
ATOM      8  C   UNL     1      32.322 -13.079 -21.254  0.00  0.00    -0.044 C 
ATOM      9  C   UNL     1      35.202 -17.737 -23.740  0.00  0.00    +0.017 C 
ATOM     10  C   UNL     1      34.607 -17.249 -21.020  0.00  0.00    +0.001 C 
ATOM     11  C   UNL     1      32.239 -12.647 -22.575  0.00  0.00    -0.005 C 
ATOM     12  C   UNL     1      35.587 -18.643 -22.748  0.00  0.00    +0.001 C 
ATOM     13  C   UNL     1      35.294 -18.405 -21.407  0.00  0.00    +0.000 C 
ENDROOT
BRANCH   1  14
ATOM     14  C   UNL     1      34.137 -15.437 -25.526  0.00  0.00    +0.106 C 
ATOM     15  C   UNL     1      32.801 -15.631 -26.224  0.00  0.00    +0.026 C 
ENDBRANCH   1  14
BRANCH   8  16
ATOM     16  C   UNL     1      31.732 -12.246 -20.164  0.00  0.00    -0.054 C 
BRANCH  16  17
ATOM     17  N   UNL     1      31.527 -10.857 -20.575  0.00  0.00    +0.385 N 
ATOM     18  C   UNL     1      31.881  -9.944 -19.500  0.00  0.00    -0.105 C 
ATOM     19  H   UNL     1      30.546 -10.722 -20.819  0.00  0.00    -0.084 HD
ATOM     20  H   UNL     1      32.122 -10.661 -21.380  0.00  0.00    -0.084 HD
ENDBRANCH  16  17
ENDBRANCH   8  16
TORSDOF 3
ENDMDL
MODEL 7
REMARK VINA RESULT:      -7.8      2.455      4.829
REMARK  Name = 4722579
REMARK  3 active torsions:
REMARK  status: ('A' for Active; 'I' for Inactive)
REMARK    1  A    between atoms: N_1  and  C_14
REMARK    2  A    between atoms: C_8  and  C_16
REMARK    3  A    between atoms: C_16  and  N_17
REMARK                            x       y       z     vdW  Elec       q    Type
REMARK                         _______ _______ _______ _____ _____    ______ ____
ROOT
ATOM      1  N   UNL     1      31.980 -12.113 -21.755  0.00  0.00    -0.327 N 
ATOM      2  C   UNL     1      32.560 -13.353 -21.879  0.00  0.00    +0.060 A 
ATOM      3  C   UNL     1      33.490 -13.272 -22.916  0.00  0.00    +0.017 A 
ATOM      4  C   UNL     1      32.502 -11.234 -22.675  0.00  0.00    +0.060 A 
ATOM      5  C   UNL     1      33.452 -11.933 -23.419  0.00  0.00    +0.017 A 
ATOM      6  C   UNL     1      34.231 -14.425 -23.248  0.00  0.00    -0.005 C 
ATOM      7  C   UNL     1      32.334 -14.529 -21.155  0.00  0.00    +0.017 C 
ATOM      8  C   UNL     1      34.016 -15.609 -22.533  0.00  0.00    -0.044 C 
ATOM      9  C   UNL     1      32.205  -9.885 -22.901  0.00  0.00    +0.017 C 
ATOM     10  C   UNL     1      34.143 -11.249 -24.443  0.00  0.00    +0.001 C 
ATOM     11  C   UNL     1      33.081 -15.657 -21.503  0.00  0.00    -0.005 C 
ATOM     12  C   UNL     1      32.902  -9.230 -23.921  0.00  0.00    +0.001 C 
ATOM     13  C   UNL     1      33.857  -9.901 -24.681  0.00  0.00    +0.000 C 
ENDROOT
BRANCH   1  14
ATOM     14  C   UNL     1      30.956 -11.776 -20.785  0.00  0.00    +0.106 C 
ATOM     15  C   UNL     1      31.544 -11.232 -19.494  0.00  0.00    +0.026 C 
ENDBRANCH   1  14
BRANCH   8  16
ATOM     16  C   UNL     1      34.800 -16.831 -22.881  0.00  0.00    -0.054 C 
BRANCH  16  17
ATOM     17  N   UNL     1      35.329 -16.782 -24.244  0.00  0.00    +0.385 N 
ATOM     18  C   UNL     1      34.579 -17.668 -25.120  0.00  0.00    -0.105 C 
ATOM     19  H   UNL     1      36.307 -17.071 -24.234  0.00  0.00    -0.084 HD
ATOM     20  H   UNL     1      35.246 -15.828 -24.595  0.00  0.00    -0.084 HD
ENDBRANCH  16  17
ENDBRANCH   8  16
TORSDOF 3
ENDMDL
MODEL 8
REMARK VINA RESULT:      -7.8      7.379     10.397
REMARK  Name = 4722579
REMARK  3 active torsions:
REMARK  status: ('A' for Active; 'I' for Inactive)
REMARK    1  A    between atoms: N_1  and  C_14
REMARK    2  A    between atoms: C_8  and  C_16
REMARK    3  A    between atoms: C_16  and  N_17
REMARK                            x       y       z     vdW  Elec       q    Type
REMARK                         _______ _______ _______ _____ _____    ______ ____
ROOT
ATOM      1  N   UNL     1      33.419 -23.395 -16.327  0.00  0.00    -0.327 N 
ATOM      2  C   UNL     1      34.119 -23.557 -15.155  0.00  0.00    +0.060 A 
ATOM      3  C   UNL     1      35.403 -23.056 -15.369  0.00  0.00    +0.017 A 
ATOM      4  C   UNL     1      34.205 -22.808 -17.290  0.00  0.00    +0.060 A 
ATOM      5  C   UNL     1      35.458 -22.583 -16.719  0.00  0.00    +0.017 A 
ATOM      6  C   UNL     1      36.331 -23.104 -14.308  0.00  0.00    -0.005 C 
ATOM      7  C   UNL     1      33.714 -24.103 -13.932  0.00  0.00    +0.017 C 
ATOM      8  C   UNL     1      35.941 -23.647 -13.079  0.00  0.00    -0.044 C 
ATOM      9  C   UNL     1      33.903 -22.462 -18.612  0.00  0.00    +0.017 C 
ATOM     10  C   UNL     1      36.461 -21.982 -17.509  0.00  0.00    +0.001 C 
ATOM     11  C   UNL     1      34.651 -24.139 -12.896  0.00  0.00    -0.005 C 
ATOM     12  C   UNL     1      34.914 -21.869 -19.374  0.00  0.00    +0.001 C 
ATOM     13  C   UNL     1      36.175 -21.632 -18.832  0.00  0.00    +0.000 C 
ENDROOT
BRANCH   1  14
ATOM     14  C   UNL     1      32.038 -23.790 -16.521  0.00  0.00    +0.106 C 
ATOM     15  C   UNL     1      31.065 -22.810 -15.887  0.00  0.00    +0.026 C 
ENDBRANCH   1  14
BRANCH   8  16
ATOM     16  C   UNL     1      36.920 -23.699 -11.953  0.00  0.00    -0.054 C 
BRANCH  16  17
ATOM     17  N   UNL     1      38.196 -24.291 -12.353  0.00  0.00    +0.385 N 
ATOM     18  C   UNL     1      38.064 -25.729 -12.530  0.00  0.00    -0.105 C 
ATOM     19  H   UNL     1      38.892 -24.106 -11.631  0.00  0.00    -0.084 HD
ATOM     20  H   UNL     1      38.487 -23.877 -13.239  0.00  0.00    -0.084 HD
ENDBRANCH  16  17
ENDBRANCH   8  16
TORSDOF 3
ENDMDL
MODEL 9
REMARK VINA RESULT:      -7.8      3.405      6.232
REMARK  Name = 4722579
REMARK  3 active torsions:
REMARK  status: ('A' for Active; 'I' for Inactive)
REMARK    1  A    between atoms: N_1  and  C_14
REMARK    2  A    between atoms: C_8  and  C_16
REMARK    3  A    between atoms: C_16  and  N_17
REMARK                            x       y       z     vdW  Elec       q    Type
REMARK                         _______ _______ _______ _____ _____    ______ ____
ROOT
ATOM      1  N   UNL     1      32.208 -10.317 -22.043  0.00  0.00    -0.327 N 
ATOM      2  C   UNL     1      32.456 -11.534 -22.632  0.00  0.00    +0.060 A 
ATOM      3  C   UNL     1      33.383 -11.317 -23.651  0.00  0.00    +0.017 A 
ATOM      4  C   UNL     1      32.941  -9.322 -22.645  0.00  0.00    +0.060 A 
ATOM      5  C   UNL     1      33.690  -9.919 -23.660  0.00  0.00    +0.017 A 
ATOM      6  C   UNL     1      33.811 -12.421 -24.419  0.00  0.00    -0.005 C 
ATOM      7  C   UNL     1      31.933 -12.798 -22.339  0.00  0.00    +0.017 C 
ATOM      8  C   UNL     1      33.298 -13.692 -24.138  0.00  0.00    -0.044 C 
ATOM      9  C   UNL     1      32.998  -7.951 -22.369  0.00  0.00    +0.017 C 
ATOM     10  C   UNL     1      34.539  -9.106 -24.440  0.00  0.00    +0.001 C 
ATOM     11  C   UNL     1      32.373 -13.876 -23.113  0.00  0.00    -0.005 C 
ATOM     12  C   UNL     1      33.846  -7.166 -23.156  0.00  0.00    +0.001 C 
ATOM     13  C   UNL     1      34.606  -7.733 -24.177  0.00  0.00    +0.000 C 
ENDROOT
BRANCH   1  14
ATOM     14  C   UNL     1      31.295 -10.109 -20.935  0.00  0.00    +0.106 C 
ATOM     15  C   UNL     1      31.972 -10.302 -19.589  0.00  0.00    +0.026 C 
ENDBRANCH   1  14
BRANCH   8  16
ATOM     16  C   UNL     1      33.749 -14.863 -24.948  0.00  0.00    -0.054 C 
BRANCH  16  17
ATOM     17  N   UNL     1      34.161 -15.991 -24.112  0.00  0.00    +0.385 N 
ATOM     18  C   UNL     1      34.557 -17.123 -24.935  0.00  0.00    -0.105 C 
ATOM     19  H   UNL     1      33.383 -16.268 -23.515  0.00  0.00    -0.084 HD
ATOM     20  H   UNL     1      34.959 -15.704 -23.544  0.00  0.00    -0.084 HD
ENDBRANCH  16  17
ENDBRANCH   8  16
TORSDOF 3
ENDMDL
