MODEL 1
REMARK VINA RESULT:      -9.5      0.000      0.000
REMARK  Name = 11256587
REMARK  8 active torsions:
REMARK  status: ('A' for Active; 'I' for Inactive)
REMARK    1  A    between atoms: N_1  and  C_4
REMARK    2  A    between atoms: N_1  and  C_13
REMARK    3  A    between atoms: N_1  and  C_21
REMARK    4  A    between atoms: C_13  and  C_14
REMARK    5  A    between atoms: C_14  and  C_15
REMARK    6  A    between atoms: C_15  and  C_16
REMARK    7  A    between atoms: C_16  and  N_17
REMARK    8  A    between atoms: C_21  and  C_24
REMARK                            x       y       z     vdW  Elec       q    Type
REMARK                         _______ _______ _______ _____ _____    ______ ____
ROOT
ATOM      1  N   UNL     1      33.425 -13.447 -23.236  0.00  0.00    +0.394 N 
ATOM      2  H   UNL     1      34.079 -13.448 -22.454  0.00  0.00    -0.079 HD
ENDROOT
BRANCH   1   4
ATOM      3  N   UNL     1      34.149 -15.613 -21.567  0.00  0.00    -0.250 NA
ATOM      4  C   UNL     1      33.249 -14.825 -23.702  0.00  0.00    -0.016 C 
ATOM      5  C   UNL     1      33.522 -14.886 -25.213  0.00  0.00    -0.015 C 
ATOM      6  C   UNL     1      33.512 -16.332 -25.696  0.00  0.00    +0.003 C 
ATOM      7  C   UNL     1      34.089 -15.809 -22.912  0.00  0.00    +0.036 C 
ATOM      8  C   UNL     1      34.633 -17.119 -25.025  0.00  0.00    +0.027 C 
ATOM      9  C   UNL     1      34.697 -16.903 -23.538  0.00  0.00    -0.011 C 
ATOM     10  C   UNL     1      35.428 -17.790 -22.741  0.00  0.00    -0.002 C 
ATOM     11  C   UNL     1      35.513 -17.592 -21.369  0.00  0.00    +0.020 C 
ATOM     12  C   UNL     1      34.859 -16.499 -20.835  0.00  0.00    +0.098 C 
ENDBRANCH   1   4
BRANCH   1  13
ATOM     13  C   UNL     1      32.151 -12.902 -22.772  0.00  0.00    -0.077 C 
BRANCH  13  14
ATOM     14  C   UNL     1      32.153 -12.770 -21.248  0.00  0.00    -0.025 C 
BRANCH  14  15
ATOM     15  C   UNL     1      31.324 -11.563 -20.800  0.00  0.00    -0.026 C 
BRANCH  15  16
ATOM     16  C   UNL     1      31.539 -11.184 -19.332  0.00  0.00    -0.086 C 
BRANCH  16  17
ATOM     17  N   UNL     1      32.232  -9.910 -19.185  0.00  0.00    +0.380 N 
ATOM     18  H   UNL     1      31.563  -9.190 -18.910  0.00  0.00    -0.089 HD
ATOM     19  H   UNL     1      32.665  -9.653 -20.071  0.00  0.00    -0.089 HD
ATOM     20  H   UNL     1      32.952  -9.996 -18.467  0.00  0.00    -0.089 HD
ENDBRANCH  16  17
ENDBRANCH  15  16
ENDBRANCH  14  15
ENDBRANCH  13  14
ENDBRANCH   1  13
BRANCH   1  21
ATOM     21  C   UNL     1      33.981 -12.618 -24.303  0.00  0.00    -0.036 C 
BRANCH  21  24
ATOM     22  N   UNL     1      34.716 -10.273 -23.990  0.00  0.00    -0.320 N 
ATOM     23  N   UNL     1      32.522 -10.624 -23.961  0.00  0.00    -0.320 N 
ATOM     24  C   UNL     1      33.697 -11.156 -24.081  0.00  0.00    +0.122 C 
ATOM     25  C   UNL     1      34.151  -9.039 -23.791  0.00  0.00    +0.059 C 
ATOM     26  C   UNL     1      32.781  -9.285 -23.777  0.00  0.00    +0.059 C 
ATOM     27  C   UNL     1      34.704  -7.769 -23.628  0.00  0.00    +0.016 C 
ATOM     28  C   UNL     1      31.895  -8.210 -23.589  0.00  0.00    +0.016 C 
ATOM     29  C   UNL     1      33.807  -6.711 -23.441  0.00  0.00    +0.001 C 
ATOM     30  C   UNL     1      32.428  -6.927 -23.423  0.00  0.00    +0.001 C 
ATOM     31  H   UNL     1      35.678 -10.476 -24.055  0.00  0.00    +0.148 HD
ATOM     32  H   UNL     1      31.646 -11.073 -23.994  0.00  0.00    +0.148 HD
ENDBRANCH  21  24
ENDBRANCH   1  21
TORSDOF 8
ENDMDL
MODEL 2
REMARK VINA RESULT:      -9.4      0.974      1.542
REMARK  Name = 11256587
REMARK  8 active torsions:
REMARK  status: ('A' for Active; 'I' for Inactive)
REMARK    1  A    between atoms: N_1  and  C_4
REMARK    2  A    between atoms: N_1  and  C_13
REMARK    3  A    between atoms: N_1  and  C_21
REMARK    4  A    between atoms: C_13  and  C_14
REMARK    5  A    between atoms: C_14  and  C_15
REMARK    6  A    between atoms: C_15  and  C_16
REMARK    7  A    between atoms: C_16  and  N_17
REMARK    8  A    between atoms: C_21  and  C_24
REMARK                            x       y       z     vdW  Elec       q    Type
REMARK                         _______ _______ _______ _____ _____    ______ ____
ROOT
ATOM      1  N   UNL     1      33.114 -12.696 -22.992  0.00  0.00    +0.394 N 
ATOM      2  H   UNL     1      33.784 -12.785 -22.229  0.00  0.00    -0.079 HD
ENDROOT
BRANCH   1   4
ATOM      3  N   UNL     1      33.850 -15.043 -21.597  0.00  0.00    -0.250 NA
ATOM      4  C   UNL     1      32.935 -14.009 -23.617  0.00  0.00    -0.016 C 
ATOM      5  C   UNL     1      33.199 -13.890 -25.127  0.00  0.00    -0.015 C 
ATOM      6  C   UNL     1      33.187 -15.268 -25.778  0.00  0.00    +0.003 C 
ATOM      7  C   UNL     1      33.782 -15.079 -22.954  0.00  0.00    +0.036 C 
ATOM      8  C   UNL     1      34.313 -16.128 -25.212  0.00  0.00    +0.027 C 
ATOM      9  C   UNL     1      34.386 -16.089 -23.710  0.00  0.00    -0.011 C 
ATOM     10  C   UNL     1      35.124 -17.063 -23.029  0.00  0.00    -0.002 C 
ATOM     11  C   UNL     1      35.217 -17.030 -21.644  0.00  0.00    +0.020 C 
ATOM     12  C   UNL     1      34.565 -16.009 -20.980  0.00  0.00    +0.098 C 
ENDBRANCH   1   4
BRANCH   1  13
ATOM     13  C   UNL     1      31.846 -12.221 -22.440  0.00  0.00    -0.077 C 
BRANCH  13  14
ATOM     14  C   UNL     1      31.912 -12.188 -20.912  0.00  0.00    -0.025 C 
BRANCH  14  15
ATOM     15  C   UNL     1      31.177 -10.964 -20.357  0.00  0.00    -0.026 C 
BRANCH  15  16
ATOM     16  C   UNL     1      31.881 -10.318 -19.161  0.00  0.00    -0.086 C 
BRANCH  16  17
ATOM     17  N   UNL     1      32.517  -9.054 -19.509  0.00  0.00    +0.380 N 
ATOM     18  H   UNL     1      32.531  -8.444 -18.691  0.00  0.00    -0.089 HD
ATOM     19  H   UNL     1      31.994  -8.605 -20.260  0.00  0.00    -0.089 HD
ATOM     20  H   UNL     1      33.474  -9.228 -19.817  0.00  0.00    -0.089 HD
ENDBRANCH  16  17
ENDBRANCH  15  16
ENDBRANCH  14  15
ENDBRANCH  13  14
ENDBRANCH   1  13
BRANCH   1  21
ATOM     21  C   UNL     1      33.642 -11.740 -23.962  0.00  0.00    -0.036 C 
BRANCH  21  24
ATOM     22  N   UNL     1      31.956  -9.925 -23.998  0.00  0.00    -0.320 N 
ATOM     23  N   UNL     1      33.917  -9.423 -23.079  0.00  0.00    -0.320 N 
ATOM     24  C   UNL     1      33.199 -10.333 -23.659  0.00  0.00    +0.122 C 
ATOM     25  C   UNL     1      31.849  -8.616 -23.599  0.00  0.00    +0.059 C 
ATOM     26  C   UNL     1      33.086  -8.327 -23.029  0.00  0.00    +0.059 C 
ATOM     27  C   UNL     1      30.810  -7.691 -23.686  0.00  0.00    +0.016 C 
ATOM     28  C   UNL     1      33.316  -7.042 -22.510  0.00  0.00    +0.016 C 
ATOM     29  C   UNL     1      31.057  -6.416 -23.165  0.00  0.00    +0.001 C 
ATOM     30  C   UNL     1      32.287  -6.096 -22.587  0.00  0.00    +0.001 C 
ATOM     31  H   UNL     1      31.261 -10.462 -24.442  0.00  0.00    +0.148 HD
ATOM     32  H   UNL     1      34.842  -9.498 -22.751  0.00  0.00    +0.148 HD
ENDBRANCH  21  24
ENDBRANCH   1  21
TORSDOF 8
ENDMDL
MODEL 3
REMARK VINA RESULT:      -9.4      1.676      7.826
REMARK  Name = 11256587
REMARK  8 active torsions:
REMARK  status: ('A' for Active; 'I' for Inactive)
REMARK    1  A    between atoms: N_1  and  C_4
REMARK    2  A    between atoms: N_1  and  C_13
REMARK    3  A    between atoms: N_1  and  C_21
REMARK    4  A    between atoms: C_13  and  C_14
REMARK    5  A    between atoms: C_14  and  C_15
REMARK    6  A    between atoms: C_15  and  C_16
REMARK    7  A    between atoms: C_16  and  N_17
REMARK    8  A    between atoms: C_21  and  C_24
REMARK                            x       y       z     vdW  Elec       q    Type
REMARK                         _______ _______ _______ _____ _____    ______ ____
ROOT
ATOM      1  N   UNL     1      33.377 -13.612 -22.868  0.00  0.00    +0.394 N 
ATOM      2  H   UNL     1      34.309 -13.350 -23.187  0.00  0.00    -0.079 HD
ENDROOT
BRANCH   1   4
ATOM      3  N   UNL     1      34.216 -11.344 -24.334  0.00  0.00    -0.250 NA
ATOM      4  C   UNL     1      32.492 -12.451 -22.996  0.00  0.00    -0.016 C 
ATOM      5  C   UNL     1      31.691 -12.281 -21.695  0.00  0.00    -0.015 C 
ATOM      6  C   UNL     1      30.888 -10.986 -21.733  0.00  0.00    +0.003 C 
ATOM      7  C   UNL     1      33.247 -11.197 -23.391  0.00  0.00    +0.036 C 
ATOM      8  C   UNL     1      31.826  -9.786 -21.820  0.00  0.00    +0.027 C 
ATOM      9  C   UNL     1      32.896  -9.949 -22.864  0.00  0.00    -0.011 C 
ATOM     10  C   UNL     1      33.612  -8.830 -23.300  0.00  0.00    -0.002 C 
ATOM     11  C   UNL     1      34.617  -8.967 -24.249  0.00  0.00    +0.020 C 
ATOM     12  C   UNL     1      34.876 -10.235 -24.732  0.00  0.00    +0.098 C 
ENDBRANCH   1   4
BRANCH   1  13
ATOM     13  C   UNL     1      32.895 -14.710 -23.704  0.00  0.00    -0.077 C 
BRANCH  13  14
ATOM     14  C   UNL     1      33.381 -14.534 -25.143  0.00  0.00    -0.025 C 
BRANCH  14  15
ATOM     15  C   UNL     1      33.651 -15.890 -25.803  0.00  0.00    -0.026 C 
BRANCH  15  16
ATOM     16  C   UNL     1      34.686 -16.737 -25.058  0.00  0.00    -0.086 C 
BRANCH  16  17
ATOM     17  N   UNL     1      34.334 -18.152 -25.040  0.00  0.00    +0.380 N 
ATOM     18  H   UNL     1      34.781 -18.623 -25.827  0.00  0.00    -0.089 HD
ATOM     19  H   UNL     1      33.322 -18.252 -25.112  0.00  0.00    -0.089 HD
ATOM     20  H   UNL     1      34.656 -18.571 -24.167  0.00  0.00    -0.089 HD
ENDBRANCH  16  17
ENDBRANCH  15  16
ENDBRANCH  14  15
ENDBRANCH  13  14
ENDBRANCH   1  13
BRANCH   1  21
ATOM     21  C   UNL     1      33.466 -14.031 -21.471  0.00  0.00    -0.036 C 
BRANCH  21  24
ATOM     22  N   UNL     1      35.021 -15.957 -21.541  0.00  0.00    -0.320 N 
ATOM     23  N   UNL     1      32.903 -16.425 -21.055  0.00  0.00    -0.320 N 
ATOM     24  C   UNL     1      33.764 -15.501 -21.345  0.00  0.00    +0.122 C 
ATOM     25  C   UNL     1      34.979 -17.317 -21.361  0.00  0.00    +0.059 C 
ATOM     26  C   UNL     1      33.646 -17.584 -21.058  0.00  0.00    +0.059 C 
ATOM     27  C   UNL     1      35.961 -18.304 -21.433  0.00  0.00    +0.016 C 
ATOM     28  C   UNL     1      33.253 -18.910 -20.812  0.00  0.00    +0.016 C 
ATOM     29  C   UNL     1      35.552 -19.619 -21.185  0.00  0.00    +0.001 C 
ATOM     30  C   UNL     1      34.222 -19.917 -20.879  0.00  0.00    +0.001 C 
ATOM     31  H   UNL     1      35.814 -15.419 -21.768  0.00  0.00    +0.148 HD
ATOM     32  H   UNL     1      31.941 -16.323 -20.875  0.00  0.00    +0.148 HD
ENDBRANCH  21  24
ENDBRANCH   1  21
TORSDOF 8
ENDMDL
MODEL 4
REMARK VINA RESULT:      -9.4      1.769      7.851
REMARK  Name = 11256587
REMARK  8 active torsions:
REMARK  status: ('A' for Active; 'I' for Inactive)
REMARK    1  A    between atoms: N_1  and  C_4
REMARK    2  A    between atoms: N_1  and  C_13
REMARK    3  A    between atoms: N_1  and  C_21
REMARK    4  A    between atoms: C_13  and  C_14
REMARK    5  A    between atoms: C_14  and  C_15
REMARK    6  A    between atoms: C_15  and  C_16
REMARK    7  A    between atoms: C_16  and  N_17
REMARK    8  A    between atoms: C_21  and  C_24
REMARK                            x       y       z     vdW  Elec       q    Type
REMARK                         _______ _______ _______ _____ _____    ______ ____
ROOT
ATOM      1  N   UNL     1      33.321 -13.712 -22.630  0.00  0.00    +0.394 N 
ATOM      2  H   UNL     1      34.269 -13.416 -22.861  0.00  0.00    -0.079 HD
ENDROOT
BRANCH   1   4
ATOM      3  N   UNL     1      34.067 -11.504 -24.232  0.00  0.00    -0.250 NA
ATOM      4  C   UNL     1      32.425 -12.559 -22.755  0.00  0.00    -0.016 C 
ATOM      5  C   UNL     1      31.698 -12.336 -21.420  0.00  0.00    -0.015 C 
ATOM      6  C   UNL     1      30.888 -11.046 -21.466  0.00  0.00    +0.003 C 
ATOM      7  C   UNL     1      33.152 -11.320 -23.244  0.00  0.00    +0.036 C 
ATOM      8  C   UNL     1      31.814  -9.849 -21.655  0.00  0.00    +0.027 C 
ATOM      9  C   UNL     1      32.825 -10.052 -22.750  0.00  0.00    -0.011 C 
ATOM     10  C   UNL     1      33.511  -8.951 -23.271  0.00  0.00    -0.002 C 
ATOM     11  C   UNL     1      34.461  -9.125 -24.269  0.00  0.00    +0.020 C 
ATOM     12  C   UNL     1      34.699 -10.412 -24.713  0.00  0.00    +0.098 C 
ENDBRANCH   1   4
BRANCH   1  13
ATOM     13  C   UNL     1      32.926 -14.765 -23.562  0.00  0.00    -0.077 C 
BRANCH  13  14
ATOM     14  C   UNL     1      34.039 -15.018 -24.580  0.00  0.00    -0.025 C 
BRANCH  14  15
ATOM     15  C   UNL     1      33.459 -15.398 -25.946  0.00  0.00    -0.026 C 
BRANCH  15  16
ATOM     16  C   UNL     1      32.618 -14.289 -26.584  0.00  0.00    -0.086 C 
BRANCH  16  17
ATOM     17  N   UNL     1      33.410 -13.108 -26.905  0.00  0.00    +0.380 N 
ATOM     18  H   UNL     1      34.098 -13.345 -27.620  0.00  0.00    -0.089 HD
ATOM     19  H   UNL     1      33.889 -12.781 -26.067  0.00  0.00    -0.089 HD
ATOM     20  H   UNL     1      32.796 -12.372 -27.255  0.00  0.00    -0.089 HD
ENDBRANCH  16  17
ENDBRANCH  15  16
ENDBRANCH  14  15
ENDBRANCH  13  14
ENDBRANCH   1  13
BRANCH   1  21
ATOM     21  C   UNL     1      33.314 -14.212 -21.257  0.00  0.00    -0.036 C 
BRANCH  21  24
ATOM     22  N   UNL     1      32.890 -16.637 -20.981  0.00  0.00    -0.320 N 
ATOM     23  N   UNL     1      35.010 -16.041 -21.287  0.00  0.00    -0.320 N 
ATOM     24  C   UNL     1      33.782 -15.641 -21.179  0.00  0.00    +0.122 C 
ATOM     25  C   UNL     1      33.607 -17.807 -20.957  0.00  0.00    +0.059 C 
ATOM     26  C   UNL     1      34.927 -17.408 -21.150  0.00  0.00    +0.059 C 
ATOM     27  C   UNL     1      33.225 -19.137 -20.789  0.00  0.00    +0.016 C 
ATOM     28  C   UNL     1      35.938 -18.383 -21.178  0.00  0.00    +0.016 C 
ATOM     29  C   UNL     1      34.245 -20.094 -20.819  0.00  0.00    +0.001 C 
ATOM     30  C   UNL     1      35.578 -19.725 -21.011  0.00  0.00    +0.001 C 
ATOM     31  H   UNL     1      31.916 -16.542 -20.876  0.00  0.00    +0.148 HD
ATOM     32  H   UNL     1      35.816 -15.495 -21.432  0.00  0.00    +0.148 HD
ENDBRANCH  21  24
ENDBRANCH   1  21
TORSDOF 8
ENDMDL
MODEL 5
REMARK VINA RESULT:      -9.3      1.889      6.580
REMARK  Name = 11256587
REMARK  8 active torsions:
REMARK  status: ('A' for Active; 'I' for Inactive)
REMARK    1  A    between atoms: N_1  and  C_4
REMARK    2  A    between atoms: N_1  and  C_13
REMARK    3  A    between atoms: N_1  and  C_21
REMARK    4  A    between atoms: C_13  and  C_14
REMARK    5  A    between atoms: C_14  and  C_15
REMARK    6  A    between atoms: C_15  and  C_16
REMARK    7  A    between atoms: C_16  and  N_17
REMARK    8  A    between atoms: C_21  and  C_24
REMARK                            x       y       z     vdW  Elec       q    Type
REMARK                         _______ _______ _______ _____ _____    ______ ____
ROOT
ATOM      1  N   UNL     1      32.936 -13.306 -22.468  0.00  0.00    +0.394 N 
ATOM      2  H   UNL     1      32.399 -14.105 -22.804  0.00  0.00    -0.079 HD
ENDROOT
BRANCH   1   4
ATOM      3  N   UNL     1      32.558 -13.980 -25.189  0.00  0.00    -0.250 NA
ATOM      4  C   UNL     1      32.902 -12.254 -23.488  0.00  0.00    -0.016 C 
ATOM      5  C   UNL     1      33.882 -11.137 -23.095  0.00  0.00    -0.015 C 
ATOM      6  C   UNL     1      33.995 -10.112 -24.217  0.00  0.00    +0.003 C 
ATOM      7  C   UNL     1      33.157 -12.798 -24.880  0.00  0.00    +0.036 C 
ATOM      8  C   UNL     1      34.568 -10.764 -25.472  0.00  0.00    +0.027 C 
ATOM      9  C   UNL     1      33.904 -12.070 -25.813  0.00  0.00    -0.011 C 
ATOM     10  C   UNL     1      34.069 -12.617 -27.089  0.00  0.00    -0.002 C 
ATOM     11  C   UNL     1      33.478 -13.831 -27.413  0.00  0.00    +0.020 C 
ATOM     12  C   UNL     1      32.737 -14.467 -26.436  0.00  0.00    +0.098 C 
ENDBRANCH   1   4
BRANCH   1  13
ATOM     13  C   UNL     1      32.326 -12.829 -21.228  0.00  0.00    -0.077 C 
BRANCH  13  14
ATOM     14  C   UNL     1      31.188 -11.855 -21.536  0.00  0.00    -0.025 C 
BRANCH  14  15
ATOM     15  C   UNL     1      30.920 -10.928 -20.346  0.00  0.00    -0.026 C 
BRANCH  15  16
ATOM     16  C   UNL     1      31.822  -9.692 -20.318  0.00  0.00    -0.086 C 
BRANCH  16  17
ATOM     17  N   UNL     1      32.512  -9.538 -19.043  0.00  0.00    +0.380 N 
ATOM     18  H   UNL     1      33.360 -10.105 -19.045  0.00  0.00    -0.089 HD
ATOM     19  H   UNL     1      31.901  -9.842 -18.286  0.00  0.00    -0.089 HD
ATOM     20  H   UNL     1      32.760  -8.558 -18.908  0.00  0.00    -0.089 HD
ENDBRANCH  16  17
ENDBRANCH  15  16
ENDBRANCH  14  15
ENDBRANCH  13  14
ENDBRANCH   1  13
BRANCH   1  21
ATOM     21  C   UNL     1      34.311 -13.738 -22.231  0.00  0.00    -0.036 C 
BRANCH  21  24
ATOM     22  N   UNL     1      34.400 -16.068 -21.395  0.00  0.00    -0.320 N 
ATOM     23  N   UNL     1      34.698 -15.799 -23.582  0.00  0.00    -0.320 N 
ATOM     24  C   UNL     1      34.477 -15.219 -22.444  0.00  0.00    +0.122 C 
ATOM     25  C   UNL     1      34.589 -17.331 -21.897  0.00  0.00    +0.059 C 
ATOM     26  C   UNL     1      34.773 -17.136 -23.264  0.00  0.00    +0.059 C 
ATOM     27  C   UNL     1      34.614 -18.587 -21.292  0.00  0.00    +0.016 C 
ATOM     28  C   UNL     1      34.996 -18.250 -24.090  0.00  0.00    +0.016 C 
ATOM     29  C   UNL     1      34.839 -19.685 -22.130  0.00  0.00    +0.001 C 
ATOM     30  C   UNL     1      35.025 -19.521 -23.504  0.00  0.00    +0.001 C 
ATOM     31  H   UNL     1      34.239 -15.828 -20.454  0.00  0.00    +0.148 HD
ATOM     32  H   UNL     1      34.791 -15.381 -24.468  0.00  0.00    +0.148 HD
ENDBRANCH  21  24
ENDBRANCH   1  21
TORSDOF 8
ENDMDL
MODEL 6
REMARK VINA RESULT:      -9.3      8.552     12.404
REMARK  Name = 11256587
REMARK  8 active torsions:
REMARK  status: ('A' for Active; 'I' for Inactive)
REMARK    1  A    between atoms: N_1  and  C_4
REMARK    2  A    between atoms: N_1  and  C_13
REMARK    3  A    between atoms: N_1  and  C_21
REMARK    4  A    between atoms: C_13  and  C_14
REMARK    5  A    between atoms: C_14  and  C_15
REMARK    6  A    between atoms: C_15  and  C_16
REMARK    7  A    between atoms: C_16  and  N_17
REMARK    8  A    between atoms: C_21  and  C_24
REMARK                            x       y       z     vdW  Elec       q    Type
REMARK                         _______ _______ _______ _____ _____    ______ ____
ROOT
ATOM      1  N   UNL     1      33.121 -22.991 -16.145  0.00  0.00    +0.394 N 
ATOM      2  H   UNL     1      32.929 -21.998 -16.269  0.00  0.00    -0.079 HD
ENDROOT
BRANCH   1   4
ATOM      3  N   UNL     1      35.849 -22.243 -16.166  0.00  0.00    -0.250 NA
ATOM      4  C   UNL     1      33.940 -23.165 -14.942  0.00  0.00    -0.016 C 
ATOM      5  C   UNL     1      33.490 -24.436 -14.205  0.00  0.00    -0.015 C 
ATOM      6  C   UNL     1      34.431 -24.736 -13.044  0.00  0.00    +0.003 C 
ATOM      7  C   UNL     1      35.424 -23.159 -15.254  0.00  0.00    +0.036 C 
ATOM      8  C   UNL     1      35.837 -25.017 -13.564  0.00  0.00    +0.027 C 
ATOM      9  C   UNL     1      36.307 -24.002 -14.570  0.00  0.00    -0.011 C 
ATOM     10  C   UNL     1      37.667 -23.919 -14.884  0.00  0.00    -0.002 C 
ATOM     11  C   UNL     1      38.114 -23.001 -15.826  0.00  0.00    +0.020 C 
ATOM     12  C   UNL     1      37.172 -22.191 -16.431  0.00  0.00    +0.098 C 
ENDBRANCH   1   4
BRANCH   1  13
ATOM     13  C   UNL     1      31.848 -23.693 -15.998  0.00  0.00    -0.077 C 
BRANCH  13  14
ATOM     14  C   UNL     1      30.682 -22.721 -16.180  0.00  0.00    -0.025 C 
BRANCH  14  15
ATOM     15  C   UNL     1      29.555 -23.022 -15.187  0.00  0.00    -0.026 C 
BRANCH  15  16
ATOM     16  C   UNL     1      28.805 -24.322 -15.488  0.00  0.00    -0.086 C 
BRANCH  16  17
ATOM     17  N   UNL     1      29.017 -25.335 -14.461  0.00  0.00    +0.380 N 
ATOM     18  H   UNL     1      28.157 -25.867 -14.325  0.00  0.00    -0.089 HD
ATOM     19  H   UNL     1      29.280 -24.883 -13.586  0.00  0.00    -0.089 HD
ATOM     20  H   UNL     1      29.763 -25.966 -14.756  0.00  0.00    -0.089 HD
ENDBRANCH  16  17
ENDBRANCH  15  16
ENDBRANCH  14  15
ENDBRANCH  13  14
ENDBRANCH   1  13
BRANCH   1  21
ATOM     21  C   UNL     1      33.841 -23.473 -17.322  0.00  0.00    -0.036 C 
BRANCH  21  24
ATOM     22  N   UNL     1      35.082 -22.061 -18.936  0.00  0.00    -0.320 N 
ATOM     23  N   UNL     1      32.871 -21.828 -18.927  0.00  0.00    -0.320 N 
ATOM     24  C   UNL     1      33.893 -22.435 -18.411  0.00  0.00    +0.122 C 
ATOM     25  C   UNL     1      34.810 -21.115 -19.891  0.00  0.00    +0.059 C 
ATOM     26  C   UNL     1      33.424 -20.987 -19.866  0.00  0.00    +0.059 C 
ATOM     27  C   UNL     1      35.632 -20.383 -20.747  0.00  0.00    +0.016 C 
ATOM     28  C   UNL     1      32.805 -20.079 -20.742  0.00  0.00    +0.016 C 
ATOM     29  C   UNL     1      34.998 -19.483 -21.612  0.00  0.00    +0.001 C 
ATOM     30  C   UNL     1      33.610 -19.334 -21.611  0.00  0.00    +0.001 C 
ATOM     31  H   UNL     1      35.970 -22.402 -18.682  0.00  0.00    +0.148 HD
ATOM     32  H   UNL     1      31.920 -21.941 -18.700  0.00  0.00    +0.148 HD
ENDBRANCH  21  24
ENDBRANCH   1  21
TORSDOF 8
ENDMDL
MODEL 7
REMARK VINA RESULT:      -9.1      9.191     13.224
REMARK  Name = 11256587
REMARK  8 active torsions:
REMARK  status: ('A' for Active; 'I' for Inactive)
REMARK    1  A    between atoms: N_1  and  C_4
REMARK    2  A    between atoms: N_1  and  C_13
REMARK    3  A    between atoms: N_1  and  C_21
REMARK    4  A    between atoms: C_13  and  C_14
REMARK    5  A    between atoms: C_14  and  C_15
REMARK    6  A    between atoms: C_15  and  C_16
REMARK    7  A    between atoms: C_16  and  N_17
REMARK    8  A    between atoms: C_21  and  C_24
REMARK                            x       y       z     vdW  Elec       q    Type
REMARK                         _______ _______ _______ _____ _____    ______ ____
ROOT
ATOM      1  N   UNL     1      34.651 -23.586 -15.404  0.00  0.00    +0.394 N 
ATOM      2  H   UNL     1      35.388 -22.918 -15.627  0.00  0.00    -0.079 HD
ENDROOT
BRANCH   1   4
ATOM      3  N   UNL     1      36.024 -23.291 -12.949  0.00  0.00    -0.250 NA
ATOM      4  C   UNL     1      35.255 -24.753 -14.755  0.00  0.00    -0.016 C 
ATOM      5  C   UNL     1      35.790 -25.710 -15.832  0.00  0.00    -0.015 C 
ATOM      6  C   UNL     1      36.572 -26.848 -15.188  0.00  0.00    +0.003 C 
ATOM      7  C   UNL     1      36.310 -24.360 -13.739  0.00  0.00    +0.036 C 
ATOM      8  C   UNL     1      37.793 -26.301 -14.455  0.00  0.00    +0.027 C 
ATOM      9  C   UNL     1      37.475 -25.119 -13.581  0.00  0.00    -0.011 C 
ATOM     10  C   UNL     1      38.389 -24.719 -12.601  0.00  0.00    -0.002 C 
ATOM     11  C   UNL     1      38.119 -23.618 -11.798  0.00  0.00    +0.020 C 
ATOM     12  C   UNL     1      36.931 -22.945 -12.010  0.00  0.00    +0.098 C 
ENDBRANCH   1   4
BRANCH   1  13
ATOM     13  C   UNL     1      33.699 -22.940 -14.502  0.00  0.00    -0.077 C 
BRANCH  13  14
ATOM     14  C   UNL     1      32.407 -23.753 -14.424  0.00  0.00    -0.025 C 
BRANCH  14  15
ATOM     15  C   UNL     1      31.182 -22.865 -14.665  0.00  0.00    -0.026 C 
BRANCH  15  16
ATOM     16  C   UNL     1      30.157 -23.482 -15.619  0.00  0.00    -0.086 C 
BRANCH  16  17
ATOM     17  N   UNL     1      29.958 -22.675 -16.817  0.00  0.00    +0.380 N 
ATOM     18  H   UNL     1      30.609 -21.889 -16.808  0.00  0.00    -0.089 HD
ATOM     19  H   UNL     1      29.001 -22.325 -16.837  0.00  0.00    -0.089 HD
ATOM     20  H   UNL     1      30.129 -23.248 -17.644  0.00  0.00    -0.089 HD
ENDBRANCH  16  17
ENDBRANCH  15  16
ENDBRANCH  14  15
ENDBRANCH  13  14
ENDBRANCH   1  13
BRANCH   1  21
ATOM     21  C   UNL     1      33.993 -23.981 -16.647  0.00  0.00    -0.036 C 
BRANCH  21  24
ATOM     22  N   UNL     1      33.085 -22.452 -18.372  0.00  0.00    -0.320 N 
ATOM     23  N   UNL     1      35.294 -22.449 -18.124  0.00  0.00    -0.320 N 
ATOM     24  C   UNL     1      34.165 -22.946 -17.726  0.00  0.00    +0.122 C 
ATOM     25  C   UNL     1      33.554 -21.541 -19.284  0.00  0.00    +0.059 C 
ATOM     26  C   UNL     1      34.935 -21.558 -19.110  0.00  0.00    +0.059 C 
ATOM     27  C   UNL     1      32.909 -20.730 -20.217  0.00  0.00    +0.016 C 
ATOM     28  C   UNL     1      35.735 -20.721 -19.906  0.00  0.00    +0.016 C 
ATOM     29  C   UNL     1      33.721 -19.904 -21.001  0.00  0.00    +0.001 C 
ATOM     30  C   UNL     1      35.109 -19.898 -20.849  0.00  0.00    +0.001 C 
ATOM     31  H   UNL     1      32.144 -22.698 -18.217  0.00  0.00    +0.148 HD
ATOM     32  H   UNL     1      36.198 -22.660 -17.798  0.00  0.00    +0.148 HD
ENDBRANCH  21  24
ENDBRANCH   1  21
TORSDOF 8
ENDMDL
MODEL 8
REMARK VINA RESULT:      -8.9      1.585      3.603
REMARK  Name = 11256587
REMARK  8 active torsions:
REMARK  status: ('A' for Active; 'I' for Inactive)
REMARK    1  A    between atoms: N_1  and  C_4
REMARK    2  A    between atoms: N_1  and  C_13
REMARK    3  A    between atoms: N_1  and  C_21
REMARK    4  A    between atoms: C_13  and  C_14
REMARK    5  A    between atoms: C_14  and  C_15
REMARK    6  A    between atoms: C_15  and  C_16
REMARK    7  A    between atoms: C_16  and  N_17
REMARK    8  A    between atoms: C_21  and  C_24
REMARK                            x       y       z     vdW  Elec       q    Type
REMARK                         _______ _______ _______ _____ _____    ______ ____
ROOT
ATOM      1  N   UNL     1      33.137 -13.252 -23.246  0.00  0.00    +0.394 N 
ATOM      2  H   UNL     1      32.780 -13.725 -24.075  0.00  0.00    -0.079 HD
ENDROOT
BRANCH   1   4
ATOM      3  N   UNL     1      34.337 -15.393 -24.650  0.00  0.00    -0.250 NA
ATOM      4  C   UNL     1      34.076 -14.145 -22.562  0.00  0.00    -0.016 C 
ATOM      5  C   UNL     1      33.626 -14.330 -21.104  0.00  0.00    -0.015 C 
ATOM      6  C   UNL     1      34.484 -15.384 -20.414  0.00  0.00    +0.003 C 
ATOM      7  C   UNL     1      34.252 -15.461 -23.295  0.00  0.00    +0.036 C 
ATOM      8  C   UNL     1      34.303 -16.738 -21.094  0.00  0.00    +0.027 C 
ATOM      9  C   UNL     1      34.399 -16.662 -22.593  0.00  0.00    -0.011 C 
ATOM     10  C   UNL     1      34.593 -17.833 -23.333  0.00  0.00    -0.002 C 
ATOM     11  C   UNL     1      34.664 -17.782 -24.719  0.00  0.00    +0.020 C 
ATOM     12  C   UNL     1      34.533 -16.547 -25.325  0.00  0.00    +0.098 C 
ENDBRANCH   1   4
BRANCH   1  13
ATOM     13  C   UNL     1      33.818 -12.030 -23.670  0.00  0.00    -0.077 C 
BRANCH  13  14
ATOM     14  C   UNL     1      33.908 -11.974 -25.195  0.00  0.00    -0.025 C 
BRANCH  14  15
ATOM     15  C   UNL     1      34.700 -10.746 -25.655  0.00  0.00    -0.026 C 
BRANCH  15  16
ATOM     16  C   UNL     1      35.227  -9.891 -24.501  0.00  0.00    -0.086 C 
BRANCH  16  17
ATOM     17  N   UNL     1      34.632  -8.561 -24.479  0.00  0.00    +0.380 N 
ATOM     18  H   UNL     1      34.321  -8.312 -25.418  0.00  0.00    -0.089 HD
ATOM     19  H   UNL     1      35.323  -7.883 -24.158  0.00  0.00    -0.089 HD
ATOM     20  H   UNL     1      33.832  -8.557 -23.845  0.00  0.00    -0.089 HD
ENDBRANCH  16  17
ENDBRANCH  15  16
ENDBRANCH  14  15
ENDBRANCH  13  14
ENDBRANCH   1  13
BRANCH   1  21
ATOM     21  C   UNL     1      32.010 -12.935 -22.372  0.00  0.00    -0.036 C 
BRANCH  21  24
ATOM     22  N   UNL     1      31.657 -10.554 -22.959  0.00  0.00    -0.320 N 
ATOM     23  N   UNL     1      32.216 -10.971 -20.849  0.00  0.00    -0.320 N 
ATOM     24  C   UNL     1      31.970 -11.473 -22.018  0.00  0.00    +0.122 C 
ATOM     25  C   UNL     1      31.702  -9.329 -22.344  0.00  0.00    +0.059 C 
ATOM     26  C   UNL     1      32.054  -9.616 -21.028  0.00  0.00    +0.059 C 
ATOM     27  C   UNL     1      31.473  -8.036 -22.812  0.00  0.00    +0.016 C 
ATOM     28  C   UNL     1      32.189  -8.560 -20.111  0.00  0.00    +0.016 C 
ATOM     29  C   UNL     1      31.613  -6.997 -21.885  0.00  0.00    +0.001 C 
ATOM     30  C   UNL     1      31.964  -7.253 -20.558  0.00  0.00    +0.001 C 
ATOM     31  H   UNL     1      31.437 -10.731 -23.903  0.00  0.00    +0.148 HD
ATOM     32  H   UNL     1      32.463 -11.447 -20.024  0.00  0.00    +0.148 HD
ENDBRANCH  21  24
ENDBRANCH   1  21
TORSDOF 8
ENDMDL
MODEL 9
REMARK VINA RESULT:      -8.9      1.594      3.046
REMARK  Name = 11256587
REMARK  8 active torsions:
REMARK  status: ('A' for Active; 'I' for Inactive)
REMARK    1  A    between atoms: N_1  and  C_4
REMARK    2  A    between atoms: N_1  and  C_13
REMARK    3  A    between atoms: N_1  and  C_21
REMARK    4  A    between atoms: C_13  and  C_14
REMARK    5  A    between atoms: C_14  and  C_15
REMARK    6  A    between atoms: C_15  and  C_16
REMARK    7  A    between atoms: C_16  and  N_17
REMARK    8  A    between atoms: C_21  and  C_24
REMARK                            x       y       z     vdW  Elec       q    Type
REMARK                         _______ _______ _______ _____ _____    ______ ____
ROOT
ATOM      1  N   UNL     1      32.636 -12.345 -23.692  0.00  0.00    +0.394 N 
ATOM      2  H   UNL     1      32.124 -11.872 -24.436  0.00  0.00    -0.079 HD
ENDROOT
BRANCH   1   4
ATOM      3  N   UNL     1      33.279 -14.168 -21.628  0.00  0.00    -0.250 NA
ATOM      4  C   UNL     1      32.625 -13.786 -23.955  0.00  0.00    -0.016 C 
ATOM      5  C   UNL     1      33.106 -14.041 -25.393  0.00  0.00    -0.015 C 
ATOM      6  C   UNL     1      33.266 -15.536 -25.641  0.00  0.00    +0.003 C 
ATOM      7  C   UNL     1      33.418 -14.563 -22.922  0.00  0.00    +0.036 C 
ATOM      8  C   UNL     1      34.339 -16.110 -24.721  0.00  0.00    +0.027 C 
ATOM      9  C   UNL     1      34.183 -15.675 -23.290  0.00  0.00    -0.011 C 
ATOM     10  C   UNL     1      34.861 -16.365 -22.280  0.00  0.00    -0.002 C 
ATOM     11  C   UNL     1      34.743 -15.964 -20.956  0.00  0.00    +0.020 C 
ATOM     12  C   UNL     1      33.945 -14.869 -20.685  0.00  0.00    +0.098 C 
ENDBRANCH   1   4
BRANCH   1  13
ATOM     13  C   UNL     1      34.008 -11.841 -23.683  0.00  0.00    -0.077 C 
BRANCH  13  14
ATOM     14  C   UNL     1      34.208 -10.825 -24.807  0.00  0.00    -0.025 C 
BRANCH  14  15
ATOM     15  C   UNL     1      35.182  -9.721 -24.384  0.00  0.00    -0.026 C 
BRANCH  15  16
ATOM     16  C   UNL     1      34.540  -8.333 -24.311  0.00  0.00    -0.086 C 
BRANCH  16  17
ATOM     17  N   UNL     1      34.972  -7.583 -23.138  0.00  0.00    +0.380 N 
ATOM     18  H   UNL     1      35.678  -6.900 -23.413  0.00  0.00    -0.089 HD
ATOM     19  H   UNL     1      35.368  -8.224 -22.451  0.00  0.00    -0.089 HD
ATOM     20  H   UNL     1      34.172  -7.099 -22.730  0.00  0.00    -0.089 HD
ENDBRANCH  16  17
ENDBRANCH  15  16
ENDBRANCH  14  15
ENDBRANCH  13  14
ENDBRANCH   1  13
BRANCH   1  21
ATOM     21  C   UNL     1      31.975 -12.056 -22.421  0.00  0.00    -0.036 C 
BRANCH  21  24
ATOM     22  N   UNL     1      31.409  -9.735 -23.076  0.00  0.00    -0.320 N 
ATOM     23  N   UNL     1      32.305  -9.994 -21.058  0.00  0.00    -0.320 N 
ATOM     24  C   UNL     1      31.911 -10.578 -22.145  0.00  0.00    +0.122 C 
ATOM     25  C   UNL     1      31.482  -8.473 -22.543  0.00  0.00    +0.059 C 
ATOM     26  C   UNL     1      32.045  -8.661 -21.284  0.00  0.00    +0.059 C 
ATOM     27  C   UNL     1      31.115  -7.223 -23.040  0.00  0.00    +0.016 C 
ATOM     28  C   UNL     1      32.262  -7.545 -20.458  0.00  0.00    +0.016 C 
ATOM     29  C   UNL     1      31.339  -6.123 -22.205  0.00  0.00    +0.001 C 
ATOM     30  C   UNL     1      31.901  -6.280 -20.936  0.00  0.00    +0.001 C 
ATOM     31  H   UNL     1      31.058  -9.980 -23.962  0.00  0.00    +0.148 HD
ATOM     32  H   UNL     1      32.700 -10.406 -20.256  0.00  0.00    +0.148 HD
ENDBRANCH  21  24
ENDBRANCH   1  21
TORSDOF 8
ENDMDL
