MODEL 1
REMARK VINA RESULT:     -11.2      0.000      0.000
REMARK  Name = 11291932
REMARK  3 active torsions:
REMARK  status: ('A' for Active; 'I' for Inactive)
REMARK    1  A    between atoms: C_2  and  C_16
REMARK    2  A    between atoms: C_3  and  C_19
REMARK    3  A    between atoms: C_19  and  C_23
REMARK                            x       y       z     vdW  Elec       q    Type
REMARK                         _______ _______ _______ _____ _____    ______ ____
ROOT
ATOM      1  F   UNL     1      34.697  -7.991 -23.736  0.00  0.00    -0.204 F 
ATOM      2  C   UNL     1      33.013  -9.317 -22.713  0.00  0.00    +0.081 C 
ATOM      3  C   UNL     1      32.795 -11.635 -23.335  0.00  0.00    -0.016 C 
ATOM      4  C   UNL     1      32.372 -10.543 -22.577  0.00  0.00    +0.003 C 
ATOM      5  C   UNL     1      34.076  -9.171 -23.601  0.00  0.00    +0.144 C 
ATOM      6  C   UNL     1      33.859 -11.494 -24.226  0.00  0.00    -0.002 C 
ATOM      7  C   UNL     1      34.499 -10.262 -24.359  0.00  0.00    +0.029 C 
ENDROOT
BRANCH   2  16
ATOM      8  O   UNL     1      33.181  -7.960 -20.870  0.00  0.00    -0.270 OA
ATOM      9  N   UNL     1      31.496  -7.409 -22.396  0.00  0.00    -0.278 N 
ATOM     10  N   UNL     1      32.213  -5.543 -24.470  0.00  0.00    +0.385 N 
ATOM     11  C   UNL     1      31.038  -6.254 -21.626  0.00  0.00    +0.091 C 
ATOM     12  C   UNL     1      31.627  -4.937 -22.127  0.00  0.00    -0.002 C 
ATOM     13  C   UNL     1      30.868  -7.578 -23.711  0.00  0.00    +0.070 C 
ATOM     14  C   UNL     1      31.404  -4.671 -23.620  0.00  0.00    -0.080 C 
ATOM     15  C   UNL     1      31.574  -6.807 -24.829  0.00  0.00    -0.060 C 
ATOM     16  C   UNL     1      32.566  -8.170 -21.913  0.00  0.00    +0.251 C 
ATOM     17  H   UNL     1      33.079  -5.755 -23.975  0.00  0.00    -0.084 HD
ATOM     18  H   UNL     1      32.361  -5.038 -25.343  0.00  0.00    -0.084 HD
ENDBRANCH   2  16
BRANCH   3  19
ATOM     19  C   UNL     1      32.110 -12.952 -23.194  0.00  0.00    +0.074 C 
BRANCH  19  23
ATOM     20  O   UNL     1      35.251 -16.549 -20.469  0.00  0.00    -0.266 OA
ATOM     21  N   UNL     1      33.109 -13.819 -21.206  0.00  0.00    -0.174 NA
ATOM     22  N   UNL     1      33.884 -14.709 -20.544  0.00  0.00    -0.242 N 
ATOM     23  C   UNL     1      32.972 -13.949 -22.488  0.00  0.00    +0.083 A 
ATOM     24  C   UNL     1      33.619 -15.021 -23.270  0.00  0.00    +0.020 A 
ATOM     25  C   UNL     1      34.411 -15.927 -22.569  0.00  0.00    +0.059 A 
ATOM     26  C   UNL     1      33.467 -15.153 -24.652  0.00  0.00    +0.001 C 
ATOM     27  C   UNL     1      34.559 -15.767 -21.114  0.00  0.00    +0.273 A 
ATOM     28  C   UNL     1      35.057 -16.969 -23.241  0.00  0.00    +0.005 C 
ATOM     29  C   UNL     1      34.110 -16.195 -25.324  0.00  0.00    +0.000 C 
ATOM     30  C   UNL     1      34.903 -17.100 -24.621  0.00  0.00    +0.000 C 
ATOM     31  H   UNL     1      33.973 -14.592 -19.571  0.00  0.00    +0.192 HD
ENDBRANCH  19  23
ENDBRANCH   3  19
TORSDOF 3
ENDMDL
MODEL 2
REMARK VINA RESULT:     -11.1      1.602      2.143
REMARK  Name = 11291932
REMARK  3 active torsions:
REMARK  status: ('A' for Active; 'I' for Inactive)
REMARK    1  A    between atoms: C_2  and  C_16
REMARK    2  A    between atoms: C_3  and  C_19
REMARK    3  A    between atoms: C_19  and  C_23
REMARK                            x       y       z     vdW  Elec       q    Type
REMARK                         _______ _______ _______ _____ _____    ______ ____
ROOT
ATOM      1  F   UNL     1      34.646  -7.882 -23.815  0.00  0.00    -0.204 F 
ATOM      2  C   UNL     1      33.007  -9.183 -22.691  0.00  0.00    +0.081 C 
ATOM      3  C   UNL     1      32.810 -11.531 -23.201  0.00  0.00    -0.016 C 
ATOM      4  C   UNL     1      32.389 -10.412 -22.483  0.00  0.00    +0.003 C 
ATOM      5  C   UNL     1      34.046  -9.063 -23.610  0.00  0.00    +0.144 C 
ATOM      6  C   UNL     1      33.849 -11.415 -24.123  0.00  0.00    -0.002 C 
ATOM      7  C   UNL     1      34.467 -10.182 -24.328  0.00  0.00    +0.029 C 
ENDROOT
BRANCH   2  16
ATOM      8  O   UNL     1      33.203  -7.737 -20.920  0.00  0.00    -0.270 OA
ATOM      9  N   UNL     1      31.464  -7.290 -22.419  0.00  0.00    -0.278 N 
ATOM     10  N   UNL     1      32.083  -5.514 -24.600  0.00  0.00    +0.385 N 
ATOM     11  C   UNL     1      31.006  -6.107 -21.691  0.00  0.00    +0.091 C 
ATOM     12  C   UNL     1      31.555  -4.806 -22.272  0.00  0.00    -0.002 C 
ATOM     13  C   UNL     1      30.800  -7.533 -23.705  0.00  0.00    +0.070 C 
ATOM     14  C   UNL     1      31.284  -4.616 -23.769  0.00  0.00    -0.080 C 
ATOM     15  C   UNL     1      31.459  -6.804 -24.879  0.00  0.00    -0.060 C 
ATOM     16  C   UNL     1      32.561  -8.008 -21.933  0.00  0.00    +0.251 C 
ATOM     17  H   UNL     1      32.968  -5.686 -24.122  0.00  0.00    -0.084 HD
ATOM     18  H   UNL     1      32.196  -5.048 -25.500  0.00  0.00    -0.084 HD
ENDBRANCH   2  16
BRANCH   3  19
ATOM     19  C   UNL     1      32.149 -12.850 -22.984  0.00  0.00    +0.074 C 
BRANCH  19  23
ATOM     20  O   UNL     1      34.702 -16.833 -25.784  0.00  0.00    -0.266 OA
ATOM     21  N   UNL     1      32.734 -13.988 -25.000  0.00  0.00    -0.174 NA
ATOM     22  N   UNL     1      33.367 -14.972 -25.680  0.00  0.00    -0.242 N 
ATOM     23  C   UNL     1      32.857 -13.947 -23.711  0.00  0.00    +0.083 A 
ATOM     24  C   UNL     1      33.654 -14.923 -22.940  0.00  0.00    +0.020 A 
ATOM     25  C   UNL     1      34.298 -15.926 -23.659  0.00  0.00    +0.059 A 
ATOM     26  C   UNL     1      33.781 -14.872 -21.549  0.00  0.00    +0.001 C 
ATOM     27  C   UNL     1      34.148 -15.961 -25.123  0.00  0.00    +0.273 A 
ATOM     28  C   UNL     1      35.070 -16.887 -22.999  0.00  0.00    +0.005 C 
ATOM     29  C   UNL     1      34.553 -15.830 -20.889  0.00  0.00    +0.000 C 
ATOM     30  C   UNL     1      35.196 -16.834 -21.611  0.00  0.00    +0.000 C 
ATOM     31  H   UNL     1      33.260 -14.982 -26.658  0.00  0.00    +0.192 HD
ENDBRANCH  19  23
ENDBRANCH   3  19
TORSDOF 3
ENDMDL
MODEL 3
REMARK VINA RESULT:     -10.3     10.465     15.205
REMARK  Name = 11291932
REMARK  3 active torsions:
REMARK  status: ('A' for Active; 'I' for Inactive)
REMARK    1  A    between atoms: C_2  and  C_16
REMARK    2  A    between atoms: C_3  and  C_19
REMARK    3  A    between atoms: C_19  and  C_23
REMARK                            x       y       z     vdW  Elec       q    Type
REMARK                         _______ _______ _______ _____ _____    ______ ____
ROOT
ATOM      1  F   UNL     1      34.020 -24.686 -12.692  0.00  0.00    -0.204 F 
ATOM      2  C   UNL     1      34.656 -24.661 -14.980  0.00  0.00    +0.081 C 
ATOM      3  C   UNL     1      33.339 -23.402 -16.558  0.00  0.00    -0.016 C 
ATOM      4  C   UNL     1      34.427 -24.229 -16.283  0.00  0.00    +0.003 C 
ATOM      5  C   UNL     1      33.805 -24.272 -13.949  0.00  0.00    +0.144 C 
ATOM      6  C   UNL     1      32.484 -23.010 -15.529  0.00  0.00    -0.002 C 
ATOM      7  C   UNL     1      32.716 -23.445 -14.225  0.00  0.00    +0.029 C 
ENDROOT
BRANCH   2  16
ATOM      8  O   UNL     1      35.674 -26.718 -14.992  0.00  0.00    -0.270 OA
ATOM      9  N   UNL     1      36.940 -24.953 -14.122  0.00  0.00    -0.278 N 
ATOM     10  N   UNL     1      38.617 -23.543 -15.990  0.00  0.00    +0.385 N 
ATOM     11  C   UNL     1      38.101 -25.796 -13.838  0.00  0.00    +0.091 C 
ATOM     12  C   UNL     1      39.161 -25.732 -14.936  0.00  0.00    -0.002 C 
ATOM     13  C   UNL     1      37.138 -23.515 -13.908  0.00  0.00    +0.070 C 
ATOM     14  C   UNL     1      39.634 -24.315 -15.279  0.00  0.00    -0.080 C 
ATOM     15  C   UNL     1      37.710 -22.790 -15.129  0.00  0.00    -0.060 C 
ATOM     16  C   UNL     1      35.802 -25.531 -14.694  0.00  0.00    +0.251 C 
ATOM     17  H   UNL     1      38.061 -24.189 -16.550  0.00  0.00    -0.084 HD
ATOM     18  H   UNL     1      39.119 -22.854 -16.551  0.00  0.00    -0.084 HD
ENDBRANCH   2  16
BRANCH   3  19
ATOM     19  C   UNL     1      33.088 -22.937 -17.953  0.00  0.00    +0.074 C 
BRANCH  19  23
ATOM     20  O   UNL     1      37.515 -20.331 -19.915  0.00  0.00    -0.266 OA
ATOM     21  N   UNL     1      35.435 -22.502 -18.032  0.00  0.00    -0.174 NA
ATOM     22  N   UNL     1      36.518 -21.855 -18.521  0.00  0.00    -0.242 N 
ATOM     23  C   UNL     1      34.268 -22.208 -18.511  0.00  0.00    +0.083 A 
ATOM     24  C   UNL     1      34.055 -21.199 -19.568  0.00  0.00    +0.020 A 
ATOM     25  C   UNL     1      35.183 -20.546 -20.058  0.00  0.00    +0.059 A 
ATOM     26  C   UNL     1      32.793 -20.887 -20.079  0.00  0.00    +0.001 C 
ATOM     27  C   UNL     1      36.502 -20.889 -19.504  0.00  0.00    +0.273 A 
ATOM     28  C   UNL     1      35.061 -19.577 -21.059  0.00  0.00    +0.005 C 
ATOM     29  C   UNL     1      32.670 -19.921 -21.080  0.00  0.00    +0.000 C 
ATOM     30  C   UNL     1      33.800 -19.268 -21.569  0.00  0.00    +0.000 C 
ATOM     31  H   UNL     1      37.394 -22.096 -18.142  0.00  0.00    +0.192 HD
ENDBRANCH  19  23
ENDBRANCH   3  19
TORSDOF 3
ENDMDL
MODEL 4
REMARK VINA RESULT:     -10.1     10.212     14.685
REMARK  Name = 11291932
REMARK  3 active torsions:
REMARK  status: ('A' for Active; 'I' for Inactive)
REMARK    1  A    between atoms: C_2  and  C_16
REMARK    2  A    between atoms: C_3  and  C_19
REMARK    3  A    between atoms: C_19  and  C_23
REMARK                            x       y       z     vdW  Elec       q    Type
REMARK                         _______ _______ _______ _____ _____    ______ ____
ROOT
ATOM      1  F   UNL     1      31.826 -22.831 -13.264  0.00  0.00    -0.204 F 
ATOM      2  C   UNL     1      33.530 -23.561 -14.748  0.00  0.00    +0.081 C 
ATOM      3  C   UNL     1      33.201 -23.341 -17.125  0.00  0.00    -0.016 C 
ATOM      4  C   UNL     1      33.994 -23.733 -16.048  0.00  0.00    +0.003 C 
ATOM      5  C   UNL     1      32.278 -22.999 -14.515  0.00  0.00    +0.144 C 
ATOM      6  C   UNL     1      31.945 -22.777 -16.897  0.00  0.00    -0.002 C 
ATOM      7  C   UNL     1      31.484 -22.607 -15.592  0.00  0.00    +0.029 C 
ENDROOT
BRANCH   2  16
ATOM      8  O   UNL     1      33.866 -24.775 -12.829  0.00  0.00    -0.270 OA
ATOM      9  N   UNL     1      35.660 -23.445 -13.526  0.00  0.00    -0.278 N 
ATOM     10  N   UNL     1      37.579 -24.702 -15.267  0.00  0.00    +0.385 N 
ATOM     11  C   UNL     1      36.521 -23.851 -12.416  0.00  0.00    +0.091 C 
ATOM     12  C   UNL     1      37.484 -24.974 -12.794  0.00  0.00    -0.002 C 
ATOM     13  C   UNL     1      36.302 -22.610 -14.548  0.00  0.00    +0.070 C 
ATOM     14  C   UNL     1      38.349 -24.679 -14.024  0.00  0.00    -0.080 C 
ATOM     15  C   UNL     1      36.998 -23.418 -15.646  0.00  0.00    -0.060 C 
ATOM     16  C   UNL     1      34.369 -23.975 -13.617  0.00  0.00    +0.251 C 
ATOM     17  H   UNL     1      36.821 -25.375 -15.159  0.00  0.00    -0.084 HD
ATOM     18  H   UNL     1      38.235 -24.950 -16.007  0.00  0.00    -0.084 HD
ENDBRANCH   2  16
BRANCH   3  19
ATOM     19  C   UNL     1      33.692 -23.525 -18.521  0.00  0.00    +0.074 C 
BRANCH  19  23
ATOM     20  O   UNL     1      37.319 -19.628 -19.897  0.00  0.00    -0.266 OA
ATOM     21  N   UNL     1      35.876 -22.559 -18.515  0.00  0.00    -0.174 NA
ATOM     22  N   UNL     1      36.761 -21.595 -18.859  0.00  0.00    -0.242 N 
ATOM     23  C   UNL     1      34.649 -22.446 -18.915  0.00  0.00    +0.083 A 
ATOM     24  C   UNL     1      34.162 -21.315 -19.730  0.00  0.00    +0.020 A 
ATOM     25  C   UNL     1      35.089 -20.335 -20.074  0.00  0.00    +0.059 A 
ATOM     26  C   UNL     1      32.837 -21.200 -20.157  0.00  0.00    +0.001 C 
ATOM     27  C   UNL     1      36.479 -20.476 -19.612  0.00  0.00    +0.273 A 
ATOM     28  C   UNL     1      34.702 -19.233 -20.843  0.00  0.00    +0.005 C 
ATOM     29  C   UNL     1      32.449 -20.101 -20.926  0.00  0.00    +0.000 C 
ATOM     30  C   UNL     1      33.379 -19.121 -21.269  0.00  0.00    +0.000 C 
ATOM     31  H   UNL     1      37.688 -21.703 -18.544  0.00  0.00    +0.192 HD
ENDBRANCH  19  23
ENDBRANCH   3  19
TORSDOF 3
ENDMDL
MODEL 5
REMARK VINA RESULT:     -10.0     10.192     14.672
REMARK  Name = 11291932
REMARK  3 active torsions:
REMARK  status: ('A' for Active; 'I' for Inactive)
REMARK    1  A    between atoms: C_2  and  C_16
REMARK    2  A    between atoms: C_3  and  C_19
REMARK    3  A    between atoms: C_19  and  C_23
REMARK                            x       y       z     vdW  Elec       q    Type
REMARK                         _______ _______ _______ _____ _____    ______ ____
ROOT
ATOM      1  F   UNL     1      31.855 -23.068 -13.310  0.00  0.00    -0.204 F 
ATOM      2  C   UNL     1      33.677 -23.546 -14.757  0.00  0.00    +0.081 C 
ATOM      3  C   UNL     1      33.401 -23.267 -17.135  0.00  0.00    -0.016 C 
ATOM      4  C   UNL     1      34.199 -23.614 -16.044  0.00  0.00    +0.003 C 
ATOM      5  C   UNL     1      32.363 -23.135 -14.548  0.00  0.00    +0.144 C 
ATOM      6  C   UNL     1      32.085 -22.854 -16.931  0.00  0.00    -0.002 C 
ATOM      7  C   UNL     1      31.566 -22.788 -15.639  0.00  0.00    +0.029 C 
ENDROOT
BRANCH   2  16
ATOM      8  O   UNL     1      34.012 -24.663 -12.780  0.00  0.00    -0.270 OA
ATOM      9  N   UNL     1      35.818 -23.396 -13.559  0.00  0.00    -0.278 N 
ATOM     10  N   UNL     1      37.706 -24.767 -15.246  0.00  0.00    +0.385 N 
ATOM     11  C   UNL     1      36.683 -23.754 -12.436  0.00  0.00    +0.091 C 
ATOM     12  C   UNL     1      37.628 -24.908 -12.762  0.00  0.00    -0.002 C 
ATOM     13  C   UNL     1      36.462 -22.623 -14.628  0.00  0.00    +0.070 C 
ATOM     14  C   UNL     1      38.487 -24.690 -14.013  0.00  0.00    -0.080 C 
ATOM     15  C   UNL     1      37.138 -23.496 -15.688  0.00  0.00    -0.060 C 
ATOM     16  C   UNL     1      34.519 -23.912 -13.612  0.00  0.00    +0.251 C 
ATOM     17  H   UNL     1      36.940 -25.423 -15.097  0.00  0.00    -0.084 HD
ATOM     18  H   UNL     1      38.353 -25.062 -15.978  0.00  0.00    -0.084 HD
ENDBRANCH   2  16
BRANCH   3  19
ATOM     19  C   UNL     1      33.955 -23.339 -18.518  0.00  0.00    +0.074 C 
BRANCH  19  23
ATOM     20  O   UNL     1      33.110 -18.624 -21.218  0.00  0.00    -0.266 OA
ATOM     21  N   UNL     1      32.549 -21.670 -19.489  0.00  0.00    -0.174 NA
ATOM     22  N   UNL     1      32.352 -20.508 -20.154  0.00  0.00    -0.242 N 
ATOM     23  C   UNL     1      33.765 -22.052 -19.255  0.00  0.00    +0.083 A 
ATOM     24  C   UNL     1      34.953 -21.284 -19.678  0.00  0.00    +0.020 A 
ATOM     25  C   UNL     1      34.727 -20.091 -20.360  0.00  0.00    +0.059 A 
ATOM     26  C   UNL     1      36.261 -21.703 -19.423  0.00  0.00    +0.001 C 
ATOM     27  C   UNL     1      33.342 -19.670 -20.619  0.00  0.00    +0.273 A 
ATOM     28  C   UNL     1      35.803 -19.310 -20.793  0.00  0.00    +0.005 C 
ATOM     29  C   UNL     1      37.335 -20.923 -19.853  0.00  0.00    +0.000 C 
ATOM     30  C   UNL     1      37.108 -19.730 -20.536  0.00  0.00    +0.000 C 
ATOM     31  H   UNL     1      31.420 -20.238 -20.319  0.00  0.00    +0.192 HD
ENDBRANCH  19  23
ENDBRANCH   3  19
TORSDOF 3
ENDMDL
MODEL 6
REMARK VINA RESULT:      -9.9      7.001     10.949
REMARK  Name = 11291932
REMARK  3 active torsions:
REMARK  status: ('A' for Active; 'I' for Inactive)
REMARK    1  A    between atoms: C_2  and  C_16
REMARK    2  A    between atoms: C_3  and  C_19
REMARK    3  A    between atoms: C_19  and  C_23
REMARK                            x       y       z     vdW  Elec       q    Type
REMARK                         _______ _______ _______ _____ _____    ______ ____
ROOT
ATOM      1  F   UNL     1      37.574 -18.917 -21.338  0.00  0.00    -0.204 F 
ATOM      2  C   UNL     1      35.335 -19.275 -20.629  0.00  0.00    +0.081 C 
ATOM      3  C   UNL     1      34.716 -21.414 -19.708  0.00  0.00    -0.016 C 
ATOM      4  C   UNL     1      34.372 -20.115 -20.080  0.00  0.00    +0.003 C 
ATOM      5  C   UNL     1      36.642 -19.722 -20.809  0.00  0.00    +0.144 C 
ATOM      6  C   UNL     1      36.023 -21.866 -19.886  0.00  0.00    -0.002 C 
ATOM      7  C   UNL     1      36.986 -21.021 -20.436  0.00  0.00    +0.029 C 
ENDROOT
BRANCH   2  16
ATOM      8  O   UNL     1      35.423 -17.002 -20.323  0.00  0.00    -0.270 OA
ATOM      9  N   UNL     1      34.155 -17.741 -22.145  0.00  0.00    -0.278 N 
ATOM     10  N   UNL     1      35.545 -17.971 -24.657  0.00  0.00    +0.385 N 
ATOM     11  C   UNL     1      33.786 -16.390 -22.564  0.00  0.00    +0.091 C 
ATOM     12  C   UNL     1      34.681 -15.851 -23.678  0.00  0.00    -0.002 C 
ATOM     13  C   UNL     1      33.744 -18.817 -23.055  0.00  0.00    +0.070 C 
ATOM     14  C   UNL     1      34.772 -16.757 -24.912  0.00  0.00    -0.080 C 
ATOM     15  C   UNL     1      34.761 -19.100 -24.163  0.00  0.00    -0.060 C 
ATOM     16  C   UNL     1      34.970 -17.908 -21.020  0.00  0.00    +0.251 C 
ATOM     17  H   UNL     1      36.260 -17.753 -23.963  0.00  0.00    -0.084 HD
ATOM     18  H   UNL     1      35.931 -18.260 -25.556  0.00  0.00    -0.084 HD
ENDBRANCH   2  16
BRANCH   3  19
ATOM     19  C   UNL     1      33.687 -22.319 -19.120  0.00  0.00    +0.074 C 
BRANCH  19  23
ATOM     20  O   UNL     1      35.064 -23.691 -13.977  0.00  0.00    -0.266 OA
ATOM     21  N   UNL     1      35.277 -22.801 -17.404  0.00  0.00    -0.174 NA
ATOM     22  N   UNL     1      35.605 -23.139 -16.136  0.00  0.00    -0.242 N 
ATOM     23  C   UNL     1      34.022 -22.694 -17.712  0.00  0.00    +0.083 A 
ATOM     24  C   UNL     1      32.927 -22.924 -16.749  0.00  0.00    +0.020 A 
ATOM     25  C   UNL     1      33.287 -23.270 -15.449  0.00  0.00    +0.059 A 
ATOM     26  C   UNL     1      31.577 -22.808 -17.090  0.00  0.00    +0.001 C 
ATOM     27  C   UNL     1      34.715 -23.388 -15.113  0.00  0.00    +0.273 A 
ATOM     28  C   UNL     1      32.306 -23.504 -14.482  0.00  0.00    +0.005 C 
ATOM     29  C   UNL     1      30.596 -23.040 -16.124  0.00  0.00    +0.000 C 
ATOM     30  C   UNL     1      30.959 -23.387 -14.824  0.00  0.00    +0.000 C 
ATOM     31  H   UNL     1      36.564 -23.212 -15.925  0.00  0.00    +0.192 HD
ENDBRANCH  19  23
ENDBRANCH   3  19
TORSDOF 3
ENDMDL
MODEL 7
REMARK VINA RESULT:      -9.8      9.526     14.903
REMARK  Name = 11291932
REMARK  3 active torsions:
REMARK  status: ('A' for Active; 'I' for Inactive)
REMARK    1  A    between atoms: C_2  and  C_16
REMARK    2  A    between atoms: C_3  and  C_19
REMARK    3  A    between atoms: C_19  and  C_23
REMARK                            x       y       z     vdW  Elec       q    Type
REMARK                         _______ _______ _______ _____ _____    ______ ____
ROOT
ATOM      1  F   UNL     1      34.447 -23.586 -13.568  0.00  0.00    -0.204 F 
ATOM      2  C   UNL     1      35.421 -23.166 -15.693  0.00  0.00    +0.081 C 
ATOM      3  C   UNL     1      33.995 -22.961 -17.626  0.00  0.00    -0.016 C 
ATOM      4  C   UNL     1      35.270 -22.955 -17.060  0.00  0.00    +0.003 C 
ATOM      5  C   UNL     1      34.307 -23.382 -14.885  0.00  0.00    +0.144 C 
ATOM      6  C   UNL     1      32.877 -23.177 -16.821  0.00  0.00    -0.002 C 
ATOM      7  C   UNL     1      33.033 -23.387 -15.451  0.00  0.00    +0.029 C 
ENDROOT
BRANCH   2  16
ATOM      8  O   UNL     1      37.198 -22.065 -14.747  0.00  0.00    -0.270 OA
ATOM      9  N   UNL     1      37.433 -24.381 -14.976  0.00  0.00    -0.278 N 
ATOM     10  N   UNL     1      36.574 -25.978 -12.739  0.00  0.00    +0.385 N 
ATOM     11  C   UNL     1      38.767 -24.405 -14.378  0.00  0.00    +0.091 C 
ATOM     12  C   UNL     1      38.745 -24.769 -12.895  0.00  0.00    -0.002 C 
ATOM     13  C   UNL     1      36.848 -25.696 -15.263  0.00  0.00    +0.070 C 
ATOM     14  C   UNL     1      38.023 -26.083 -12.576  0.00  0.00    -0.080 C 
ATOM     15  C   UNL     1      36.087 -26.296 -14.078  0.00  0.00    -0.060 C 
ATOM     16  C   UNL     1      36.763 -23.160 -15.101  0.00  0.00    +0.251 C 
ATOM     17  H   UNL     1      36.297 -25.021 -12.519  0.00  0.00    -0.084 HD
ATOM     18  H   UNL     1      36.163 -26.670 -12.112  0.00  0.00    -0.084 HD
ENDBRANCH   2  16
BRANCH   3  19
ATOM     19  C   UNL     1      33.828 -22.737 -19.091  0.00  0.00    +0.074 C 
BRANCH  19  23
ATOM     20  O   UNL     1      37.588 -19.197 -20.978  0.00  0.00    -0.266 OA
ATOM     21  N   UNL     1      36.076 -22.057 -19.523  0.00  0.00    -0.174 NA
ATOM     22  N   UNL     1      36.993 -21.179 -19.990  0.00  0.00    -0.242 N 
ATOM     23  C   UNL     1      34.820 -21.749 -19.614  0.00  0.00    +0.083 A 
ATOM     24  C   UNL     1      34.335 -20.486 -20.204  0.00  0.00    +0.020 A 
ATOM     25  C   UNL     1      35.296 -19.597 -20.680  0.00  0.00    +0.059 A 
ATOM     26  C   UNL     1      32.979 -20.161 -20.298  0.00  0.00    +0.001 C 
ATOM     27  C   UNL     1      36.717 -19.959 -20.569  0.00  0.00    +0.273 A 
ATOM     28  C   UNL     1      34.912 -18.380 -21.251  0.00  0.00    +0.005 C 
ATOM     29  C   UNL     1      32.595 -18.947 -20.869  0.00  0.00    +0.000 C 
ATOM     30  C   UNL     1      33.558 -18.058 -21.344  0.00  0.00    +0.000 C 
ATOM     31  H   UNL     1      37.941 -21.435 -19.911  0.00  0.00    +0.192 HD
ENDBRANCH  19  23
ENDBRANCH   3  19
TORSDOF 3
ENDMDL
MODEL 8
REMARK VINA RESULT:      -9.6      7.529     12.696
REMARK  Name = 11291932
REMARK  3 active torsions:
REMARK  status: ('A' for Active; 'I' for Inactive)
REMARK    1  A    between atoms: C_2  and  C_16
REMARK    2  A    between atoms: C_3  and  C_19
REMARK    3  A    between atoms: C_19  and  C_23
REMARK                            x       y       z     vdW  Elec       q    Type
REMARK                         _______ _______ _______ _____ _____    ______ ____
ROOT
ATOM      1  F   UNL     1      31.753 -22.511 -17.585  0.00  0.00    -0.204 F 
ATOM      2  C   UNL     1      34.036 -22.472 -18.238  0.00  0.00    +0.081 C 
ATOM      3  C   UNL     1      34.741 -20.961 -19.978  0.00  0.00    -0.016 C 
ATOM      4  C   UNL     1      35.043 -21.951 -19.044  0.00  0.00    +0.003 C 
ATOM      5  C   UNL     1      32.728 -22.012 -18.358  0.00  0.00    +0.144 C 
ATOM      6  C   UNL     1      33.432 -20.497 -20.102  0.00  0.00    -0.002 C 
ATOM      7  C   UNL     1      32.426 -21.022 -19.293  0.00  0.00    +0.029 C 
ENDROOT
BRANCH   2  16
ATOM      8  O   UNL     1      33.978 -24.653 -17.525  0.00  0.00    -0.270 OA
ATOM      9  N   UNL     1      35.070 -23.142 -16.111  0.00  0.00    -0.278 N 
ATOM     10  N   UNL     1      37.900 -22.818 -16.531  0.00  0.00    +0.385 N 
ATOM     11  C   UNL     1      35.414 -24.162 -15.122  0.00  0.00    +0.091 C 
ATOM     12  C   UNL     1      36.834 -24.698 -15.295  0.00  0.00    -0.002 C 
ATOM     13  C   UNL     1      35.646 -21.814 -15.872  0.00  0.00    +0.070 C 
ATOM     14  C   UNL     1      37.921 -23.617 -15.307  0.00  0.00    -0.080 C 
ATOM     15  C   UNL     1      37.042 -21.638 -16.474  0.00  0.00    -0.060 C 
ATOM     16  C   UNL     1      34.357 -23.514 -17.256  0.00  0.00    +0.251 C 
ATOM     17  H   UNL     1      37.573 -23.412 -17.293  0.00  0.00    -0.084 HD
ATOM     18  H   UNL     1      38.851 -22.476 -16.668  0.00  0.00    -0.084 HD
ENDBRANCH   2  16
BRANCH   3  19
ATOM     19  C   UNL     1      35.817 -20.400 -20.846  0.00  0.00    +0.074 C 
BRANCH  19  23
ATOM     20  O   UNL     1      34.718 -15.199 -22.252  0.00  0.00    -0.266 OA
ATOM     21  N   UNL     1      35.595 -18.072 -20.364  0.00  0.00    -0.174 NA
ATOM     22  N   UNL     1      35.323 -16.795 -20.720  0.00  0.00    -0.242 N 
ATOM     23  C   UNL     1      35.511 -18.998 -21.266  0.00  0.00    +0.083 A 
ATOM     24  C   UNL     1      35.131 -18.735 -22.668  0.00  0.00    +0.020 A 
ATOM     25  C   UNL     1      34.857 -17.414 -23.014  0.00  0.00    +0.059 A 
ATOM     26  C   UNL     1      35.042 -19.740 -23.635  0.00  0.00    +0.001 C 
ATOM     27  C   UNL     1      34.955 -16.372 -21.979  0.00  0.00    +0.273 A 
ATOM     28  C   UNL     1      34.490 -17.086 -24.322  0.00  0.00    +0.005 C 
ATOM     29  C   UNL     1      34.678 -19.413 -24.942  0.00  0.00    +0.000 C 
ATOM     30  C   UNL     1      34.402 -18.091 -25.286  0.00  0.00    +0.000 C 
ATOM     31  H   UNL     1      35.394 -16.108 -20.018  0.00  0.00    +0.192 HD
ENDBRANCH  19  23
ENDBRANCH   3  19
TORSDOF 3
ENDMDL
MODEL 9
REMARK VINA RESULT:      -9.6      1.461      2.277
REMARK  Name = 11291932
REMARK  3 active torsions:
REMARK  status: ('A' for Active; 'I' for Inactive)
REMARK    1  A    between atoms: C_2  and  C_16
REMARK    2  A    between atoms: C_3  and  C_19
REMARK    3  A    between atoms: C_19  and  C_23
REMARK                            x       y       z     vdW  Elec       q    Type
REMARK                         _______ _______ _______ _____ _____    ______ ____
ROOT
ATOM      1  F   UNL     1      35.242  -7.650 -23.595  0.00  0.00    -0.204 F 
ATOM      2  C   UNL     1      33.449  -9.168 -23.244  0.00  0.00    +0.081 C 
ATOM      3  C   UNL     1      33.423 -11.262 -24.437  0.00  0.00    -0.016 C 
ATOM      4  C   UNL     1      32.836 -10.384 -23.526  0.00  0.00    +0.003 C 
ATOM      5  C   UNL     1      34.647  -8.821 -23.864  0.00  0.00    +0.144 C 
ATOM      6  C   UNL     1      34.623 -10.919 -25.060  0.00  0.00    -0.002 C 
ATOM      7  C   UNL     1      35.234  -9.699 -24.774  0.00  0.00    +0.029 C 
ENDROOT
BRANCH   2  16
ATOM      8  O   UNL     1      33.347  -8.187 -21.172  0.00  0.00    -0.270 OA
ATOM      9  N   UNL     1      31.716  -7.509 -22.707  0.00  0.00    -0.278 N 
ATOM     10  N   UNL     1      32.362  -5.217 -24.325  0.00  0.00    +0.385 N 
ATOM     11  C   UNL     1      31.086  -6.575 -21.776  0.00  0.00    +0.091 C 
ATOM     12  C   UNL     1      31.561  -5.136 -21.969  0.00  0.00    -0.002 C 
ATOM     13  C   UNL     1      31.198  -7.477 -24.079  0.00  0.00    +0.070 C 
ATOM     14  C   UNL     1      31.409  -4.606 -23.400  0.00  0.00    -0.080 C 
ATOM     15  C   UNL     1      31.889  -6.440 -24.968  0.00  0.00    -0.060 C 
ATOM     16  C   UNL     1      32.828  -8.247 -22.285  0.00  0.00    +0.251 C 
ATOM     17  H   UNL     1      33.211  -5.438 -23.807  0.00  0.00    -0.084 HD
ATOM     18  H   UNL     1      32.511  -4.539 -25.073  0.00  0.00    -0.084 HD
ENDBRANCH   2  16
BRANCH   3  19
ATOM     19  C   UNL     1      32.769 -12.566 -24.745  0.00  0.00    +0.074 C 
BRANCH  19  23
ATOM     20  O   UNL     1      35.342 -16.774 -22.313  0.00  0.00    -0.266 OA
ATOM     21  N   UNL     1      34.272 -14.423 -24.745  0.00  0.00    -0.174 NA
ATOM     22  N   UNL     1      34.900 -15.456 -24.137  0.00  0.00    -0.242 N 
ATOM     23  C   UNL     1      33.450 -13.702 -24.049  0.00  0.00    +0.083 A 
ATOM     24  C   UNL     1      33.160 -13.948 -22.623  0.00  0.00    +0.020 A 
ATOM     25  C   UNL     1      33.818 -15.016 -22.017  0.00  0.00    +0.059 A 
ATOM     26  C   UNL     1      32.271 -13.166 -21.881  0.00  0.00    +0.001 C 
ATOM     27  C   UNL     1      34.747 -15.827 -22.818  0.00  0.00    +0.273 A 
ATOM     28  C   UNL     1      33.594 -15.311 -20.669  0.00  0.00    +0.005 C 
ATOM     29  C   UNL     1      32.048 -13.460 -20.534  0.00  0.00    +0.000 C 
ATOM     30  C   UNL     1      32.707 -14.529 -19.930  0.00  0.00    +0.000 C 
ATOM     31  H   UNL     1      35.520 -15.989 -24.685  0.00  0.00    +0.192 HD
ENDBRANCH  19  23
ENDBRANCH   3  19
TORSDOF 3
ENDMDL
