MODEL 1
REMARK VINA RESULT:      -8.9      0.000      0.000
REMARK  Name = 6323526
REMARK  9 active torsions:
REMARK  status: ('A' for Active; 'I' for Inactive)
REMARK    1  A    between atoms: N_1  and  S_3
REMARK    2  A    between atoms: N_1  and  C_13
REMARK    3  A    between atoms: S_3  and  C_6
REMARK    4  A    between atoms: C_13  and  C_14
REMARK    5  A    between atoms: C_14  and  C_16
REMARK    6  A    between atoms: C_14  and  C_19
REMARK    7  A    between atoms: C_16  and  O_17
REMARK    8  A    between atoms: C_19  and  C_21
REMARK    9  A    between atoms: C_19  and  C_22
REMARK                            x       y       z     vdW  Elec       q    Type
REMARK                         _______ _______ _______ _____ _____    ______ ____
ROOT
ATOM      1  N   UNL     1      35.098 -22.775 -17.447  0.00  0.00    -0.179 NA
ATOM      2  H   UNL     1      35.433 -21.812 -17.454  0.00  0.00    +0.149 HD
ENDROOT
BRANCH   1   3
ATOM      3  S   UNL     1      33.774 -22.842 -18.511  0.00  0.00    +0.060 S 
ATOM      4  O   UNL     1      32.550 -22.591 -17.773  0.00  0.00    -0.153 OA
ATOM      5  O   UNL     1      33.897 -24.026 -19.339  0.00  0.00    -0.153 OA
BRANCH   3   6
ATOM      6  C   UNL     1      34.076 -21.448 -19.555  0.00  0.00    +0.122 C 
ATOM      7  C   UNL     1      35.380 -21.122 -19.886  0.00  0.00    +0.020 C 
ATOM      8  C   UNL     1      33.004 -20.708 -20.023  0.00  0.00    +0.020 C 
ATOM      9  C   UNL     1      34.551 -19.266 -21.192  0.00  0.00    -0.022 C 
ATOM     10  C   UNL     1      35.619 -20.022 -20.711  0.00  0.00    -0.003 C 
ATOM     11  C   UNL     1      33.243 -19.610 -20.848  0.00  0.00    -0.003 C 
ATOM     12  C   UNL     1      34.806 -18.092 -22.074  0.00  0.00    +0.031 C 
ENDBRANCH   3   6
ENDBRANCH   1   3
BRANCH   1  13
ATOM     13  C   UNL     1      34.924 -23.158 -16.027  0.00  0.00    +0.103 C 
BRANCH  13  14
ATOM     14  C   UNL     1      36.221 -23.778 -15.477  0.00  0.00    +0.124 C 
BRANCH  14  16
ATOM     15  O   UNL     1      37.264 -21.655 -16.060  0.00  0.00    -0.250 OA
ATOM     16  C   UNL     1      37.380 -22.850 -15.821  0.00  0.00    +0.315 C 
BRANCH  16  17
ATOM     17  O   UNL     1      38.578 -23.488 -15.844  0.00  0.00    -0.480 OA
ATOM     18  H   UNL     1      38.909 -23.891 -15.065  0.00  0.00    +0.295 HD
ENDBRANCH  16  17
ENDBRANCH  14  16
BRANCH  14  19
ATOM     19  C   UNL     1      36.145 -24.091 -13.963  0.00  0.00    +0.077 C 
BRANCH  19  21
ATOM     20  O   UNL     1      34.428 -24.028 -12.260  0.00  0.00    -0.288 OA
ATOM     21  C   UNL     1      34.717 -24.042 -13.453  0.00  0.00    +0.208 C 
ENDBRANCH  19  21
BRANCH  19  22
ATOM     22  C   UNL     1      36.745 -25.450 -13.560  0.00  0.00    +0.008 C 
ATOM     23  C   UNL     1      38.036 -25.326 -12.764  0.00  0.00    +0.000 C 
ENDBRANCH  19  22
ENDBRANCH  14  19
ENDBRANCH  13  14
ENDBRANCH   1  13
TORSDOF 9
ENDMDL
MODEL 2
REMARK VINA RESULT:      -8.8      1.156      1.882
REMARK  Name = 6323526
REMARK  9 active torsions:
REMARK  status: ('A' for Active; 'I' for Inactive)
REMARK    1  A    between atoms: N_1  and  S_3
REMARK    2  A    between atoms: N_1  and  C_13
REMARK    3  A    between atoms: S_3  and  C_6
REMARK    4  A    between atoms: C_13  and  C_14
REMARK    5  A    between atoms: C_14  and  C_16
REMARK    6  A    between atoms: C_14  and  C_19
REMARK    7  A    between atoms: C_16  and  O_17
REMARK    8  A    between atoms: C_19  and  C_21
REMARK    9  A    between atoms: C_19  and  C_22
REMARK                            x       y       z     vdW  Elec       q    Type
REMARK                         _______ _______ _______ _____ _____    ______ ____
ROOT
ATOM      1  N   UNL     1      34.987 -22.731 -17.189  0.00  0.00    -0.179 NA
ATOM      2  H   UNL     1      35.099 -21.738 -16.986  0.00  0.00    +0.149 HD
ENDROOT
BRANCH   1   3
ATOM      3  S   UNL     1      33.681 -22.867 -18.267  0.00  0.00    +0.060 S 
ATOM      4  O   UNL     1      32.446 -22.567 -17.568  0.00  0.00    -0.153 OA
ATOM      5  O   UNL     1      33.815 -24.104 -19.013  0.00  0.00    -0.153 OA
BRANCH   3   6
ATOM      6  C   UNL     1      34.002 -21.546 -19.397  0.00  0.00    +0.122 C 
ATOM      7  C   UNL     1      32.942 -20.806 -19.890  0.00  0.00    +0.020 C 
ATOM      8  C   UNL     1      35.308 -21.275 -19.767  0.00  0.00    +0.020 C 
ATOM      9  C   UNL     1      34.505 -19.475 -21.164  0.00  0.00    -0.022 C 
ATOM     10  C   UNL     1      33.195 -19.762 -20.781  0.00  0.00    -0.003 C 
ATOM     11  C   UNL     1      35.562 -20.232 -20.656  0.00  0.00    -0.003 C 
ATOM     12  C   UNL     1      34.777 -18.360 -22.115  0.00  0.00    +0.031 C 
ENDBRANCH   3   6
ENDBRANCH   1   3
BRANCH   1  13
ATOM     13  C   UNL     1      34.945 -23.433 -15.886  0.00  0.00    +0.103 C 
BRANCH  13  14
ATOM     14  C   UNL     1      36.209 -24.293 -15.700  0.00  0.00    +0.124 C 
BRANCH  14  16
ATOM     15  O   UNL     1      37.244 -22.253 -14.859  0.00  0.00    -0.250 OA
ATOM     16  C   UNL     1      37.369 -23.369 -15.347  0.00  0.00    +0.315 C 
BRANCH  16  17
ATOM     17  O   UNL     1      38.581 -23.909 -15.636  0.00  0.00    -0.480 OA
ATOM     18  H   UNL     1      38.959 -23.783 -16.484  0.00  0.00    +0.295 HD
ENDBRANCH  16  17
ENDBRANCH  14  16
BRANCH  14  19
ATOM     19  C   UNL     1      36.021 -25.425 -14.662  0.00  0.00    +0.077 C 
BRANCH  19  21
ATOM     20  O   UNL     1      36.660 -27.230 -16.142  0.00  0.00    -0.288 OA
ATOM     21  C   UNL     1      36.787 -26.676 -15.054  0.00  0.00    +0.208 C 
ENDBRANCH  19  21
BRANCH  19  22
ATOM     22  C   UNL     1      36.428 -25.052 -13.226  0.00  0.00    +0.008 C 
ATOM     23  C   UNL     1      37.491 -25.972 -12.642  0.00  0.00    +0.000 C 
ENDBRANCH  19  22
ENDBRANCH  14  19
ENDBRANCH  13  14
ENDBRANCH   1  13
TORSDOF 9
ENDMDL
MODEL 3
REMARK VINA RESULT:      -8.7      3.854      5.780
REMARK  Name = 6323526
REMARK  9 active torsions:
REMARK  status: ('A' for Active; 'I' for Inactive)
REMARK    1  A    between atoms: N_1  and  S_3
REMARK    2  A    between atoms: N_1  and  C_13
REMARK    3  A    between atoms: S_3  and  C_6
REMARK    4  A    between atoms: C_13  and  C_14
REMARK    5  A    between atoms: C_14  and  C_16
REMARK    6  A    between atoms: C_14  and  C_19
REMARK    7  A    between atoms: C_16  and  O_17
REMARK    8  A    between atoms: C_19  and  C_21
REMARK    9  A    between atoms: C_19  and  C_22
REMARK                            x       y       z     vdW  Elec       q    Type
REMARK                         _______ _______ _______ _____ _____    ______ ____
ROOT
ATOM      1  N   UNL     1      32.074 -22.790 -17.583  0.00  0.00    -0.179 NA
ATOM      2  H   UNL     1      31.450 -23.347 -18.167  0.00  0.00    +0.149 HD
ENDROOT
BRANCH   1   3
ATOM      3  S   UNL     1      33.654 -23.079 -18.137  0.00  0.00    +0.060 S 
ATOM      4  O   UNL     1      33.672 -24.296 -18.928  0.00  0.00    -0.153 OA
ATOM      5  O   UNL     1      34.577 -22.914 -17.031  0.00  0.00    -0.153 OA
BRANCH   3   6
ATOM      6  C   UNL     1      33.911 -21.715 -19.231  0.00  0.00    +0.122 C 
ATOM      7  C   UNL     1      32.816 -21.006 -19.696  0.00  0.00    +0.020 C 
ATOM      8  C   UNL     1      35.201 -21.381 -19.604  0.00  0.00    +0.020 C 
ATOM      9  C   UNL     1      34.311 -19.577 -20.944  0.00  0.00    -0.022 C 
ATOM     10  C   UNL     1      33.018 -19.929 -20.559  0.00  0.00    -0.003 C 
ATOM     11  C   UNL     1      35.403 -20.303 -20.466  0.00  0.00    -0.003 C 
ATOM     12  C   UNL     1      34.528 -18.426 -21.866  0.00  0.00    +0.031 C 
ENDBRANCH   3   6
ENDBRANCH   1   3
BRANCH   1  13
ATOM     13  C   UNL     1      31.720 -23.085 -16.176  0.00  0.00    +0.103 C 
BRANCH  13  14
ATOM     14  C   UNL     1      30.330 -23.743 -16.099  0.00  0.00    +0.124 C 
BRANCH  14  16
ATOM     15  O   UNL     1      30.728 -23.919 -13.701  0.00  0.00    -0.250 OA
ATOM     16  C   UNL     1      30.152 -24.326 -14.702  0.00  0.00    +0.315 C 
BRANCH  16  17
ATOM     17  O   UNL     1      29.280 -25.366 -14.671  0.00  0.00    -0.480 OA
ATOM     18  H   UNL     1      29.026 -25.788 -15.468  0.00  0.00    +0.295 HD
ENDBRANCH  16  17
ENDBRANCH  14  16
BRANCH  14  19
ATOM     19  C   UNL     1      29.183 -22.779 -16.485  0.00  0.00    +0.077 C 
BRANCH  19  21
ATOM     20  O   UNL     1      27.911 -24.642 -17.359  0.00  0.00    -0.288 OA
ATOM     21  C   UNL     1      28.180 -23.445 -17.409  0.00  0.00    +0.208 C 
ENDBRANCH  19  21
BRANCH  19  22
ATOM     22  C   UNL     1      28.410 -22.193 -15.290  0.00  0.00    +0.008 C 
ATOM     23  C   UNL     1      26.911 -22.092 -15.534  0.00  0.00    +0.000 C 
ENDBRANCH  19  22
ENDBRANCH  14  19
ENDBRANCH  13  14
ENDBRANCH   1  13
TORSDOF 9
ENDMDL
MODEL 4
REMARK VINA RESULT:      -8.7      1.455      2.369
REMARK  Name = 6323526
REMARK  9 active torsions:
REMARK  status: ('A' for Active; 'I' for Inactive)
REMARK    1  A    between atoms: N_1  and  S_3
REMARK    2  A    between atoms: N_1  and  C_13
REMARK    3  A    between atoms: S_3  and  C_6
REMARK    4  A    between atoms: C_13  and  C_14
REMARK    5  A    between atoms: C_14  and  C_16
REMARK    6  A    between atoms: C_14  and  C_19
REMARK    7  A    between atoms: C_16  and  O_17
REMARK    8  A    between atoms: C_19  and  C_21
REMARK    9  A    between atoms: C_19  and  C_22
REMARK                            x       y       z     vdW  Elec       q    Type
REMARK                         _______ _______ _______ _____ _____    ______ ____
ROOT
ATOM      1  N   UNL     1      35.026 -22.808 -17.293  0.00  0.00    -0.179 NA
ATOM      2  H   UNL     1      35.517 -21.928 -17.450  0.00  0.00    +0.149 HD
ENDROOT
BRANCH   1   3
ATOM      3  S   UNL     1      33.744 -22.861 -18.407  0.00  0.00    +0.060 S 
ATOM      4  O   UNL     1      32.502 -22.542 -17.727  0.00  0.00    -0.153 OA
ATOM      5  O   UNL     1      33.855 -24.074 -19.193  0.00  0.00    -0.153 OA
BRANCH   3   6
ATOM      6  C   UNL     1      34.138 -21.513 -19.479  0.00  0.00    +0.122 C 
ATOM      7  C   UNL     1      35.466 -21.238 -19.759  0.00  0.00    +0.020 C 
ATOM      8  C   UNL     1      33.113 -20.756 -20.021  0.00  0.00    +0.020 C 
ATOM      9  C   UNL     1      34.758 -19.403 -21.161  0.00  0.00    -0.022 C 
ATOM     10  C   UNL     1      35.778 -20.174 -20.607  0.00  0.00    -0.003 C 
ATOM     11  C   UNL     1      33.425 -19.694 -20.868  0.00  0.00    -0.003 C 
ATOM     12  C   UNL     1      35.090 -18.266 -22.067  0.00  0.00    +0.031 C 
ENDBRANCH   3   6
ENDBRANCH   1   3
BRANCH   1  13
ATOM     13  C   UNL     1      34.747 -22.890 -15.841  0.00  0.00    +0.103 C 
BRANCH  13  14
ATOM     14  C   UNL     1      34.480 -24.349 -15.428  0.00  0.00    +0.124 C 
BRANCH  14  16
ATOM     15  O   UNL     1      35.900 -26.330 -15.411  0.00  0.00    -0.250 OA
ATOM     16  C   UNL     1      35.799 -25.112 -15.485  0.00  0.00    +0.315 C 
BRANCH  16  17
ATOM     17  O   UNL     1      36.875 -24.296 -15.622  0.00  0.00    -0.480 OA
ATOM     18  H   UNL     1      37.226 -23.854 -14.874  0.00  0.00    +0.295 HD
ENDBRANCH  16  17
ENDBRANCH  14  16
BRANCH  14  19
ATOM     19  C   UNL     1      33.788 -24.469 -14.050  0.00  0.00    +0.077 C 
BRANCH  19  21
ATOM     20  O   UNL     1      34.935 -24.833 -11.950  0.00  0.00    -0.288 OA
ATOM     21  C   UNL     1      34.730 -24.104 -12.917  0.00  0.00    +0.208 C 
ENDBRANCH  19  21
BRANCH  19  22
ATOM     22  C   UNL     1      32.514 -23.619 -13.897  0.00  0.00    +0.008 C 
ATOM     23  C   UNL     1      31.372 -24.078 -14.793  0.00  0.00    +0.000 C 
ENDBRANCH  19  22
ENDBRANCH  14  19
ENDBRANCH  13  14
ENDBRANCH   1  13
TORSDOF 9
ENDMDL
MODEL 5
REMARK VINA RESULT:      -8.7      5.217      9.097
REMARK  Name = 6323526
REMARK  9 active torsions:
REMARK  status: ('A' for Active; 'I' for Inactive)
REMARK    1  A    between atoms: N_1  and  S_3
REMARK    2  A    between atoms: N_1  and  C_13
REMARK    3  A    between atoms: S_3  and  C_6
REMARK    4  A    between atoms: C_13  and  C_14
REMARK    5  A    between atoms: C_14  and  C_16
REMARK    6  A    between atoms: C_14  and  C_19
REMARK    7  A    between atoms: C_16  and  O_17
REMARK    8  A    between atoms: C_19  and  C_21
REMARK    9  A    between atoms: C_19  and  C_22
REMARK                            x       y       z     vdW  Elec       q    Type
REMARK                         _______ _______ _______ _____ _____    ______ ____
ROOT
ATOM      1  N   UNL     1      34.246 -17.520 -21.553  0.00  0.00    -0.179 NA
ATOM      2  H   UNL     1      33.731 -17.799 -20.718  0.00  0.00    +0.149 HD
ENDROOT
BRANCH   1   3
ATOM      3  S   UNL     1      35.258 -18.821 -21.964  0.00  0.00    +0.060 S 
ATOM      4  O   UNL     1      36.636 -18.471 -21.674  0.00  0.00    -0.153 OA
ATOM      5  O   UNL     1      34.890 -19.304 -23.282  0.00  0.00    -0.153 OA
BRANCH   3   6
ATOM      6  C   UNL     1      34.754 -20.055 -20.804  0.00  0.00    +0.122 C 
ATOM      7  C   UNL     1      35.712 -20.863 -20.217  0.00  0.00    +0.020 C 
ATOM      8  C   UNL     1      33.409 -20.191 -20.502  0.00  0.00    +0.020 C 
ATOM      9  C   UNL     1      33.965 -21.986 -18.984  0.00  0.00    -0.022 C 
ATOM     10  C   UNL     1      35.314 -21.837 -19.300  0.00  0.00    -0.003 C 
ATOM     11  C   UNL     1      33.012 -21.163 -19.585  0.00  0.00    -0.003 C 
ATOM     12  C   UNL     1      33.539 -23.026 -18.004  0.00  0.00    +0.031 C 
ENDBRANCH   3   6
ENDBRANCH   1   3
BRANCH   1  13
ATOM     13  C   UNL     1      34.832 -16.190 -21.269  0.00  0.00    +0.103 C 
BRANCH  13  14
ATOM     14  C   UNL     1      34.292 -15.143 -22.261  0.00  0.00    +0.124 C 
BRANCH  14  16
ATOM     15  O   UNL     1      33.773 -15.525 -24.612  0.00  0.00    -0.250 OA
ATOM     16  C   UNL     1      34.555 -15.645 -23.677  0.00  0.00    +0.315 C 
BRANCH  16  17
ATOM     17  O   UNL     1      35.761 -16.254 -23.805  0.00  0.00    -0.480 OA
ATOM     18  H   UNL     1      35.821 -17.090 -24.225  0.00  0.00    +0.295 HD
ENDBRANCH  16  17
ENDBRANCH  14  16
BRANCH  14  19
ATOM     19  C   UNL     1      32.802 -14.799 -22.024  0.00  0.00    +0.077 C 
BRANCH  19  21
ATOM     20  O   UNL     1      31.612 -16.223 -20.472  0.00  0.00    -0.288 OA
ATOM     21  C   UNL     1      32.336 -15.248 -20.651  0.00  0.00    +0.208 C 
ENDBRANCH  19  21
BRANCH  19  22
ATOM     22  C   UNL     1      32.458 -13.307 -22.176  0.00  0.00    +0.008 C 
ATOM     23  C   UNL     1      31.963 -12.669 -20.886  0.00  0.00    +0.000 C 
ENDBRANCH  19  22
ENDBRANCH  14  19
ENDBRANCH  13  14
ENDBRANCH   1  13
TORSDOF 9
ENDMDL
MODEL 6
REMARK VINA RESULT:      -8.6      1.204      2.283
REMARK  Name = 6323526
REMARK  9 active torsions:
REMARK  status: ('A' for Active; 'I' for Inactive)
REMARK    1  A    between atoms: N_1  and  S_3
REMARK    2  A    between atoms: N_1  and  C_13
REMARK    3  A    between atoms: S_3  and  C_6
REMARK    4  A    between atoms: C_13  and  C_14
REMARK    5  A    between atoms: C_14  and  C_16
REMARK    6  A    between atoms: C_14  and  C_19
REMARK    7  A    between atoms: C_16  and  O_17
REMARK    8  A    between atoms: C_19  and  C_21
REMARK    9  A    between atoms: C_19  and  C_22
REMARK                            x       y       z     vdW  Elec       q    Type
REMARK                         _______ _______ _______ _____ _____    ______ ____
ROOT
ATOM      1  N   UNL     1      34.654 -22.955 -17.102  0.00  0.00    -0.179 NA
ATOM      2  H   UNL     1      35.121 -22.049 -17.060  0.00  0.00    +0.149 HD
ENDROOT
BRANCH   1   3
ATOM      3  S   UNL     1      33.639 -22.922 -18.465  0.00  0.00    +0.060 S 
ATOM      4  O   UNL     1      32.308 -22.508 -18.064  0.00  0.00    -0.153 OA
ATOM      5  O   UNL     1      33.826 -24.147 -19.219  0.00  0.00    -0.153 OA
BRANCH   3   6
ATOM      6  C   UNL     1      34.352 -21.616 -19.418  0.00  0.00    +0.122 C 
ATOM      7  C   UNL     1      35.731 -21.500 -19.482  0.00  0.00    +0.020 C 
ATOM      8  C   UNL     1      33.521 -20.731 -20.082  0.00  0.00    +0.020 C 
ATOM      9  C   UNL     1      35.471 -19.571 -20.911  0.00  0.00    -0.022 C 
ATOM     10  C   UNL     1      36.294 -20.470 -20.235  0.00  0.00    -0.003 C 
ATOM     11  C   UNL     1      34.083 -19.702 -20.836  0.00  0.00    -0.003 C 
ATOM     12  C   UNL     1      36.072 -18.469 -21.716  0.00  0.00    +0.031 C 
ENDBRANCH   3   6
ENDBRANCH   1   3
BRANCH   1  13
ATOM     13  C   UNL     1      34.081 -23.204 -15.760  0.00  0.00    +0.103 C 
BRANCH  13  14
ATOM     14  C   UNL     1      35.203 -23.409 -14.726  0.00  0.00    +0.124 C 
BRANCH  14  16
ATOM     15  O   UNL     1      33.516 -24.480 -13.331  0.00  0.00    -0.250 OA
ATOM     16  C   UNL     1      34.571 -23.864 -13.416  0.00  0.00    +0.315 C 
BRANCH  16  17
ATOM     17  O   UNL     1      35.301 -23.511 -12.327  0.00  0.00    -0.480 OA
ATOM     18  H   UNL     1      35.492 -22.609 -12.164  0.00  0.00    +0.295 HD
ENDBRANCH  16  17
ENDBRANCH  14  16
BRANCH  14  19
ATOM     19  C   UNL     1      36.305 -24.379 -15.217  0.00  0.00    +0.077 C 
BRANCH  19  21
ATOM     20  O   UNL     1      37.834 -23.108 -13.838  0.00  0.00    -0.288 OA
ATOM     21  C   UNL     1      37.665 -24.011 -14.652  0.00  0.00    +0.208 C 
ENDBRANCH  19  21
BRANCH  19  22
ATOM     22  C   UNL     1      36.044 -25.861 -14.895  0.00  0.00    +0.008 C 
ATOM     23  C   UNL     1      37.262 -26.579 -14.332  0.00  0.00    +0.000 C 
ENDBRANCH  19  22
ENDBRANCH  14  19
ENDBRANCH  13  14
ENDBRANCH   1  13
TORSDOF 9
ENDMDL
MODEL 7
REMARK VINA RESULT:      -8.6      2.962      4.665
REMARK  Name = 6323526
REMARK  9 active torsions:
REMARK  status: ('A' for Active; 'I' for Inactive)
REMARK    1  A    between atoms: N_1  and  S_3
REMARK    2  A    between atoms: N_1  and  C_13
REMARK    3  A    between atoms: S_3  and  C_6
REMARK    4  A    between atoms: C_13  and  C_14
REMARK    5  A    between atoms: C_14  and  C_16
REMARK    6  A    between atoms: C_14  and  C_19
REMARK    7  A    between atoms: C_16  and  O_17
REMARK    8  A    between atoms: C_19  and  C_21
REMARK    9  A    between atoms: C_19  and  C_22
REMARK                            x       y       z     vdW  Elec       q    Type
REMARK                         _______ _______ _______ _____ _____    ______ ____
ROOT
ATOM      1  N   UNL     1      32.156 -22.602 -17.713  0.00  0.00    -0.179 NA
ATOM      2  H   UNL     1      31.585 -22.478 -18.549  0.00  0.00    +0.149 HD
ENDROOT
BRANCH   1   3
ATOM      3  S   UNL     1      33.730 -22.963 -18.242  0.00  0.00    +0.060 S 
ATOM      4  O   UNL     1      33.707 -24.186 -19.023  0.00  0.00    -0.153 OA
ATOM      5  O   UNL     1      34.643 -22.829 -17.123  0.00  0.00    -0.153 OA
BRANCH   3   6
ATOM      6  C   UNL     1      34.060 -21.620 -19.342  0.00  0.00    +0.122 C 
ATOM      7  C   UNL     1      33.003 -20.881 -19.844  0.00  0.00    +0.020 C 
ATOM      8  C   UNL     1      35.371 -21.331 -19.682  0.00  0.00    +0.020 C 
ATOM      9  C   UNL     1      34.577 -19.515 -21.064  0.00  0.00    -0.022 C 
ATOM     10  C   UNL     1      33.263 -19.821 -20.712  0.00  0.00    -0.003 C 
ATOM     11  C   UNL     1      35.632 -20.271 -20.549  0.00  0.00    -0.003 C 
ATOM     12  C   UNL     1      34.857 -18.381 -21.991  0.00  0.00    +0.031 C 
ENDBRANCH   3   6
ENDBRANCH   1   3
BRANCH   1  13
ATOM     13  C   UNL     1      31.434 -23.555 -16.839  0.00  0.00    +0.103 C 
BRANCH  13  14
ATOM     14  C   UNL     1      30.726 -22.804 -15.696  0.00  0.00    +0.124 C 
BRANCH  14  16
ATOM     15  O   UNL     1      28.447 -21.990 -15.412  0.00  0.00    -0.250 OA
ATOM     16  C   UNL     1      29.282 -22.549 -16.112  0.00  0.00    +0.315 C 
BRANCH  16  17
ATOM     17  O   UNL     1      29.001 -23.014 -17.356  0.00  0.00    -0.480 OA
ATOM     18  H   UNL     1      28.436 -23.755 -17.462  0.00  0.00    +0.295 HD
ENDBRANCH  16  17
ENDBRANCH  14  16
BRANCH  14  19
ATOM     19  C   UNL     1      30.828 -23.538 -14.338  0.00  0.00    +0.077 C 
BRANCH  19  21
ATOM     20  O   UNL     1      29.688 -25.644 -14.684  0.00  0.00    -0.288 OA
ATOM     21  C   UNL     1      30.744 -25.044 -14.509  0.00  0.00    +0.208 C 
ENDBRANCH  19  21
BRANCH  19  22
ATOM     22  C   UNL     1      32.103 -23.224 -13.534  0.00  0.00    +0.008 C 
ATOM     23  C   UNL     1      33.190 -24.277 -13.693  0.00  0.00    +0.000 C 
ENDBRANCH  19  22
ENDBRANCH  14  19
ENDBRANCH  13  14
ENDBRANCH   1  13
TORSDOF 9
ENDMDL
MODEL 8
REMARK VINA RESULT:      -8.4      7.521     10.784
REMARK  Name = 6323526
REMARK  9 active torsions:
REMARK  status: ('A' for Active; 'I' for Inactive)
REMARK    1  A    between atoms: N_1  and  S_3
REMARK    2  A    between atoms: N_1  and  C_13
REMARK    3  A    between atoms: S_3  and  C_6
REMARK    4  A    between atoms: C_13  and  C_14
REMARK    5  A    between atoms: C_14  and  C_16
REMARK    6  A    between atoms: C_14  and  C_19
REMARK    7  A    between atoms: C_16  and  O_17
REMARK    8  A    between atoms: C_19  and  C_21
REMARK    9  A    between atoms: C_19  and  C_22
REMARK                            x       y       z     vdW  Elec       q    Type
REMARK                         _______ _______ _______ _____ _____    ______ ____
ROOT
ATOM      1  N   UNL     1      34.456 -14.070 -23.210  0.00  0.00    -0.179 NA
ATOM      2  H   UNL     1      34.381 -14.027 -22.194  0.00  0.00    +0.149 HD
ENDROOT
BRANCH   1   3
ATOM      3  S   UNL     1      33.058 -13.333 -23.837  0.00  0.00    +0.060 S 
ATOM      4  O   UNL     1      31.968 -13.487 -22.893  0.00  0.00    -0.153 OA
ATOM      5  O   UNL     1      32.891 -13.743 -25.218  0.00  0.00    -0.153 OA
BRANCH   3   6
ATOM      6  C   UNL     1      33.525 -11.628 -23.857  0.00  0.00    +0.122 C 
ATOM      7  C   UNL     1      32.830 -10.728 -23.067  0.00  0.00    +0.020 C 
ATOM      8  C   UNL     1      34.575 -11.224 -24.662  0.00  0.00    +0.020 C 
ATOM      9  C   UNL     1      34.255  -8.958 -23.887  0.00  0.00    -0.022 C 
ATOM     10  C   UNL     1      33.198  -9.382 -23.083  0.00  0.00    -0.003 C 
ATOM     11  C   UNL     1      34.944  -9.879 -24.677  0.00  0.00    -0.003 C 
ATOM     12  C   UNL     1      34.649  -7.520 -23.903  0.00  0.00    +0.031 C 
ENDBRANCH   3   6
ENDBRANCH   1   3
BRANCH   1  13
ATOM     13  C   UNL     1      34.769 -15.474 -23.559  0.00  0.00    +0.103 C 
BRANCH  13  14
ATOM     14  C   UNL     1      35.017 -16.301 -22.283  0.00  0.00    +0.124 C 
BRANCH  14  16
ATOM     15  O   UNL     1      34.883 -14.992 -20.232  0.00  0.00    -0.250 OA
ATOM     16  C   UNL     1      34.312 -15.610 -21.121  0.00  0.00    +0.315 C 
BRANCH  16  17
ATOM     17  O   UNL     1      32.963 -15.752 -21.162  0.00  0.00    -0.480 OA
ATOM     18  H   UNL     1      32.462 -15.285 -21.802  0.00  0.00    +0.295 HD
ENDBRANCH  16  17
ENDBRANCH  14  16
BRANCH  14  19
ATOM     19  C   UNL     1      34.595 -17.782 -22.432  0.00  0.00    +0.077 C 
BRANCH  19  21
ATOM     20  O   UNL     1      34.642 -19.099 -24.461  0.00  0.00    -0.288 OA
ATOM     21  C   UNL     1      35.257 -18.433 -23.633  0.00  0.00    +0.208 C 
ENDBRANCH  19  21
BRANCH  19  22
ATOM     22  C   UNL     1      34.886 -18.657 -21.200  0.00  0.00    +0.008 C 
ATOM     23  C   UNL     1      33.786 -19.666 -20.904  0.00  0.00    +0.000 C 
ENDBRANCH  19  22
ENDBRANCH  14  19
ENDBRANCH  13  14
ENDBRANCH   1  13
TORSDOF 9
ENDMDL
MODEL 9
REMARK VINA RESULT:      -8.4      5.763     10.287
REMARK  Name = 6323526
REMARK  9 active torsions:
REMARK  status: ('A' for Active; 'I' for Inactive)
REMARK    1  A    between atoms: N_1  and  S_3
REMARK    2  A    between atoms: N_1  and  C_13
REMARK    3  A    between atoms: S_3  and  C_6
REMARK    4  A    between atoms: C_13  and  C_14
REMARK    5  A    between atoms: C_14  and  C_16
REMARK    6  A    between atoms: C_14  and  C_19
REMARK    7  A    between atoms: C_16  and  O_17
REMARK    8  A    between atoms: C_19  and  C_21
REMARK    9  A    between atoms: C_19  and  C_22
REMARK                            x       y       z     vdW  Elec       q    Type
REMARK                         _______ _______ _______ _____ _____    ______ ____
ROOT
ATOM      1  N   UNL     1      34.779 -16.713 -21.580  0.00  0.00    -0.179 NA
ATOM      2  H   UNL     1      35.419 -16.550 -20.803  0.00  0.00    +0.149 HD
ENDROOT
BRANCH   1   3
ATOM      3  S   UNL     1      35.301 -18.130 -22.359  0.00  0.00    +0.060 S 
ATOM      4  O   UNL     1      36.751 -18.167 -22.371  0.00  0.00    -0.153 OA
ATOM      5  O   UNL     1      34.557 -18.288 -23.594  0.00  0.00    -0.153 OA
BRANCH   3   6
ATOM      6  C   UNL     1      34.732 -19.384 -21.251  0.00  0.00    +0.122 C 
ATOM      7  C   UNL     1      33.375 -19.510 -21.012  0.00  0.00    +0.020 C 
ATOM      8  C   UNL     1      35.655 -20.217 -20.641  0.00  0.00    +0.020 C 
ATOM      9  C   UNL     1      33.841 -21.348 -19.516  0.00  0.00    -0.022 C 
ATOM     10  C   UNL     1      32.926 -20.500 -20.138  0.00  0.00    -0.003 C 
ATOM     11  C   UNL     1      35.206 -21.207 -19.768  0.00  0.00    -0.003 C 
ATOM     12  C   UNL     1      33.362 -22.407 -18.582  0.00  0.00    +0.031 C 
ENDBRANCH   3   6
ENDBRANCH   1   3
BRANCH   1  13
ATOM     13  C   UNL     1      34.693 -15.443 -22.337  0.00  0.00    +0.103 C 
BRANCH  13  14
ATOM     14  C   UNL     1      33.228 -15.124 -22.686  0.00  0.00    +0.124 C 
BRANCH  14  16
ATOM     15  O   UNL     1      32.781 -14.724 -20.324  0.00  0.00    -0.250 OA
ATOM     16  C   UNL     1      32.595 -14.415 -21.494  0.00  0.00    +0.315 C 
BRANCH  16  17
ATOM     17  O   UNL     1      31.785 -13.389 -21.859  0.00  0.00    -0.480 OA
ATOM     18  H   UNL     1      32.147 -12.629 -22.270  0.00  0.00    +0.295 HD
ENDBRANCH  16  17
ENDBRANCH  14  16
BRANCH  14  19
ATOM     19  C   UNL     1      33.081 -14.317 -23.998  0.00  0.00    +0.077 C 
BRANCH  19  21
ATOM     20  O   UNL     1      33.577 -11.956 -23.800  0.00  0.00    -0.288 OA
ATOM     21  C   UNL     1      33.984 -13.096 -24.007  0.00  0.00    +0.208 C 
ENDBRANCH  19  21
BRANCH  19  22
ATOM     22  C   UNL     1      33.362 -15.121 -25.279  0.00  0.00    +0.008 C 
ATOM     23  C   UNL     1      32.985 -14.378 -26.552  0.00  0.00    +0.000 C 
ENDBRANCH  19  22
ENDBRANCH  14  19
ENDBRANCH  13  14
ENDBRANCH   1  13
TORSDOF 9
ENDMDL
