MODEL 1
REMARK VINA RESULT:     -10.1      0.000      0.000
REMARK  Name = 18104
REMARK  9 active torsions:
REMARK  status: ('A' for Active; 'I' for Inactive)
REMARK    1  A    between atoms: N_2  and  C_19
REMARK    2  A    between atoms: C_9  and  C_16
REMARK    3  A    between atoms: C_16  and  C_17
REMARK    4  A    between atoms: C_19  and  C_20
REMARK    5  A    between atoms: C_20  and  C_21
REMARK    6  A    between atoms: C_21  and  N_22
REMARK    7  A    between atoms: N_23  and  C_30
REMARK    8  A    between atoms: C_30  and  C_31
REMARK    9  A    between atoms: C_31  and  O_32
REMARK                            x       y       z     vdW  Elec       q    Type
REMARK                         _______ _______ _______ _____ _____    ______ ____
ROOT
ATOM      1  S   UNL     1      37.897 -23.140 -15.117  0.00  0.00    -0.084 S 
ATOM      2  N   UNL     1      34.868 -23.823 -14.961  0.00  0.00    -0.286 N 
ATOM      3  C   UNL     1      35.283 -23.131 -16.127  0.00  0.00    +0.058 C 
ATOM      4  C   UNL     1      35.565 -23.831 -13.727  0.00  0.00    +0.058 C 
ATOM      5  C   UNL     1      36.626 -22.746 -16.303  0.00  0.00    +0.043 C 
ATOM      6  C   UNL     1      36.936 -23.515 -13.664  0.00  0.00    +0.043 C 
ATOM      7  C   UNL     1      34.373 -22.765 -17.144  0.00  0.00    +0.018 C 
ATOM      8  C   UNL     1      34.918 -24.118 -12.505  0.00  0.00    +0.015 C 
ATOM      9  C   UNL     1      34.780 -22.072 -18.286  0.00  0.00    +0.036 C 
ATOM     10  C   UNL     1      37.032 -22.052 -17.458  0.00  0.00    +0.008 C 
ATOM     11  C   UNL     1      37.621 -23.517 -12.436  0.00  0.00    +0.008 C 
ATOM     12  C   UNL     1      36.111 -21.719 -18.446  0.00  0.00    +0.003 C 
ATOM     13  C   UNL     1      35.602 -24.114 -11.285  0.00  0.00    +0.001 C 
ATOM     14  C   UNL     1      36.956 -23.817 -11.252  0.00  0.00    +0.001 C 
ENDROOT
BRANCH   9  16
ATOM     15  O   UNL     1      32.735 -22.356 -19.412  0.00  0.00    -0.291 OA
ATOM     16  C   UNL     1      33.810 -21.729 -19.314  0.00  0.00    +0.173 C 
BRANCH  16  17
ATOM     17  C   UNL     1      34.103 -20.582 -20.297  0.00  0.00    +0.069 C 
ATOM     18  C   UNL     1      32.862 -19.819 -20.729  0.00  0.00    +0.009 C 
ENDBRANCH  16  17
ENDBRANCH   9  16
BRANCH   2  19
ATOM     19  C   UNL     1      33.582 -24.531 -15.016  0.00  0.00    +0.093 C 
BRANCH  19  20
ATOM     20  C   UNL     1      32.474 -23.690 -14.383  0.00  0.00    -0.001 C 
BRANCH  20  21
ATOM     21  C   UNL     1      31.256 -24.491 -13.913  0.00  0.00    -0.076 C 
BRANCH  21  22
ATOM     22  N   UNL     1      30.039 -24.105 -14.625  0.00  0.00    +0.384 N 
ATOM     23  N   UNL     1      28.611 -23.152 -16.950  0.00  0.00    +0.386 N 
ATOM     24  C   UNL     1      30.099 -22.695 -15.032  0.00  0.00    -0.101 C 
ATOM     25  C   UNL     1      29.824 -24.967 -15.794  0.00  0.00    -0.101 C 
ATOM     26  C   UNL     1      28.825 -22.289 -15.782  0.00  0.00    -0.101 C 
ATOM     27  C   UNL     1      28.550 -24.560 -16.543  0.00  0.00    -0.101 C 
ATOM     28  H   UNL     1      29.251 -24.222 -13.989  0.00  0.00    -0.080 HD
ATOM     29  H   UNL     1      29.400 -23.035 -17.586  0.00  0.00    -0.080 HD
BRANCH  23  30
ATOM     30  C   UNL     1      27.395 -22.765 -17.664  0.00  0.00    -0.045 C 
BRANCH  30  31
ATOM     31  C   UNL     1      26.676 -21.644 -16.931  0.00  0.00    +0.115 C 
BRANCH  31  32
ATOM     32  O   UNL     1      26.276 -20.661 -17.878  0.00  0.00    -0.384 OA
ATOM     33  H   UNL     1      26.896 -20.659 -18.623  0.00  0.00    +0.210 HD
ENDBRANCH  31  32
ENDBRANCH  30  31
ENDBRANCH  23  30
ENDBRANCH  21  22
ENDBRANCH  20  21
ENDBRANCH  19  20
ENDBRANCH   2  19
TORSDOF 9
ENDMDL
MODEL 2
REMARK VINA RESULT:      -9.3      2.984      6.450
REMARK  Name = 18104
REMARK  9 active torsions:
REMARK  status: ('A' for Active; 'I' for Inactive)
REMARK    1  A    between atoms: N_2  and  C_19
REMARK    2  A    between atoms: C_9  and  C_16
REMARK    3  A    between atoms: C_16  and  C_17
REMARK    4  A    between atoms: C_19  and  C_20
REMARK    5  A    between atoms: C_20  and  C_21
REMARK    6  A    between atoms: C_21  and  N_22
REMARK    7  A    between atoms: N_23  and  C_30
REMARK    8  A    between atoms: C_30  and  C_31
REMARK    9  A    between atoms: C_31  and  O_32
REMARK                            x       y       z     vdW  Elec       q    Type
REMARK                         _______ _______ _______ _____ _____    ______ ____
ROOT
ATOM      1  S   UNL     1      35.635 -24.930 -12.644  0.00  0.00    -0.084 S 
ATOM      2  N   UNL     1      35.979 -23.157 -15.175  0.00  0.00    -0.286 N 
ATOM      3  C   UNL     1      34.644 -23.488 -14.832  0.00  0.00    +0.058 C 
ATOM      4  C   UNL     1      37.127 -23.885 -14.773  0.00  0.00    +0.058 C 
ATOM      5  C   UNL     1      34.361 -24.304 -13.720  0.00  0.00    +0.043 C 
ATOM      6  C   UNL     1      37.091 -24.741 -13.654  0.00  0.00    +0.043 C 
ATOM      7  C   UNL     1      33.543 -23.050 -15.602  0.00  0.00    +0.018 C 
ATOM      8  C   UNL     1      38.344 -23.817 -15.487  0.00  0.00    +0.015 C 
ATOM      9  C   UNL     1      32.228 -23.386 -15.272  0.00  0.00    +0.036 C 
ATOM     10  C   UNL     1      33.034 -24.636 -13.389  0.00  0.00    +0.008 C 
ATOM     11  C   UNL     1      38.231 -25.466 -13.264  0.00  0.00    +0.008 C 
ATOM     12  C   UNL     1      31.973 -24.176 -14.162  0.00  0.00    +0.003 C 
ATOM     13  C   UNL     1      39.473 -24.543 -15.098  0.00  0.00    +0.001 C 
ATOM     14  C   UNL     1      39.417 -25.366 -13.983  0.00  0.00    +0.001 C 
ENDROOT
BRANCH   9  16
ATOM     15  O   UNL     1      31.317 -22.518 -17.259  0.00  0.00    -0.291 OA
ATOM     16  C   UNL     1      31.126 -22.899 -16.086  0.00  0.00    +0.173 C 
BRANCH  16  17
ATOM     17  C   UNL     1      29.703 -22.850 -15.503  0.00  0.00    +0.069 C 
ATOM     18  C   UNL     1      28.745 -23.836 -16.152  0.00  0.00    +0.009 C 
ENDBRANCH  16  17
ENDBRANCH   9  16
BRANCH   2  19
ATOM     19  C   UNL     1      36.184 -22.012 -16.072  0.00  0.00    +0.093 C 
BRANCH  19  20
ATOM     20  C   UNL     1      35.740 -22.354 -17.494  0.00  0.00    -0.001 C 
BRANCH  20  21
ATOM     21  C   UNL     1      36.651 -21.801 -18.595  0.00  0.00    -0.076 C 
BRANCH  21  22
ATOM     22  N   UNL     1      36.038 -20.677 -19.300  0.00  0.00    +0.384 N 
ATOM     23  N   UNL     1      35.078 -19.344 -21.678  0.00  0.00    +0.386 N 
ATOM     24  C   UNL     1      36.968 -20.108 -20.282  0.00  0.00    -0.101 C 
ATOM     25  C   UNL     1      34.790 -21.090 -19.953  0.00  0.00    -0.101 C 
ATOM     26  C   UNL     1      36.326 -18.931 -21.025  0.00  0.00    -0.101 C 
ATOM     27  C   UNL     1      34.148 -19.911 -20.694  0.00  0.00    -0.101 C 
ATOM     28  H   UNL     1      35.818 -19.957 -18.612  0.00  0.00    -0.080 HD
ATOM     29  H   UNL     1      35.298 -20.065 -22.365  0.00  0.00    -0.080 HD
BRANCH  23  30
ATOM     30  C   UNL     1      34.465 -18.221 -22.384  0.00  0.00    -0.045 C 
BRANCH  30  31
ATOM     31  C   UNL     1      35.314 -17.810 -23.577  0.00  0.00    +0.115 C 
BRANCH  31  32
ATOM     32  O   UNL     1      35.750 -16.470 -23.388  0.00  0.00    -0.384 OA
ATOM     33  H   UNL     1      36.709 -16.459 -23.242  0.00  0.00    +0.210 HD
ENDBRANCH  31  32
ENDBRANCH  30  31
ENDBRANCH  23  30
ENDBRANCH  21  22
ENDBRANCH  20  21
ENDBRANCH  19  20
ENDBRANCH   2  19
TORSDOF 9
ENDMDL
MODEL 3
REMARK VINA RESULT:      -9.3      3.394      7.363
REMARK  Name = 18104
REMARK  9 active torsions:
REMARK  status: ('A' for Active; 'I' for Inactive)
REMARK    1  A    between atoms: N_2  and  C_19
REMARK    2  A    between atoms: C_9  and  C_16
REMARK    3  A    between atoms: C_16  and  C_17
REMARK    4  A    between atoms: C_19  and  C_20
REMARK    5  A    between atoms: C_20  and  C_21
REMARK    6  A    between atoms: C_21  and  N_22
REMARK    7  A    between atoms: N_23  and  C_30
REMARK    8  A    between atoms: C_30  and  C_31
REMARK    9  A    between atoms: C_31  and  O_32
REMARK                            x       y       z     vdW  Elec       q    Type
REMARK                         _______ _______ _______ _____ _____    ______ ____
ROOT
ATOM      1  S   UNL     1      32.132 -24.611 -13.351  0.00  0.00    -0.084 S 
ATOM      2  N   UNL     1      33.192 -23.796 -16.158  0.00  0.00    -0.286 N 
ATOM      3  C   UNL     1      34.183 -24.050 -15.176  0.00  0.00    +0.058 C 
ATOM      4  C   UNL     1      31.845 -23.451 -15.885  0.00  0.00    +0.058 C 
ATOM      5  C   UNL     1      33.827 -24.406 -13.860  0.00  0.00    +0.043 C 
ATOM      6  C   UNL     1      31.256 -23.746 -14.639  0.00  0.00    +0.043 C 
ATOM      7  C   UNL     1      35.562 -23.927 -15.455  0.00  0.00    +0.018 C 
ATOM      8  C   UNL     1      31.043 -22.767 -16.826  0.00  0.00    +0.015 C 
ATOM      9  C   UNL     1      36.538 -24.166 -14.485  0.00  0.00    +0.036 C 
ATOM     10  C   UNL     1      34.814 -24.649 -12.888  0.00  0.00    +0.008 C 
ATOM     11  C   UNL     1      29.921 -23.394 -14.371  0.00  0.00    +0.008 C 
ATOM     12  C   UNL     1      36.164 -24.531 -13.201  0.00  0.00    +0.003 C 
ATOM     13  C   UNL     1      29.718 -22.415 -16.552  0.00  0.00    +0.001 C 
ATOM     14  C   UNL     1      29.156 -22.733 -15.325  0.00  0.00    +0.001 C 
ENDROOT
BRANCH   9  16
ATOM     15  O   UNL     1      38.328 -23.213 -15.676  0.00  0.00    -0.291 OA
ATOM     16  C   UNL     1      37.947 -24.041 -14.823  0.00  0.00    +0.173 C 
BRANCH  16  17
ATOM     17  C   UNL     1      38.987 -24.935 -14.125  0.00  0.00    +0.069 C 
ATOM     18  C   UNL     1      40.112 -25.388 -15.041  0.00  0.00    +0.009 C 
ENDBRANCH  16  17
ENDBRANCH   9  16
BRANCH   2  19
ATOM     19  C   UNL     1      33.610 -23.826 -17.565  0.00  0.00    +0.093 C 
BRANCH  19  20
ATOM     20  C   UNL     1      34.115 -22.453 -18.008  0.00  0.00    -0.001 C 
BRANCH  20  21
ATOM     21  C   UNL     1      33.518 -21.950 -19.326  0.00  0.00    -0.076 C 
BRANCH  21  22
ATOM     22  N   UNL     1      34.171 -20.728 -19.792  0.00  0.00    +0.384 N 
ATOM     23  N   UNL     1      35.448 -19.101 -21.811  0.00  0.00    +0.386 N 
ATOM     24  C   UNL     1      35.539 -21.009 -20.243  0.00  0.00    -0.101 C 
ATOM     25  C   UNL     1      33.395 -20.100 -20.868  0.00  0.00    -0.101 C 
ATOM     26  C   UNL     1      36.226 -19.729 -20.735  0.00  0.00    -0.101 C 
ATOM     27  C   UNL     1      34.081 -18.820 -21.359  0.00  0.00    -0.101 C 
ATOM     28  H   UNL     1      34.219 -20.078 -19.008  0.00  0.00    -0.080 HD
ATOM     29  H   UNL     1      35.400 -19.752 -22.595  0.00  0.00    -0.080 HD
BRANCH  23  30
ATOM     30  C   UNL     1      36.102 -17.880 -22.279  0.00  0.00    -0.045 C 
BRANCH  30  31
ATOM     31  C   UNL     1      35.077 -16.786 -22.533  0.00  0.00    +0.115 C 
BRANCH  31  32
ATOM     32  O   UNL     1      35.552 -15.952 -23.582  0.00  0.00    -0.384 OA
ATOM     33  H   UNL     1      34.991 -16.066 -24.365  0.00  0.00    +0.210 HD
ENDBRANCH  31  32
ENDBRANCH  30  31
ENDBRANCH  23  30
ENDBRANCH  21  22
ENDBRANCH  20  21
ENDBRANCH  19  20
ENDBRANCH   2  19
TORSDOF 9
ENDMDL
MODEL 4
REMARK VINA RESULT:      -9.0      2.829      6.371
REMARK  Name = 18104
REMARK  9 active torsions:
REMARK  status: ('A' for Active; 'I' for Inactive)
REMARK    1  A    between atoms: N_2  and  C_19
REMARK    2  A    between atoms: C_9  and  C_16
REMARK    3  A    between atoms: C_16  and  C_17
REMARK    4  A    between atoms: C_19  and  C_20
REMARK    5  A    between atoms: C_20  and  C_21
REMARK    6  A    between atoms: C_21  and  N_22
REMARK    7  A    between atoms: N_23  and  C_30
REMARK    8  A    between atoms: C_30  and  C_31
REMARK    9  A    between atoms: C_31  and  O_32
REMARK                            x       y       z     vdW  Elec       q    Type
REMARK                         _______ _______ _______ _____ _____    ______ ____
ROOT
ATOM      1  S   UNL     1      34.469 -23.909 -12.297  0.00  0.00    -0.084 S 
ATOM      2  N   UNL     1      34.775 -23.905 -15.391  0.00  0.00    -0.286 N 
ATOM      3  C   UNL     1      33.468 -23.659 -14.902  0.00  0.00    +0.058 C 
ATOM      4  C   UNL     1      35.803 -24.565 -14.672  0.00  0.00    +0.058 C 
ATOM      5  C   UNL     1      33.198 -23.658 -13.519  0.00  0.00    +0.043 C 
ATOM      6  C   UNL     1      35.765 -24.655 -13.266  0.00  0.00    +0.043 C 
ATOM      7  C   UNL     1      32.373 -23.440 -15.768  0.00  0.00    +0.018 C 
ATOM      8  C   UNL     1      36.888 -25.193 -15.324  0.00  0.00    +0.015 C 
ATOM      9  C   UNL     1      31.082 -23.209 -15.287  0.00  0.00    +0.036 C 
ATOM     10  C   UNL     1      31.897 -23.420 -13.039  0.00  0.00    +0.008 C 
ATOM     11  C   UNL     1      36.784 -25.318 -12.559  0.00  0.00    +0.008 C 
ATOM     12  C   UNL     1      30.844 -23.195 -13.921  0.00  0.00    +0.003 C 
ATOM     13  C   UNL     1      37.895 -25.855 -14.616  0.00  0.00    +0.001 C 
ATOM     14  C   UNL     1      37.844 -25.914 -13.232  0.00  0.00    +0.001 C 
ENDROOT
BRANCH   9  16
ATOM     15  O   UNL     1      30.172 -22.322 -17.265  0.00  0.00    -0.291 OA
ATOM     16  C   UNL     1      29.989 -22.974 -16.216  0.00  0.00    +0.173 C 
BRANCH  16  17
ATOM     17  C   UNL     1      28.588 -23.531 -15.912  0.00  0.00    +0.069 C 
ATOM     18  C   UNL     1      27.490 -22.481 -15.967  0.00  0.00    +0.009 C 
ENDBRANCH  16  17
ENDBRANCH   9  16
BRANCH   2  19
ATOM     19  C   UNL     1      35.067 -23.506 -16.774  0.00  0.00    +0.093 C 
BRANCH  19  20
ATOM     20  C   UNL     1      35.844 -22.190 -16.804  0.00  0.00    -0.001 C 
BRANCH  20  21
ATOM     21  C   UNL     1      36.605 -21.930 -18.109  0.00  0.00    -0.076 C 
BRANCH  21  22
ATOM     22  N   UNL     1      35.963 -20.898 -18.920  0.00  0.00    +0.384 N 
ATOM     23  N   UNL     1      35.044 -19.798 -21.430  0.00  0.00    +0.386 N 
ATOM     24  C   UNL     1      36.906 -20.344 -19.900  0.00  0.00    -0.101 C 
ATOM     25  C   UNL     1      34.774 -21.431 -19.596  0.00  0.00    -0.101 C 
ATOM     26  C   UNL     1      36.233 -19.264 -20.754  0.00  0.00    -0.101 C 
ATOM     27  C   UNL     1      34.102 -20.350 -20.449  0.00  0.00    -0.101 C 
ATOM     28  H   UNL     1      35.669 -20.145 -18.297  0.00  0.00    -0.080 HD
ATOM     29  H   UNL     1      35.339 -20.551 -22.052  0.00  0.00    -0.080 HD
BRANCH  23  30
ATOM     30  C   UNL     1      34.402 -18.767 -22.243  0.00  0.00    -0.045 C 
BRANCH  30  31
ATOM     31  C   UNL     1      35.437 -17.799 -22.796  0.00  0.00    +0.115 C 
BRANCH  31  32
ATOM     32  O   UNL     1      35.536 -17.991 -24.202  0.00  0.00    -0.384 OA
ATOM     33  H   UNL     1      35.312 -17.165 -24.658  0.00  0.00    +0.210 HD
ENDBRANCH  31  32
ENDBRANCH  30  31
ENDBRANCH  23  30
ENDBRANCH  21  22
ENDBRANCH  20  21
ENDBRANCH  19  20
ENDBRANCH   2  19
TORSDOF 9
ENDMDL
MODEL 5
REMARK VINA RESULT:      -9.0     12.588     16.562
REMARK  Name = 18104
REMARK  9 active torsions:
REMARK  status: ('A' for Active; 'I' for Inactive)
REMARK    1  A    between atoms: N_2  and  C_19
REMARK    2  A    between atoms: C_9  and  C_16
REMARK    3  A    between atoms: C_16  and  C_17
REMARK    4  A    between atoms: C_19  and  C_20
REMARK    5  A    between atoms: C_20  and  C_21
REMARK    6  A    between atoms: C_21  and  N_22
REMARK    7  A    between atoms: N_23  and  C_30
REMARK    8  A    between atoms: C_30  and  C_31
REMARK    9  A    between atoms: C_31  and  O_32
REMARK                            x       y       z     vdW  Elec       q    Type
REMARK                         _______ _______ _______ _____ _____    ______ ____
ROOT
ATOM      1  S   UNL     1      32.177  -7.569 -19.858  0.00  0.00    -0.084 S 
ATOM      2  N   UNL     1      32.231  -8.779 -22.722  0.00  0.00    -0.286 N 
ATOM      3  C   UNL     1      31.985  -7.385 -22.648  0.00  0.00    +0.058 C 
ATOM      4  C   UNL     1      32.014  -9.701 -21.668  0.00  0.00    +0.058 C 
ATOM      5  C   UNL     1      31.915  -6.725 -21.405  0.00  0.00    +0.043 C 
ATOM      6  C   UNL     1      31.945  -9.272 -20.328  0.00  0.00    +0.043 C 
ATOM      7  C   UNL     1      31.766  -6.601 -23.802  0.00  0.00    +0.018 C 
ATOM      8  C   UNL     1      31.820 -11.080 -21.909  0.00  0.00    +0.015 C 
ATOM      9  C   UNL     1      31.512  -5.229 -23.729  0.00  0.00    +0.036 C 
ATOM     10  C   UNL     1      31.663  -5.342 -21.337  0.00  0.00    +0.008 C 
ATOM     11  C   UNL     1      31.721 -10.191 -19.287  0.00  0.00    +0.008 C 
ATOM     12  C   UNL     1      31.464  -4.598 -22.495  0.00  0.00    +0.003 C 
ATOM     13  C   UNL     1      31.593 -11.988 -20.871  0.00  0.00    +0.001 C 
ATOM     14  C   UNL     1      31.547 -11.543 -19.559  0.00  0.00    +0.001 C 
ENDROOT
BRANCH   9  16
ATOM     15  O   UNL     1      30.363  -3.648 -25.037  0.00  0.00    -0.291 OA
ATOM     16  C   UNL     1      31.306  -4.460 -24.946  0.00  0.00    +0.173 C 
BRANCH  16  17
ATOM     17  C   UNL     1      32.259  -4.642 -26.141  0.00  0.00    +0.069 C 
ATOM     18  C   UNL     1      32.595  -3.343 -26.855  0.00  0.00    +0.009 C 
ENDBRANCH  16  17
ENDBRANCH   9  16
BRANCH   2  19
ATOM     19  C   UNL     1      32.682  -9.319 -24.011  0.00  0.00    +0.093 C 
BRANCH  19  20
ATOM     20  C   UNL     1      34.201  -9.490 -24.024  0.00  0.00    -0.001 C 
BRANCH  20  21
ATOM     21  C   UNL     1      34.741 -10.294 -25.211  0.00  0.00    -0.076 C 
BRANCH  21  22
ATOM     22  N   UNL     1      33.935 -11.483 -25.478  0.00  0.00    +0.384 N 
ATOM     23  N   UNL     1      33.609 -14.306 -26.008  0.00  0.00    +0.386 N 
ATOM     24  C   UNL     1      34.270 -12.057 -26.787  0.00  0.00    -0.101 C 
ATOM     25  C   UNL     1      34.115 -12.484 -24.419  0.00  0.00    -0.101 C 
ATOM     26  C   UNL     1      33.428 -13.307 -27.068  0.00  0.00    -0.101 C 
ATOM     27  C   UNL     1      33.272 -13.733 -24.700  0.00  0.00    -0.101 C 
ATOM     28  H   UNL     1      32.954 -11.203 -25.492  0.00  0.00    -0.080 HD
ATOM     29  H   UNL     1      34.590 -14.586 -25.994  0.00  0.00    -0.080 HD
BRANCH  23  30
ATOM     30  C   UNL     1      32.804 -15.497 -26.275  0.00  0.00    -0.045 C 
BRANCH  30  31
ATOM     31  C   UNL     1      33.437 -16.725 -25.639  0.00  0.00    +0.115 C 
BRANCH  31  32
ATOM     32  O   UNL     1      34.832 -16.716 -25.916  0.00  0.00    -0.384 OA
ATOM     33  H   UNL     1      34.976 -16.888 -26.859  0.00  0.00    +0.210 HD
ENDBRANCH  31  32
ENDBRANCH  30  31
ENDBRANCH  23  30
ENDBRANCH  21  22
ENDBRANCH  20  21
ENDBRANCH  19  20
ENDBRANCH   2  19
TORSDOF 9
ENDMDL
MODEL 6
REMARK VINA RESULT:      -9.0     11.873     15.851
REMARK  Name = 18104
REMARK  9 active torsions:
REMARK  status: ('A' for Active; 'I' for Inactive)
REMARK    1  A    between atoms: N_2  and  C_19
REMARK    2  A    between atoms: C_9  and  C_16
REMARK    3  A    between atoms: C_16  and  C_17
REMARK    4  A    between atoms: C_19  and  C_20
REMARK    5  A    between atoms: C_20  and  C_21
REMARK    6  A    between atoms: C_21  and  N_22
REMARK    7  A    between atoms: N_23  and  C_30
REMARK    8  A    between atoms: C_30  and  C_31
REMARK    9  A    between atoms: C_31  and  O_32
REMARK                            x       y       z     vdW  Elec       q    Type
REMARK                         _______ _______ _______ _____ _____    ______ ____
ROOT
ATOM      1  S   UNL     1      32.425  -7.655 -19.886  0.00  0.00    -0.084 S 
ATOM      2  N   UNL     1      32.070  -8.998 -22.668  0.00  0.00    -0.286 N 
ATOM      3  C   UNL     1      31.969  -7.584 -22.650  0.00  0.00    +0.058 C 
ATOM      4  C   UNL     1      31.872  -9.843 -21.547  0.00  0.00    +0.058 C 
ATOM      5  C   UNL     1      32.089  -6.863 -21.446  0.00  0.00    +0.043 C 
ATOM      6  C   UNL     1      31.982  -9.346 -20.234  0.00  0.00    +0.043 C 
ATOM      7  C   UNL     1      31.711  -6.837 -23.821  0.00  0.00    +0.018 C 
ATOM      8  C   UNL     1      31.521 -11.204 -21.690  0.00  0.00    +0.015 C 
ATOM      9  C   UNL     1      31.599  -5.445 -23.802  0.00  0.00    +0.036 C 
ATOM     10  C   UNL     1      31.981  -5.460 -21.433  0.00  0.00    +0.008 C 
ATOM     11  C   UNL     1      31.777 -10.187 -19.125  0.00  0.00    +0.008 C 
ATOM     12  C   UNL     1      31.739  -4.755 -22.607  0.00  0.00    +0.003 C 
ATOM     13  C   UNL     1      31.314 -12.035 -20.585  0.00  0.00    +0.001 C 
ATOM     14  C   UNL     1      31.445 -11.526 -19.302  0.00  0.00    +0.001 C 
ENDROOT
BRANCH   9  16
ATOM     15  O   UNL     1      30.316  -4.026 -25.170  0.00  0.00    -0.291 OA
ATOM     16  C   UNL     1      31.347  -4.717 -25.035  0.00  0.00    +0.173 C 
BRANCH  16  17
ATOM     17  C   UNL     1      32.358  -4.792 -26.193  0.00  0.00    +0.069 C 
ATOM     18  C   UNL     1      32.418  -3.526 -27.032  0.00  0.00    +0.009 C 
ENDBRANCH  16  17
ENDBRANCH   9  16
BRANCH   2  19
ATOM     19  C   UNL     1      32.332  -9.641 -23.962  0.00  0.00    +0.093 C 
BRANCH  19  20
ATOM     20  C   UNL     1      33.609 -10.480 -23.899  0.00  0.00    -0.001 C 
BRANCH  20  21
ATOM     21  C   UNL     1      33.711 -11.565 -24.976  0.00  0.00    -0.076 C 
BRANCH  21  22
ATOM     22  N   UNL     1      34.118 -12.853 -24.418  0.00  0.00    +0.384 N 
ATOM     23  N   UNL     1      33.617 -15.306 -22.972  0.00  0.00    +0.386 N 
ATOM     24  C   UNL     1      33.965 -12.860 -22.958  0.00  0.00    -0.101 C 
ATOM     25  C   UNL     1      33.347 -13.949 -25.019  0.00  0.00    -0.101 C 
ATOM     26  C   UNL     1      34.388 -14.211 -22.370  0.00  0.00    -0.101 C 
ATOM     27  C   UNL     1      33.771 -15.300 -24.432  0.00  0.00    -0.101 C 
ATOM     28  H   UNL     1      35.104 -12.995 -24.638  0.00  0.00    -0.080 HD
ATOM     29  H   UNL     1      32.631 -15.163 -22.752  0.00  0.00    -0.080 HD
BRANCH  23  30
ATOM     30  C   UNL     1      34.021 -16.594 -22.412  0.00  0.00    -0.045 C 
BRANCH  30  31
ATOM     31  C   UNL     1      34.714 -16.403 -21.072  0.00  0.00    +0.115 C 
BRANCH  31  32
ATOM     32  O   UNL     1      35.385 -17.609 -20.729  0.00  0.00    -0.384 OA
ATOM     33  H   UNL     1      35.328 -17.749 -19.771  0.00  0.00    +0.210 HD
ENDBRANCH  31  32
ENDBRANCH  30  31
ENDBRANCH  23  30
ENDBRANCH  21  22
ENDBRANCH  20  21
ENDBRANCH  19  20
ENDBRANCH   2  19
TORSDOF 9
ENDMDL
MODEL 7
REMARK VINA RESULT:      -8.9     10.186     13.957
REMARK  Name = 18104
REMARK  9 active torsions:
REMARK  status: ('A' for Active; 'I' for Inactive)
REMARK    1  A    between atoms: N_2  and  C_19
REMARK    2  A    between atoms: C_9  and  C_16
REMARK    3  A    between atoms: C_16  and  C_17
REMARK    4  A    between atoms: C_19  and  C_20
REMARK    5  A    between atoms: C_20  and  C_21
REMARK    6  A    between atoms: C_21  and  N_22
REMARK    7  A    between atoms: N_23  and  C_30
REMARK    8  A    between atoms: C_30  and  C_31
REMARK    9  A    between atoms: C_31  and  O_32
REMARK                            x       y       z     vdW  Elec       q    Type
REMARK                         _______ _______ _______ _____ _____    ______ ____
ROOT
ATOM      1  S   UNL     1      34.534 -16.457 -21.178  0.00  0.00    -0.084 S 
ATOM      2  N   UNL     1      33.650 -14.727 -23.605  0.00  0.00    -0.286 N 
ATOM      3  C   UNL     1      33.186 -14.292 -22.339  0.00  0.00    +0.058 C 
ATOM      4  C   UNL     1      34.069 -16.046 -23.910  0.00  0.00    +0.058 C 
ATOM      5  C   UNL     1      33.501 -15.006 -21.166  0.00  0.00    +0.043 C 
ATOM      6  C   UNL     1      34.471 -16.935 -22.893  0.00  0.00    +0.043 C 
ATOM      7  C   UNL     1      32.364 -13.152 -22.194  0.00  0.00    +0.018 C 
ATOM      8  C   UNL     1      34.069 -16.544 -25.232  0.00  0.00    +0.015 C 
ATOM      9  C   UNL     1      31.897 -12.730 -20.947  0.00  0.00    +0.036 C 
ATOM     10  C   UNL     1      33.031 -14.574 -19.912  0.00  0.00    +0.008 C 
ATOM     11  C   UNL     1      34.878 -18.246 -23.201  0.00  0.00    +0.008 C 
ATOM     12  C   UNL     1      32.234 -13.439 -19.804  0.00  0.00    +0.003 C 
ATOM     13  C   UNL     1      34.470 -17.849 -25.532  0.00  0.00    +0.001 C 
ATOM     14  C   UNL     1      34.878 -18.699 -24.516  0.00  0.00    +0.001 C 
ENDROOT
BRANCH   9  16
ATOM     15  O   UNL     1      30.319 -11.201 -21.786  0.00  0.00    -0.291 OA
ATOM     16  C   UNL     1      31.065 -11.541 -20.844  0.00  0.00    +0.173 C 
BRANCH  16  17
ATOM     17  C   UNL     1      31.098 -10.687 -19.565  0.00  0.00    +0.069 C 
ATOM     18  C   UNL     1      31.978  -9.453 -19.680  0.00  0.00    +0.009 C 
ENDBRANCH  16  17
ENDBRANCH   9  16
BRANCH   2  19
ATOM     19  C   UNL     1      33.632 -13.752 -24.704  0.00  0.00    +0.093 C 
BRANCH  19  20
ATOM     20  C   UNL     1      34.139 -12.391 -24.228  0.00  0.00    -0.001 C 
BRANCH  20  21
ATOM     21  C   UNL     1      34.249 -11.332 -25.330  0.00  0.00    -0.076 C 
BRANCH  21  22
ATOM     22  N   UNL     1      33.842 -10.009 -24.859  0.00  0.00    +0.384 N 
ATOM     23  N   UNL     1      33.388  -8.040 -22.793  0.00  0.00    +0.386 N 
ATOM     24  C   UNL     1      32.694 -10.111 -23.949  0.00  0.00    -0.101 C 
ATOM     25  C   UNL     1      34.960  -9.323 -24.201  0.00  0.00    -0.101 C 
ATOM     26  C   UNL     1      32.268  -8.725 -23.452  0.00  0.00    -0.101 C 
ATOM     27  C   UNL     1      34.533  -7.937 -23.705  0.00  0.00    -0.101 C 
ATOM     28  H   UNL     1      33.560  -9.459 -25.671  0.00  0.00    -0.080 HD
ATOM     29  H   UNL     1      33.669  -8.591 -21.983  0.00  0.00    -0.080 HD
BRANCH  23  30
ATOM     30  C   UNL     1      32.980  -6.718 -22.320  0.00  0.00    -0.045 C 
BRANCH  30  31
ATOM     31  C   UNL     1      31.481  -6.676 -22.071  0.00  0.00    +0.115 C 
BRANCH  31  32
ATOM     32  O   UNL     1      31.208  -5.672 -21.101  0.00  0.00    -0.384 OA
ATOM     33  H   UNL     1      30.309  -5.790 -20.757  0.00  0.00    +0.210 HD
ENDBRANCH  31  32
ENDBRANCH  30  31
ENDBRANCH  23  30
ENDBRANCH  21  22
ENDBRANCH  20  21
ENDBRANCH  19  20
ENDBRANCH   2  19
TORSDOF 9
ENDMDL
MODEL 8
REMARK VINA RESULT:      -8.8     10.194     13.302
REMARK  Name = 18104
REMARK  9 active torsions:
REMARK  status: ('A' for Active; 'I' for Inactive)
REMARK    1  A    between atoms: N_2  and  C_19
REMARK    2  A    between atoms: C_9  and  C_16
REMARK    3  A    between atoms: C_16  and  C_17
REMARK    4  A    between atoms: C_19  and  C_20
REMARK    5  A    between atoms: C_20  and  C_21
REMARK    6  A    between atoms: C_21  and  N_22
REMARK    7  A    between atoms: N_23  and  C_30
REMARK    8  A    between atoms: C_30  and  C_31
REMARK    9  A    between atoms: C_31  and  O_32
REMARK                            x       y       z     vdW  Elec       q    Type
REMARK                         _______ _______ _______ _____ _____    ______ ____
ROOT
ATOM      1  S   UNL     1      33.560 -15.941 -25.525  0.00  0.00    -0.084 S 
ATOM      2  N   UNL     1      34.160 -14.607 -22.781  0.00  0.00    -0.286 N 
ATOM      3  C   UNL     1      33.907 -13.718 -23.855  0.00  0.00    +0.058 C 
ATOM      4  C   UNL     1      34.592 -15.950 -22.919  0.00  0.00    +0.058 C 
ATOM      5  C   UNL     1      33.646 -14.201 -25.152  0.00  0.00    +0.043 C 
ATOM      6  C   UNL     1      34.398 -16.655 -24.124  0.00  0.00    +0.043 C 
ATOM      7  C   UNL     1      33.940 -12.315 -23.689  0.00  0.00    +0.018 C 
ATOM      8  C   UNL     1      35.264 -16.630 -21.880  0.00  0.00    +0.015 C 
ATOM      9  C   UNL     1      33.704 -11.438 -24.750  0.00  0.00    +0.036 C 
ATOM     10  C   UNL     1      33.404 -13.314 -26.217  0.00  0.00    +0.008 C 
ATOM     11  C   UNL     1      34.836 -17.985 -24.258  0.00  0.00    +0.008 C 
ATOM     12  C   UNL     1      33.431 -11.938 -26.015  0.00  0.00    +0.003 C 
ATOM     13  C   UNL     1      35.702 -17.951 -22.020  0.00  0.00    +0.001 C 
ATOM     14  C   UNL     1      35.484 -18.629 -23.210  0.00  0.00    +0.001 C 
ENDROOT
BRANCH   9  16
ATOM     15  O   UNL     1      32.677  -9.336 -24.509  0.00  0.00    -0.291 OA
ATOM     16  C   UNL     1      33.733 -10.001 -24.529  0.00  0.00    +0.173 C 
BRANCH  16  17
ATOM     17  C   UNL     1      35.078  -9.284 -24.314  0.00  0.00    +0.069 C 
ATOM     18  C   UNL     1      34.939  -7.905 -23.688  0.00  0.00    +0.009 C 
ENDBRANCH  16  17
ENDBRANCH   9  16
BRANCH   2  19
ATOM     19  C   UNL     1      34.029 -14.076 -21.418  0.00  0.00    +0.093 C 
BRANCH  19  20
ATOM     20  C   UNL     1      32.664 -14.431 -20.828  0.00  0.00    -0.001 C 
BRANCH  20  21
ATOM     21  C   UNL     1      31.572 -13.386 -21.076  0.00  0.00    -0.076 C 
BRANCH  21  22
ATOM     22  N   UNL     1      32.034 -12.032 -20.780  0.00  0.00    +0.384 N 
ATOM     23  N   UNL     1      31.603  -9.262 -20.073  0.00  0.00    +0.386 N 
ATOM     24  C   UNL     1      31.492 -11.073 -21.751  0.00  0.00    -0.101 C 
ATOM     25  C   UNL     1      31.665 -11.642 -19.413  0.00  0.00    -0.101 C 
ATOM     26  C   UNL     1      31.972  -9.651 -21.440  0.00  0.00    -0.101 C 
ATOM     27  C   UNL     1      32.146 -10.220 -19.103  0.00  0.00    -0.101 C 
ATOM     28  H   UNL     1      33.051 -12.022 -20.854  0.00  0.00    -0.080 HD
ATOM     29  H   UNL     1      30.586  -9.272 -20.000  0.00  0.00    -0.080 HD
BRANCH  23  30
ATOM     30  C   UNL     1      32.063  -7.906 -19.777  0.00  0.00    -0.045 C 
BRANCH  30  31
ATOM     31  C   UNL     1      32.252  -7.112 -21.060  0.00  0.00    +0.115 C 
BRANCH  31  32
ATOM     32  O   UNL     1      31.692  -5.817 -20.882  0.00  0.00    -0.384 OA
ATOM     33  H   UNL     1      31.997  -5.232 -21.593  0.00  0.00    +0.210 HD
ENDBRANCH  31  32
ENDBRANCH  30  31
ENDBRANCH  23  30
ENDBRANCH  21  22
ENDBRANCH  20  21
ENDBRANCH  19  20
ENDBRANCH   2  19
TORSDOF 9
ENDMDL
MODEL 9
REMARK VINA RESULT:      -8.6      2.098      5.136
REMARK  Name = 18104
REMARK  9 active torsions:
REMARK  status: ('A' for Active; 'I' for Inactive)
REMARK    1  A    between atoms: N_2  and  C_19
REMARK    2  A    between atoms: C_9  and  C_16
REMARK    3  A    between atoms: C_16  and  C_17
REMARK    4  A    between atoms: C_19  and  C_20
REMARK    5  A    between atoms: C_20  and  C_21
REMARK    6  A    between atoms: C_21  and  N_22
REMARK    7  A    between atoms: N_23  and  C_30
REMARK    8  A    between atoms: C_30  and  C_31
REMARK    9  A    between atoms: C_31  and  O_32
REMARK                            x       y       z     vdW  Elec       q    Type
REMARK                         _______ _______ _______ _____ _____    ______ ____
ROOT
ATOM      1  S   UNL     1      37.193 -21.436 -17.308  0.00  0.00    -0.084 S 
ATOM      2  N   UNL     1      34.720 -23.208 -16.666  0.00  0.00    -0.286 N 
ATOM      3  C   UNL     1      35.926 -23.576 -16.017  0.00  0.00    +0.058 C 
ATOM      4  C   UNL     1      34.636 -22.443 -17.856  0.00  0.00    +0.058 C 
ATOM      5  C   UNL     1      37.119 -22.864 -16.245  0.00  0.00    +0.043 C 
ATOM      6  C   UNL     1      35.702 -21.619 -18.267  0.00  0.00    +0.043 C 
ATOM      7  C   UNL     1      35.998 -24.686 -15.146  0.00  0.00    +0.018 C 
ATOM      8  C   UNL     1      33.505 -22.496 -18.701  0.00  0.00    +0.015 C 
ATOM      9  C   UNL     1      37.189 -25.056 -14.516  0.00  0.00    +0.036 C 
ATOM     10  C   UNL     1      38.315 -23.238 -15.605  0.00  0.00    +0.008 C 
ATOM     11  C   UNL     1      35.616 -20.868 -19.453  0.00  0.00    +0.008 C 
ATOM     12  C   UNL     1      38.348 -24.329 -14.742  0.00  0.00    +0.003 C 
ATOM     13  C   UNL     1      33.427 -21.752 -19.881  0.00  0.00    +0.001 C 
ATOM     14  C   UNL     1      34.482 -20.934 -20.255  0.00  0.00    +0.001 C 
ENDROOT
BRANCH   9  16
ATOM     15  O   UNL     1      37.245 -27.362 -14.061  0.00  0.00    -0.291 OA
ATOM     16  C   UNL     1      37.212 -26.197 -13.615  0.00  0.00    +0.173 C 
BRANCH  16  17
ATOM     17  C   UNL     1      37.198 -25.975 -12.092  0.00  0.00    +0.069 C 
ATOM     18  C   UNL     1      36.307 -24.824 -11.653  0.00  0.00    +0.009 C 
ENDBRANCH  16  17
ENDBRANCH   9  16
BRANCH   2  19
ATOM     19  C   UNL     1      33.464 -23.716 -16.098  0.00  0.00    +0.093 C 
BRANCH  19  20
ATOM     20  C   UNL     1      33.279 -23.220 -14.664  0.00  0.00    -0.001 C 
BRANCH  20  21
ATOM     21  C   UNL     1      32.289 -24.039 -13.829  0.00  0.00    -0.076 C 
BRANCH  21  22
ATOM     22  N   UNL     1      30.907 -23.820 -14.250  0.00  0.00    +0.384 N 
ATOM     23  N   UNL     1      28.861 -23.393 -16.247  0.00  0.00    +0.386 N 
ATOM     24  C   UNL     1      30.770 -22.530 -14.938  0.00  0.00    -0.101 C 
ATOM     25  C   UNL     1      30.446 -24.913 -15.115  0.00  0.00    -0.101 C 
ATOM     26  C   UNL     1      29.321 -22.299 -15.383  0.00  0.00    -0.101 C 
ATOM     27  C   UNL     1      28.997 -24.682 -15.559  0.00  0.00    -0.101 C 
ATOM     28  H   UNL     1      30.322 -23.802 -13.415  0.00  0.00    -0.080 HD
ATOM     29  H   UNL     1      29.447 -23.411 -17.082  0.00  0.00    -0.080 HD
BRANCH  23  30
ATOM     30  C   UNL     1      27.479 -23.173 -16.671  0.00  0.00    -0.045 C 
BRANCH  30  31
ATOM     31  C   UNL     1      26.805 -22.140 -15.783  0.00  0.00    +0.115 C 
BRANCH  31  32
ATOM     32  O   UNL     1      25.583 -21.742 -16.393  0.00  0.00    -0.384 OA
ATOM     33  H   UNL     1      24.921 -21.566 -15.706  0.00  0.00    +0.210 HD
ENDBRANCH  31  32
ENDBRANCH  30  31
ENDBRANCH  23  30
ENDBRANCH  21  22
ENDBRANCH  20  21
ENDBRANCH  19  20
ENDBRANCH   2  19
TORSDOF 9
ENDMDL
