MODEL 1
REMARK VINA RESULT:      -7.4      0.000      0.000
REMARK  Name = 657081
REMARK  2 active torsions:
REMARK  status: ('A' for Active; 'I' for Inactive)
REMARK    1  A    between atoms: C_5  and  C_13
REMARK    2  A    between atoms: C_6  and  O_16
REMARK                            x       y       z     vdW  Elec       q    Type
REMARK                         _______ _______ _______ _____ _____    ______ ____
ROOT
ATOM      1  F   UNL     1      35.067 -16.491 -20.388  0.00  0.00    -0.201 F 
ATOM      2  F   UNL     1      34.972 -19.912 -23.683  0.00  0.00    -0.201 F 
ATOM      3  F   UNL     1      34.747 -14.615 -22.331  0.00  0.00    -0.198 F 
ATOM      4  F   UNL     1      34.651 -18.031 -25.621  0.00  0.00    -0.198 F 
ATOM      5  C   UNL     1      35.024 -18.227 -22.009  0.00  0.00    +0.113 A 
ATOM      6  C   UNL     1      34.695 -16.301 -23.999  0.00  0.00    +0.198 A 
ATOM      7  C   UNL     1      34.966 -16.876 -21.669  0.00  0.00    +0.177 A 
ATOM      8  C   UNL     1      34.917 -18.615 -23.345  0.00  0.00    +0.177 A 
ATOM      9  C   UNL     1      34.801 -15.912 -22.664  0.00  0.00    +0.204 A 
ATOM     10  C   UNL     1      34.752 -17.651 -24.340  0.00  0.00    +0.204 A 
ENDROOT
BRANCH   5  13
ATOM     11  O   UNL     1      34.238 -19.917 -20.570  0.00  0.00    -0.270 OA
ATOM     12  N   UNL     1      36.473 -19.416 -20.452  0.00  0.00    -0.325 N 
ATOM     13  C   UNL     1      35.195 -19.232 -20.971  0.00  0.00    +0.247 C 
ATOM     14  H   UNL     1      36.626 -20.087 -19.749  0.00  0.00    +0.145 HD
ATOM     15  H   UNL     1      37.224 -18.875 -20.789  0.00  0.00    +0.145 HD
ENDBRANCH   5  13
BRANCH   6  16
ATOM     16  O   UNL     1      34.535 -15.360 -24.971  0.00  0.00    -0.467 OA
ATOM     17  C   UNL     1      33.202 -14.934 -25.250  0.00  0.00    +0.253 C 
ENDBRANCH   6  16
TORSDOF 2
ENDMDL
MODEL 2
REMARK VINA RESULT:      -7.4      0.035      2.751
REMARK  Name = 657081
REMARK  2 active torsions:
REMARK  status: ('A' for Active; 'I' for Inactive)
REMARK    1  A    between atoms: C_5  and  C_13
REMARK    2  A    between atoms: C_6  and  O_16
REMARK                            x       y       z     vdW  Elec       q    Type
REMARK                         _______ _______ _______ _____ _____    ______ ____
ROOT
ATOM      1  F   UNL     1      34.976 -19.895 -23.670  0.00  0.00    -0.201 F 
ATOM      2  F   UNL     1      35.041 -16.459 -20.391  0.00  0.00    -0.201 F 
ATOM      3  F   UNL     1      34.670 -18.024 -25.620  0.00  0.00    -0.198 F 
ATOM      4  F   UNL     1      34.736 -14.593 -22.345  0.00  0.00    -0.198 F 
ATOM      5  C   UNL     1      35.013 -18.203 -22.004  0.00  0.00    +0.113 A 
ATOM      6  C   UNL     1      34.700 -16.286 -24.006  0.00  0.00    +0.198 A 
ATOM      7  C   UNL     1      34.918 -18.598 -23.338  0.00  0.00    +0.177 A 
ATOM      8  C   UNL     1      34.951 -16.849 -21.670  0.00  0.00    +0.177 A 
ATOM      9  C   UNL     1      34.762 -17.639 -24.339  0.00  0.00    +0.204 A 
ATOM     10  C   UNL     1      34.795 -15.891 -22.672  0.00  0.00    +0.204 A 
ENDROOT
BRANCH   5  13
ATOM     11  O   UNL     1      34.221 -19.897 -20.573  0.00  0.00    -0.270 OA
ATOM     12  N   UNL     1      36.448 -19.372 -20.419  0.00  0.00    -0.325 N 
ATOM     13  C   UNL     1      35.177 -19.203 -20.959  0.00  0.00    +0.247 C 
ATOM     14  H   UNL     1      36.596 -20.039 -19.710  0.00  0.00    +0.145 HD
ATOM     15  H   UNL     1      37.198 -18.824 -20.744  0.00  0.00    +0.145 HD
ENDBRANCH   5  13
BRANCH   6  16
ATOM     16  O   UNL     1      34.546 -15.351 -24.984  0.00  0.00    -0.467 OA
ATOM     17  C   UNL     1      33.210 -14.971 -25.314  0.00  0.00    +0.253 C 
ENDBRANCH   6  16
TORSDOF 2
ENDMDL
MODEL 3
REMARK VINA RESULT:      -7.3      3.816      6.600
REMARK  Name = 657081
REMARK  2 active torsions:
REMARK  status: ('A' for Active; 'I' for Inactive)
REMARK    1  A    between atoms: C_5  and  C_13
REMARK    2  A    between atoms: C_6  and  O_16
REMARK                            x       y       z     vdW  Elec       q    Type
REMARK                         _______ _______ _______ _____ _____    ______ ____
ROOT
ATOM      1  F   UNL     1      32.457 -20.176 -20.508  0.00  0.00    -0.201 F 
ATOM      2  F   UNL     1      37.205 -20.097 -20.383  0.00  0.00    -0.201 F 
ATOM      3  F   UNL     1      32.445 -22.189 -18.678  0.00  0.00    -0.198 F 
ATOM      4  F   UNL     1      37.187 -22.109 -18.553  0.00  0.00    -0.198 F 
ATOM      5  C   UNL     1      34.831 -20.110 -20.470  0.00  0.00    +0.113 A 
ATOM      6  C   UNL     1      34.816 -22.173 -18.593  0.00  0.00    +0.198 A 
ATOM      7  C   UNL     1      33.620 -20.645 -20.033  0.00  0.00    +0.177 A 
ATOM      8  C   UNL     1      36.035 -20.606 -19.969  0.00  0.00    +0.177 A 
ATOM      9  C   UNL     1      33.612 -21.677 -19.094  0.00  0.00    +0.204 A 
ATOM     10  C   UNL     1      36.027 -21.637 -19.030  0.00  0.00    +0.204 A 
ENDROOT
BRANCH   5  13
ATOM     11  O   UNL     1      34.631 -19.253 -22.654  0.00  0.00    -0.270 OA
ATOM     12  N   UNL     1      35.068 -17.740 -20.987  0.00  0.00    -0.325 N 
ATOM     13  C   UNL     1      34.839 -19.033 -21.448  0.00  0.00    +0.247 C 
ATOM     14  H   UNL     1      35.080 -16.987 -21.621  0.00  0.00    +0.145 HD
ATOM     15  H   UNL     1      35.218 -17.579 -20.027  0.00  0.00    +0.145 HD
ENDBRANCH   5  13
BRANCH   6  16
ATOM     16  O   UNL     1      34.808 -23.181 -17.678  0.00  0.00    -0.467 OA
ATOM     17  C   UNL     1      34.928 -22.812 -16.304  0.00  0.00    +0.253 C 
ENDBRANCH   6  16
TORSDOF 2
ENDMDL
MODEL 4
REMARK VINA RESULT:      -7.3      2.786      4.391
REMARK  Name = 657081
REMARK  2 active torsions:
REMARK  status: ('A' for Active; 'I' for Inactive)
REMARK    1  A    between atoms: C_5  and  C_13
REMARK    2  A    between atoms: C_6  and  O_16
REMARK                            x       y       z     vdW  Elec       q    Type
REMARK                         _______ _______ _______ _____ _____    ______ ____
ROOT
ATOM      1  F   UNL     1      34.209 -14.339 -20.903  0.00  0.00    -0.201 F 
ATOM      2  F   UNL     1      33.656 -15.175 -25.546  0.00  0.00    -0.201 F 
ATOM      3  F   UNL     1      35.322 -16.801 -20.595  0.00  0.00    -0.198 F 
ATOM      4  F   UNL     1      34.770 -17.636 -25.232  0.00  0.00    -0.198 F 
ATOM      5  C   UNL     1      33.918 -14.724 -23.229  0.00  0.00    +0.113 A 
ATOM      6  C   UNL     1      35.060 -17.248 -22.910  0.00  0.00    +0.198 A 
ATOM      7  C   UNL     1      34.343 -15.142 -21.969  0.00  0.00    +0.177 A 
ATOM      8  C   UNL     1      34.063 -15.568 -24.330  0.00  0.00    +0.177 A 
ATOM      9  C   UNL     1      34.915 -16.404 -21.809  0.00  0.00    +0.204 A 
ATOM     10  C   UNL     1      34.634 -16.830 -24.170  0.00  0.00    +0.204 A 
ENDROOT
BRANCH   5  13
ATOM     11  O   UNL     1      32.144 -13.183 -23.066  0.00  0.00    -0.270 OA
ATOM     12  N   UNL     1      34.123 -12.395 -23.918  0.00  0.00    -0.325 N 
ATOM     13  C   UNL     1      33.322 -13.407 -23.395  0.00  0.00    +0.247 C 
ATOM     14  H   UNL     1      33.754 -11.492 -24.044  0.00  0.00    +0.145 HD
ATOM     15  H   UNL     1      35.058 -12.584 -24.162  0.00  0.00    +0.145 HD
ENDBRANCH   5  13
BRANCH   6  16
ATOM     16  O   UNL     1      35.617 -18.481 -22.753  0.00  0.00    -0.467 OA
ATOM     17  C   UNL     1      34.755 -19.532 -22.318  0.00  0.00    +0.253 C 
ENDBRANCH   6  16
TORSDOF 2
ENDMDL
MODEL 5
REMARK VINA RESULT:      -7.3      2.830      5.045
REMARK  Name = 657081
REMARK  2 active torsions:
REMARK  status: ('A' for Active; 'I' for Inactive)
REMARK    1  A    between atoms: C_5  and  C_13
REMARK    2  A    between atoms: C_6  and  O_16
REMARK                            x       y       z     vdW  Elec       q    Type
REMARK                         _______ _______ _______ _____ _____    ______ ____
ROOT
ATOM      1  F   UNL     1      33.655 -15.043 -25.539  0.00  0.00    -0.201 F 
ATOM      2  F   UNL     1      34.184 -14.331 -20.872  0.00  0.00    -0.201 F 
ATOM      3  F   UNL     1      34.778 -17.508 -25.287  0.00  0.00    -0.198 F 
ATOM      4  F   UNL     1      35.306 -16.796 -20.626  0.00  0.00    -0.198 F 
ATOM      5  C   UNL     1      33.904 -14.654 -23.209  0.00  0.00    +0.113 A 
ATOM      6  C   UNL     1      35.055 -17.182 -22.953  0.00  0.00    +0.198 A 
ATOM      7  C   UNL     1      34.057 -15.467 -24.331  0.00  0.00    +0.177 A 
ATOM      8  C   UNL     1      34.327 -15.105 -21.958  0.00  0.00    +0.177 A 
ATOM      9  C   UNL     1      34.632 -16.731 -24.204  0.00  0.00    +0.204 A 
ATOM     10  C   UNL     1      34.902 -16.369 -21.831  0.00  0.00    +0.204 A 
ENDROOT
BRANCH   5  13
ATOM     11  O   UNL     1      32.129 -13.121 -22.994  0.00  0.00    -0.270 OA
ATOM     12  N   UNL     1      34.094 -12.312 -23.855  0.00  0.00    -0.325 N 
ATOM     13  C   UNL     1      33.303 -13.336 -23.342  0.00  0.00    +0.247 C 
ATOM     14  H   UNL     1      33.721 -11.407 -23.959  0.00  0.00    +0.145 HD
ATOM     15  H   UNL     1      35.027 -12.493 -24.114  0.00  0.00    +0.145 HD
ENDBRANCH   5  13
BRANCH   6  16
ATOM     16  O   UNL     1      35.618 -18.416 -22.829  0.00  0.00    -0.467 OA
ATOM     17  C   UNL     1      34.765 -19.479 -22.410  0.00  0.00    +0.253 C 
ENDBRANCH   6  16
TORSDOF 2
ENDMDL
MODEL 6
REMARK VINA RESULT:      -7.3      3.761      6.509
REMARK  Name = 657081
REMARK  2 active torsions:
REMARK  status: ('A' for Active; 'I' for Inactive)
REMARK    1  A    between atoms: C_5  and  C_13
REMARK    2  A    between atoms: C_6  and  O_16
REMARK                            x       y       z     vdW  Elec       q    Type
REMARK                         _______ _______ _______ _____ _____    ______ ____
ROOT
ATOM      1  F   UNL     1      37.162 -20.013 -20.562  0.00  0.00    -0.201 F 
ATOM      2  F   UNL     1      32.416 -20.206 -20.544  0.00  0.00    -0.201 F 
ATOM      3  F   UNL     1      37.247 -21.984 -18.690  0.00  0.00    -0.198 F 
ATOM      4  F   UNL     1      32.507 -22.177 -18.672  0.00  0.00    -0.198 F 
ATOM      5  C   UNL     1      34.788 -20.083 -20.578  0.00  0.00    +0.113 A 
ATOM      6  C   UNL     1      34.878 -22.104 -18.659  0.00  0.00    +0.198 A 
ATOM      7  C   UNL     1      36.017 -20.539 -20.103  0.00  0.00    +0.177 A 
ATOM      8  C   UNL     1      33.603 -20.637 -20.093  0.00  0.00    +0.177 A 
ATOM      9  C   UNL     1      36.063 -21.550 -19.144  0.00  0.00    +0.204 A 
ATOM     10  C   UNL     1      33.649 -21.649 -19.134  0.00  0.00    +0.204 A 
ENDROOT
BRANCH   5  13
ATOM     11  O   UNL     1      34.535 -19.284 -22.779  0.00  0.00    -0.270 OA
ATOM     12  N   UNL     1      34.916 -17.717 -21.148  0.00  0.00    -0.325 N 
ATOM     13  C   UNL     1      34.742 -19.028 -21.580  0.00  0.00    +0.247 C 
ATOM     14  H   UNL     1      34.890 -16.978 -21.798  0.00  0.00    +0.145 HD
ATOM     15  H   UNL     1      35.065 -17.528 -20.193  0.00  0.00    +0.145 HD
ENDBRANCH   5  13
BRANCH   6  16
ATOM     16  O   UNL     1      34.922 -23.091 -17.720  0.00  0.00    -0.467 OA
ATOM     17  C   UNL     1      35.171 -22.693 -16.373  0.00  0.00    +0.253 C 
ENDBRANCH   6  16
TORSDOF 2
ENDMDL
MODEL 7
REMARK VINA RESULT:      -7.2      3.155      4.486
REMARK  Name = 657081
REMARK  2 active torsions:
REMARK  status: ('A' for Active; 'I' for Inactive)
REMARK    1  A    between atoms: C_5  and  C_13
REMARK    2  A    between atoms: C_6  and  O_16
REMARK                            x       y       z     vdW  Elec       q    Type
REMARK                         _______ _______ _______ _____ _____    ______ ____
ROOT
ATOM      1  F   UNL     1      37.078 -21.750 -19.510  0.00  0.00    -0.201 F 
ATOM      2  F   UNL     1      32.445 -20.767 -19.870  0.00  0.00    -0.201 F 
ATOM      3  F   UNL     1      37.665 -19.467 -20.866  0.00  0.00    -0.198 F 
ATOM      4  F   UNL     1      33.038 -18.485 -21.226  0.00  0.00    -0.198 F 
ATOM      5  C   UNL     1      34.754 -21.290 -19.672  0.00  0.00    +0.113 A 
ATOM      6  C   UNL     1      35.359 -18.949 -21.062  0.00  0.00    +0.198 A 
ATOM      7  C   UNL     1      36.083 -20.955 -19.927  0.00  0.00    +0.177 A 
ATOM      8  C   UNL     1      33.726 -20.454 -20.111  0.00  0.00    +0.177 A 
ATOM      9  C   UNL     1      36.386 -19.784 -20.622  0.00  0.00    +0.204 A 
ATOM     10  C   UNL     1      34.029 -19.283 -20.806  0.00  0.00    +0.204 A 
ENDROOT
BRANCH   5  13
ATOM     11  O   UNL     1      33.977 -23.508 -19.527  0.00  0.00    -0.270 OA
ATOM     12  N   UNL     1      34.689 -22.534 -17.577  0.00  0.00    -0.325 N 
ATOM     13  C   UNL     1      34.438 -22.511 -18.946  0.00  0.00    +0.247 C 
ATOM     14  H   UNL     1      34.489 -23.343 -17.054  0.00  0.00    +0.145 HD
ATOM     15  H   UNL     1      35.067 -21.741 -17.132  0.00  0.00    +0.145 HD
ENDBRANCH   5  13
BRANCH   6  16
ATOM     16  O   UNL     1      35.655 -17.806 -21.742  0.00  0.00    -0.467 OA
ATOM     17  C   UNL     1      35.571 -17.858 -23.165  0.00  0.00    +0.253 C 
ENDBRANCH   6  16
TORSDOF 2
ENDMDL
MODEL 8
REMARK VINA RESULT:      -7.2      3.153      4.417
REMARK  Name = 657081
REMARK  2 active torsions:
REMARK  status: ('A' for Active; 'I' for Inactive)
REMARK    1  A    between atoms: C_5  and  C_13
REMARK    2  A    between atoms: C_6  and  O_16
REMARK                            x       y       z     vdW  Elec       q    Type
REMARK                         _______ _______ _______ _____ _____    ______ ____
ROOT
ATOM      1  F   UNL     1      32.428 -20.797 -19.921  0.00  0.00    -0.201 F 
ATOM      2  F   UNL     1      37.066 -21.733 -19.506  0.00  0.00    -0.201 F 
ATOM      3  F   UNL     1      33.013 -18.504 -21.261  0.00  0.00    -0.198 F 
ATOM      4  F   UNL     1      37.645 -19.439 -20.847  0.00  0.00    -0.198 F 
ATOM      5  C   UNL     1      34.739 -21.296 -19.696  0.00  0.00    +0.113 A 
ATOM      6  C   UNL     1      35.336 -18.944 -21.071  0.00  0.00    +0.198 A 
ATOM      7  C   UNL     1      33.709 -20.470 -20.144  0.00  0.00    +0.177 A 
ATOM      8  C   UNL     1      36.068 -20.945 -19.934  0.00  0.00    +0.177 A 
ATOM      9  C   UNL     1      34.007 -19.294 -20.833  0.00  0.00    +0.204 A 
ATOM     10  C   UNL     1      36.366 -19.769 -20.622  0.00  0.00    +0.204 A 
ENDROOT
BRANCH   5  13
ATOM     11  O   UNL     1      33.998 -23.528 -19.572  0.00  0.00    -0.270 OA
ATOM     12  N   UNL     1      34.645 -22.543 -17.604  0.00  0.00    -0.325 N 
ATOM     13  C   UNL     1      34.427 -22.523 -18.979  0.00  0.00    +0.247 C 
ATOM     14  H   UNL     1      34.445 -23.356 -17.087  0.00  0.00    +0.145 HD
ATOM     15  H   UNL     1      34.997 -21.744 -17.149  0.00  0.00    +0.145 HD
ENDBRANCH   5  13
BRANCH   6  16
ATOM     16  O   UNL     1      35.627 -17.795 -21.741  0.00  0.00    -0.467 OA
ATOM     17  C   UNL     1      35.528 -17.830 -23.164  0.00  0.00    +0.253 C 
ENDBRANCH   6  16
TORSDOF 2
ENDMDL
MODEL 9
REMARK VINA RESULT:      -7.1      1.732      3.314
REMARK  Name = 657081
REMARK  2 active torsions:
REMARK  status: ('A' for Active; 'I' for Inactive)
REMARK    1  A    between atoms: C_5  and  C_13
REMARK    2  A    between atoms: C_6  and  O_16
REMARK                            x       y       z     vdW  Elec       q    Type
REMARK                         _______ _______ _______ _____ _____    ______ ____
ROOT
ATOM      1  F   UNL     1      34.804 -17.693 -25.450  0.00  0.00    -0.201 F 
ATOM      2  F   UNL     1      34.830 -16.469 -20.860  0.00  0.00    -0.201 F 
ATOM      3  F   UNL     1      33.551 -15.358 -26.062  0.00  0.00    -0.198 F 
ATOM      4  F   UNL     1      33.578 -14.135 -21.479  0.00  0.00    -0.198 F 
ATOM      5  C   UNL     1      34.834 -17.112 -23.147  0.00  0.00    +0.113 A 
ATOM      6  C   UNL     1      33.550 -14.718 -23.778  0.00  0.00    +0.198 A 
ATOM      7  C   UNL     1      34.507 -16.826 -24.471  0.00  0.00    +0.177 A 
ATOM      8  C   UNL     1      34.519 -16.202 -22.137  0.00  0.00    +0.177 A 
ATOM      9  C   UNL     1      33.865 -15.628 -24.788  0.00  0.00    +0.204 A 
ATOM     10  C   UNL     1      33.878 -15.005 -22.453  0.00  0.00    +0.204 A 
ENDROOT
BRANCH   5  13
ATOM     11  O   UNL     1      34.881 -19.435 -22.761  0.00  0.00    -0.270 OA
ATOM     12  N   UNL     1      36.876 -18.318 -22.587  0.00  0.00    -0.325 N 
ATOM     13  C   UNL     1      35.505 -18.361 -22.818  0.00  0.00    +0.247 C 
ATOM     14  H   UNL     1      37.363 -19.144 -22.362  0.00  0.00    +0.145 HD
ATOM     15  H   UNL     1      37.360 -17.463 -22.648  0.00  0.00    +0.145 HD
ENDBRANCH   5  13
BRANCH   6  16
ATOM     16  O   UNL     1      32.922 -13.550 -24.087  0.00  0.00    -0.467 OA
ATOM     17  C   UNL     1      33.750 -12.424 -24.372  0.00  0.00    +0.253 C 
ENDBRANCH   6  16
TORSDOF 2
ENDMDL
