MODEL 1
REMARK VINA RESULT:      -6.7      0.000      0.000
REMARK  Name = 64689
REMARK  6 active torsions:
REMARK  status: ('A' for Active; 'I' for Inactive)
REMARK    1  A    between atoms: C_2  and  O_7
REMARK    2  A    between atoms: C_3  and  O_9
REMARK    3  A    between atoms: C_4  and  C_15
REMARK    4  A    between atoms: C_5  and  O_11
REMARK    5  A    between atoms: C_6  and  O_13
REMARK    6  A    between atoms: C_15  and  O_16
REMARK                            x       y       z     vdW  Elec       q    Type
REMARK                         _______ _______ _______ _____ _____    ______ ____
ROOT
ATOM      1  O   UNL     1      39.205 -24.425 -13.115  0.00  0.00    -0.326 OA
ATOM      2  C   UNL     1      37.979 -25.285 -15.022  0.00  0.00    +0.169 C 
ATOM      3  C   UNL     1      36.675 -24.738 -14.439  0.00  0.00    +0.172 C 
ATOM      4  C   UNL     1      38.984 -25.591 -13.909  0.00  0.00    +0.176 C 
ATOM      5  C   UNL     1      36.944 -23.604 -13.450  0.00  0.00    +0.196 C 
ATOM      6  C   UNL     1      38.026 -23.990 -12.442  0.00  0.00    +0.262 C 
ENDROOT
BRANCH   2   7
ATOM      7  O   UNL     1      37.705 -26.477 -15.752  0.00  0.00    -0.379 OA
ATOM      8  H   UNL     1      36.917 -26.908 -15.384  0.00  0.00    +0.211 HD
ENDBRANCH   2   7
BRANCH   3   9
ATOM      9  O   UNL     1      35.880 -24.247 -15.520  0.00  0.00    -0.379 OA
ATOM     10  H   UNL     1      36.384 -23.584 -16.017  0.00  0.00    +0.211 HD
ENDBRANCH   3   9
BRANCH   5  11
ATOM     11  O   UNL     1      35.746 -23.310 -12.730  0.00  0.00    -0.378 OA
ATOM     12  H   UNL     1      35.030 -23.124 -13.357  0.00  0.00    +0.211 HD
ENDBRANCH   5  11
BRANCH   6  13
ATOM     13  O   UNL     1      38.320 -22.841 -11.649  0.00  0.00    -0.358 OA
ATOM     14  H   UNL     1      38.857 -22.220 -12.166  0.00  0.00    +0.213 HD
ENDBRANCH   6  13
BRANCH   4  15
ATOM     15  C   UNL     1      40.333 -26.028 -14.472  0.00  0.00    +0.169 C 
BRANCH  15  16
ATOM     16  O   UNL     1      40.335 -25.796 -15.869  0.00  0.00    -0.379 OA
ATOM     17  H   UNL     1      39.492 -25.394 -16.131  0.00  0.00    +0.211 HD
ENDBRANCH  15  16
ENDBRANCH   4  15
TORSDOF 6
ENDMDL
MODEL 2
REMARK VINA RESULT:      -6.4      1.693      3.879
REMARK  Name = 64689
REMARK  6 active torsions:
REMARK  status: ('A' for Active; 'I' for Inactive)
REMARK    1  A    between atoms: C_2  and  O_7
REMARK    2  A    between atoms: C_3  and  O_9
REMARK    3  A    between atoms: C_4  and  C_15
REMARK    4  A    between atoms: C_5  and  O_11
REMARK    5  A    between atoms: C_6  and  O_13
REMARK    6  A    between atoms: C_15  and  O_16
REMARK                            x       y       z     vdW  Elec       q    Type
REMARK                         _______ _______ _______ _____ _____    ______ ____
ROOT
ATOM      1  O   UNL     1      38.032 -23.511 -13.685  0.00  0.00    -0.326 OA
ATOM      2  C   UNL     1      36.873 -25.194 -12.381  0.00  0.00    +0.169 C 
ATOM      3  C   UNL     1      36.776 -26.093 -13.614  0.00  0.00    +0.172 C 
ATOM      4  C   UNL     1      36.940 -23.720 -12.788  0.00  0.00    +0.176 C 
ATOM      5  C   UNL     1      37.844 -25.733 -14.647  0.00  0.00    +0.196 C 
ATOM      6  C   UNL     1      37.880 -24.227 -14.908  0.00  0.00    +0.262 C 
ENDROOT
BRANCH   2   7
ATOM      7  O   UNL     1      35.731 -25.403 -11.555  0.00  0.00    -0.379 OA
ATOM      8  H   UNL     1      35.680 -26.339 -11.304  0.00  0.00    +0.211 HD
ENDBRANCH   2   7
BRANCH   3   9
ATOM      9  O   UNL     1      36.961 -27.445 -13.191  0.00  0.00    -0.379 OA
ATOM     10  H   UNL     1      36.575 -28.045 -13.848  0.00  0.00    +0.211 HD
ENDBRANCH   3   9
BRANCH   5  11
ATOM     11  O   UNL     1      37.553 -26.394 -15.879  0.00  0.00    -0.378 OA
ATOM     12  H   UNL     1      37.636 -27.353 -15.759  0.00  0.00    +0.211 HD
ENDBRANCH   5  11
BRANCH   6  13
ATOM     13  O   UNL     1      38.986 -23.956 -15.766  0.00  0.00    -0.358 OA
ATOM     14  H   UNL     1      39.587 -24.717 -15.771  0.00  0.00    +0.213 HD
ENDBRANCH   6  13
BRANCH   4  15
ATOM     15  C   UNL     1      37.155 -22.812 -11.581  0.00  0.00    +0.169 C 
BRANCH  15  16
ATOM     16  O   UNL     1      38.167 -21.874 -11.898  0.00  0.00    -0.379 OA
ATOM     17  H   UNL     1      38.259 -21.810 -12.861  0.00  0.00    +0.211 HD
ENDBRANCH  15  16
ENDBRANCH   4  15
TORSDOF 6
ENDMDL
MODEL 3
REMARK VINA RESULT:      -6.1      1.599      4.776
REMARK  Name = 64689
REMARK  6 active torsions:
REMARK  status: ('A' for Active; 'I' for Inactive)
REMARK    1  A    between atoms: C_2  and  O_7
REMARK    2  A    between atoms: C_3  and  O_9
REMARK    3  A    between atoms: C_4  and  C_15
REMARK    4  A    between atoms: C_5  and  O_11
REMARK    5  A    between atoms: C_6  and  O_13
REMARK    6  A    between atoms: C_15  and  O_16
REMARK                            x       y       z     vdW  Elec       q    Type
REMARK                         _______ _______ _______ _____ _____    ______ ____
ROOT
ATOM      1  O   UNL     1      35.575 -25.517 -15.654  0.00  0.00    -0.326 OA
ATOM      2  C   UNL     1      36.437 -23.910 -14.057  0.00  0.00    +0.169 C 
ATOM      3  C   UNL     1      37.571 -24.869 -13.692  0.00  0.00    +0.172 C 
ATOM      4  C   UNL     1      35.212 -24.680 -14.554  0.00  0.00    +0.176 C 
ATOM      5  C   UNL     1      37.824 -25.877 -14.813  0.00  0.00    +0.196 C 
ATOM      6  C   UNL     1      36.522 -26.519 -15.290  0.00  0.00    +0.262 C 
ENDROOT
BRANCH   2   7
ATOM      7  O   UNL     1      36.080 -23.145 -12.909  0.00  0.00    -0.379 OA
ATOM      8  H   UNL     1      36.732 -23.292 -12.207  0.00  0.00    +0.211 HD
ENDBRANCH   2   7
BRANCH   3   9
ATOM      9  O   UNL     1      38.751 -24.095 -13.473  0.00  0.00    -0.379 OA
ATOM     10  H   UNL     1      38.897 -23.506 -14.230  0.00  0.00    +0.211 HD
ENDBRANCH   3   9
BRANCH   5  11
ATOM     11  O   UNL     1      38.684 -26.912 -14.334  0.00  0.00    -0.378 OA
ATOM     12  H   UNL     1      39.504 -26.916 -14.851  0.00  0.00    +0.211 HD
ENDBRANCH   5  11
BRANCH   6  13
ATOM     13  O   UNL     1      36.821 -27.333 -16.423  0.00  0.00    -0.358 OA
ATOM     14  H   UNL     1      37.545 -27.939 -16.203  0.00  0.00    +0.213 HD
ENDBRANCH   6  13
BRANCH   4  15
ATOM     15  C   UNL     1      34.111 -23.741 -15.034  0.00  0.00    +0.169 C 
BRANCH  15  16
ATOM     16  O   UNL     1      33.397 -23.269 -13.905  0.00  0.00    -0.379 OA
ATOM     17  H   UNL     1      32.455 -23.202 -14.123  0.00  0.00    +0.211 HD
ENDBRANCH  15  16
ENDBRANCH   4  15
TORSDOF 6
ENDMDL
MODEL 4
REMARK VINA RESULT:      -6.1      1.592      2.117
REMARK  Name = 64689
REMARK  6 active torsions:
REMARK  status: ('A' for Active; 'I' for Inactive)
REMARK    1  A    between atoms: C_2  and  O_7
REMARK    2  A    between atoms: C_3  and  O_9
REMARK    3  A    between atoms: C_4  and  C_15
REMARK    4  A    between atoms: C_5  and  O_11
REMARK    5  A    between atoms: C_6  and  O_13
REMARK    6  A    between atoms: C_15  and  O_16
REMARK                            x       y       z     vdW  Elec       q    Type
REMARK                         _______ _______ _______ _____ _____    ______ ____
ROOT
ATOM      1  O   UNL     1      38.588 -23.971 -13.225  0.00  0.00    -0.326 OA
ATOM      2  C   UNL     1      36.858 -25.669 -13.258  0.00  0.00    +0.169 C 
ATOM      3  C   UNL     1      36.316 -25.154 -11.924  0.00  0.00    +0.172 C 
ATOM      4  C   UNL     1      38.353 -25.371 -13.388  0.00  0.00    +0.176 C 
ATOM      5  C   UNL     1      36.732 -23.703 -11.682  0.00  0.00    +0.196 C 
ATOM      6  C   UNL     1      38.227 -23.504 -11.927  0.00  0.00    +0.262 C 
ENDROOT
BRANCH   2   7
ATOM      7  O   UNL     1      36.649 -27.076 -13.339  0.00  0.00    -0.379 OA
ATOM      8  H   UNL     1      36.999 -27.407 -14.181  0.00  0.00    +0.211 HD
ENDBRANCH   2   7
BRANCH   3   9
ATOM      9  O   UNL     1      34.891 -25.239 -11.964  0.00  0.00    -0.379 OA
ATOM     10  H   UNL     1      34.510 -24.577 -11.366  0.00  0.00    +0.211 HD
ENDBRANCH   3   9
BRANCH   5  11
ATOM     11  O   UNL     1      36.450 -23.350 -10.328  0.00  0.00    -0.378 OA
ATOM     12  H   UNL     1      36.091 -22.449 -10.296  0.00  0.00    +0.211 HD
ENDBRANCH   5  11
BRANCH   6  13
ATOM     13  O   UNL     1      38.509 -22.110 -11.821  0.00  0.00    -0.358 OA
ATOM     14  H   UNL     1      37.825 -21.681 -11.284  0.00  0.00    +0.213 HD
ENDBRANCH   6  13
BRANCH   4  15
ATOM     15  C   UNL     1      38.891 -25.771 -14.759  0.00  0.00    +0.169 C 
BRANCH  15  16
ATOM     16  O   UNL     1      37.795 -26.071 -15.603  0.00  0.00    -0.379 OA
ATOM     17  H   UNL     1      36.992 -26.167 -15.068  0.00  0.00    +0.211 HD
ENDBRANCH  15  16
ENDBRANCH   4  15
TORSDOF 6
ENDMDL
MODEL 5
REMARK VINA RESULT:      -6.1      1.883      3.359
REMARK  Name = 64689
REMARK  6 active torsions:
REMARK  status: ('A' for Active; 'I' for Inactive)
REMARK    1  A    between atoms: C_2  and  O_7
REMARK    2  A    between atoms: C_3  and  O_9
REMARK    3  A    between atoms: C_4  and  C_15
REMARK    4  A    between atoms: C_5  and  O_11
REMARK    5  A    between atoms: C_6  and  O_13
REMARK    6  A    between atoms: C_15  and  O_16
REMARK                            x       y       z     vdW  Elec       q    Type
REMARK                         _______ _______ _______ _____ _____    ______ ____
ROOT
ATOM      1  O   UNL     1      35.873 -23.736 -13.775  0.00  0.00    -0.326 OA
ATOM      2  C   UNL     1      37.847 -24.529 -14.938  0.00  0.00    +0.169 C 
ATOM      3  C   UNL     1      38.106 -25.543 -13.823  0.00  0.00    +0.172 C 
ATOM      4  C   UNL     1      37.085 -23.315 -14.401  0.00  0.00    +0.176 C 
ATOM      5  C   UNL     1      36.826 -25.847 -13.044  0.00  0.00    +0.196 C 
ATOM      6  C   UNL     1      36.105 -24.563 -12.636  0.00  0.00    +0.262 C 
ENDROOT
BRANCH   2   7
ATOM      7  O   UNL     1      39.091 -24.101 -15.484  0.00  0.00    -0.379 OA
ATOM      8  H   UNL     1      39.478 -24.819 -16.009  0.00  0.00    +0.211 HD
ENDBRANCH   2   7
BRANCH   3   9
ATOM      9  O   UNL     1      38.594 -26.744 -14.424  0.00  0.00    -0.379 OA
ATOM     10  H   UNL     1      39.554 -26.678 -14.543  0.00  0.00    +0.211 HD
ENDBRANCH   3   9
BRANCH   5  11
ATOM     11  O   UNL     1      37.155 -26.571 -11.858  0.00  0.00    -0.378 OA
ATOM     12  H   UNL     1      36.638 -27.392 -11.826  0.00  0.00    +0.211 HD
ENDBRANCH   5  11
BRANCH   6  13
ATOM     13  O   UNL     1      34.859 -24.928 -12.044  0.00  0.00    -0.358 OA
ATOM     14  H   UNL     1      34.158 -24.887 -12.713  0.00  0.00    +0.213 HD
ENDBRANCH   6  13
BRANCH   4  15
ATOM     15  C   UNL     1      36.713 -22.343 -15.517  0.00  0.00    +0.169 C 
BRANCH  15  16
ATOM     16  O   UNL     1      36.735 -23.042 -16.749  0.00  0.00    -0.379 OA
ATOM     17  H   UNL     1      35.857 -23.414 -16.924  0.00  0.00    +0.211 HD
ENDBRANCH  15  16
ENDBRANCH   4  15
TORSDOF 6
ENDMDL
MODEL 6
REMARK VINA RESULT:      -6.1      1.789      3.101
REMARK  Name = 64689
REMARK  6 active torsions:
REMARK  status: ('A' for Active; 'I' for Inactive)
REMARK    1  A    between atoms: C_2  and  O_7
REMARK    2  A    between atoms: C_3  and  O_9
REMARK    3  A    between atoms: C_4  and  C_15
REMARK    4  A    between atoms: C_5  and  O_11
REMARK    5  A    between atoms: C_6  and  O_13
REMARK    6  A    between atoms: C_15  and  O_16
REMARK                            x       y       z     vdW  Elec       q    Type
REMARK                         _______ _______ _______ _____ _____    ______ ____
ROOT
ATOM      1  O   UNL     1      36.331 -25.859 -12.388  0.00  0.00    -0.326 OA
ATOM      2  C   UNL     1      38.404 -24.851 -13.141  0.00  0.00    +0.169 C 
ATOM      3  C   UNL     1      38.146 -23.636 -12.248  0.00  0.00    +0.172 C 
ATOM      4  C   UNL     1      37.086 -25.513 -13.550  0.00  0.00    +0.176 C 
ATOM      5  C   UNL     1      37.188 -23.981 -11.108  0.00  0.00    +0.196 C 
ATOM      6  C   UNL     1      35.952 -24.717 -11.623  0.00  0.00    +0.262 C 
ENDROOT
BRANCH   2   7
ATOM      7  O   UNL     1      39.106 -24.436 -14.309  0.00  0.00    -0.379 OA
ATOM      8  H   UNL     1      39.976 -24.867 -14.333  0.00  0.00    +0.211 HD
ENDBRANCH   2   7
BRANCH   3   9
ATOM      9  O   UNL     1      39.398 -23.213 -11.706  0.00  0.00    -0.379 OA
ATOM     10  H   UNL     1      39.447 -23.465 -10.770  0.00  0.00    +0.211 HD
ENDBRANCH   3   9
BRANCH   5  11
ATOM     11  O   UNL     1      36.760 -22.778 -10.470  0.00  0.00    -0.378 OA
ATOM     12  H   UNL     1      35.977 -22.961  -9.926  0.00  0.00    +0.211 HD
ENDBRANCH   5  11
BRANCH   6  13
ATOM     13  O   UNL     1      35.182 -25.128 -10.494  0.00  0.00    -0.358 OA
ATOM     14  H   UNL     1      35.636 -25.854 -10.040  0.00  0.00    +0.213 HD
ENDBRANCH   6  13
BRANCH   4  15
ATOM     15  C   UNL     1      37.321 -26.794 -14.344  0.00  0.00    +0.169 C 
BRANCH  15  16
ATOM     16  O   UNL     1      37.444 -26.459 -15.715  0.00  0.00    -0.379 OA
ATOM     17  H   UNL     1      38.053 -27.079 -16.146  0.00  0.00    +0.211 HD
ENDBRANCH  15  16
ENDBRANCH   4  15
TORSDOF 6
ENDMDL
MODEL 7
REMARK VINA RESULT:      -6.1      1.699      3.992
REMARK  Name = 64689
REMARK  6 active torsions:
REMARK  status: ('A' for Active; 'I' for Inactive)
REMARK    1  A    between atoms: C_2  and  O_7
REMARK    2  A    between atoms: C_3  and  O_9
REMARK    3  A    between atoms: C_4  and  C_15
REMARK    4  A    between atoms: C_5  and  O_11
REMARK    5  A    between atoms: C_6  and  O_13
REMARK    6  A    between atoms: C_15  and  O_16
REMARK                            x       y       z     vdW  Elec       q    Type
REMARK                         _______ _______ _______ _____ _____    ______ ____
ROOT
ATOM      1  O   UNL     1      36.049 -23.766 -13.892  0.00  0.00    -0.326 OA
ATOM      2  C   UNL     1      37.732 -25.217 -12.924  0.00  0.00    +0.169 C 
ATOM      3  C   UNL     1      37.384 -26.309 -13.938  0.00  0.00    +0.172 C 
ATOM      4  C   UNL     1      36.524 -24.315 -12.662  0.00  0.00    +0.176 C 
ATOM      5  C   UNL     1      36.709 -25.719 -15.175  0.00  0.00    +0.196 C 
ATOM      6  C   UNL     1      35.577 -24.767 -14.792  0.00  0.00    +0.262 C 
ENDROOT
BRANCH   2   7
ATOM      7  O   UNL     1      38.142 -25.823 -11.702  0.00  0.00    -0.379 OA
ATOM      8  H   UNL     1      37.906 -26.764 -11.711  0.00  0.00    +0.211 HD
ENDBRANCH   2   7
BRANCH   3   9
ATOM      9  O   UNL     1      38.597 -26.958 -14.321  0.00  0.00    -0.379 OA
ATOM     10  H   UNL     1      39.176 -26.322 -14.771  0.00  0.00    +0.211 HD
ENDBRANCH   3   9
BRANCH   5  11
ATOM     11  O   UNL     1      36.158 -26.776 -15.962  0.00  0.00    -0.378 OA
ATOM     12  H   UNL     1      36.215 -26.543 -16.902  0.00  0.00    +0.211 HD
ENDBRANCH   5  11
BRANCH   6  13
ATOM     13  O   UNL     1      35.095 -24.153 -15.986  0.00  0.00    -0.358 OA
ATOM     14  H   UNL     1      35.291 -24.723 -16.745  0.00  0.00    +0.213 HD
ENDBRANCH   6  13
BRANCH   4  15
ATOM     15  C   UNL     1      36.879 -23.150 -11.744  0.00  0.00    +0.169 C 
BRANCH  15  16
ATOM     16  O   UNL     1      38.289 -23.026 -11.697  0.00  0.00    -0.379 OA
ATOM     17  H   UNL     1      38.579 -22.991 -10.772  0.00  0.00    +0.211 HD
ENDBRANCH  15  16
ENDBRANCH   4  15
TORSDOF 6
ENDMDL
MODEL 8
REMARK VINA RESULT:      -6.1      2.160      2.638
REMARK  Name = 64689
REMARK  6 active torsions:
REMARK  status: ('A' for Active; 'I' for Inactive)
REMARK    1  A    between atoms: C_2  and  O_7
REMARK    2  A    between atoms: C_3  and  O_9
REMARK    3  A    between atoms: C_4  and  C_15
REMARK    4  A    between atoms: C_5  and  O_11
REMARK    5  A    between atoms: C_6  and  O_13
REMARK    6  A    between atoms: C_15  and  O_16
REMARK                            x       y       z     vdW  Elec       q    Type
REMARK                         _______ _______ _______ _____ _____    ______ ____
ROOT
ATOM      1  O   UNL     1      37.376 -22.994 -13.149  0.00  0.00    -0.326 OA
ATOM      2  C   UNL     1      35.570 -24.070 -14.357  0.00  0.00    +0.169 C 
ATOM      3  C   UNL     1      35.100 -24.746 -13.067  0.00  0.00    +0.172 C 
ATOM      4  C   UNL     1      37.071 -23.780 -14.302  0.00  0.00    +0.176 C 
ATOM      5  C   UNL     1      35.591 -23.986 -11.835  0.00  0.00    +0.196 C 
ATOM      6  C   UNL     1      37.084 -23.675 -11.931  0.00  0.00    +0.262 C 
ENDROOT
BRANCH   2   7
ATOM      7  O   UNL     1      35.294 -24.923 -15.463  0.00  0.00    -0.379 OA
ATOM      8  H   UNL     1      35.969 -25.618 -15.512  0.00  0.00    +0.211 HD
ENDBRANCH   2   7
BRANCH   3   9
ATOM      9  O   UNL     1      33.673 -24.768 -13.075  0.00  0.00    -0.379 OA
ATOM     10  H   UNL     1      33.356 -25.439 -12.451  0.00  0.00    +0.211 HD
ENDBRANCH   3   9
BRANCH   5  11
ATOM     11  O   UNL     1      35.375 -24.784 -10.671  0.00  0.00    -0.378 OA
ATOM     12  H   UNL     1      35.059 -24.221  -9.946  0.00  0.00    +0.211 HD
ENDBRANCH   5  11
BRANCH   6  13
ATOM     13  O   UNL     1      37.434 -22.848 -10.822  0.00  0.00    -0.358 OA
ATOM     14  H   UNL     1      36.790 -22.975 -10.108  0.00  0.00    +0.213 HD
ENDBRANCH   6  13
BRANCH   4  15
ATOM     15  C   UNL     1      37.541 -23.002 -15.527  0.00  0.00    +0.169 C 
BRANCH  15  16
ATOM     16  O   UNL     1      38.797 -23.515 -15.933  0.00  0.00    -0.379 OA
ATOM     17  H   UNL     1      39.161 -24.074 -15.229  0.00  0.00    +0.211 HD
ENDBRANCH  15  16
ENDBRANCH   4  15
TORSDOF 6
ENDMDL
MODEL 9
REMARK VINA RESULT:      -6.0      1.556      3.260
REMARK  Name = 64689
REMARK  6 active torsions:
REMARK  status: ('A' for Active; 'I' for Inactive)
REMARK    1  A    between atoms: C_2  and  O_7
REMARK    2  A    between atoms: C_3  and  O_9
REMARK    3  A    between atoms: C_4  and  C_15
REMARK    4  A    between atoms: C_5  and  O_11
REMARK    5  A    between atoms: C_6  and  O_13
REMARK    6  A    between atoms: C_15  and  O_16
REMARK                            x       y       z     vdW  Elec       q    Type
REMARK                         _______ _______ _______ _____ _____    ______ ____
ROOT
ATOM      1  O   UNL     1      37.001 -25.372 -14.051  0.00  0.00    -0.326 OA
ATOM      2  C   UNL     1      38.042 -24.403 -12.088  0.00  0.00    +0.169 C 
ATOM      3  C   UNL     1      36.742 -23.672 -11.749  0.00  0.00    +0.172 C 
ATOM      4  C   UNL     1      38.148 -24.654 -13.593  0.00  0.00    +0.176 C 
ATOM      5  C   UNL     1      35.539 -24.355 -12.400  0.00  0.00    +0.196 C 
ATOM      6  C   UNL     1      35.792 -24.636 -13.881  0.00  0.00    +0.262 C 
ENDROOT
BRANCH   2   7
ATOM      7  O   UNL     1      39.150 -23.615 -11.662  0.00  0.00    -0.379 OA
ATOM      8  H   UNL     1      38.859 -22.702 -11.513  0.00  0.00    +0.211 HD
ENDBRANCH   2   7
BRANCH   3   9
ATOM      9  O   UNL     1      36.585 -23.684 -10.330  0.00  0.00    -0.379 OA
ATOM     10  H   UNL     1      37.339 -23.234  -9.918  0.00  0.00    +0.211 HD
ENDBRANCH   3   9
BRANCH   5  11
ATOM     11  O   UNL     1      34.397 -23.503 -12.295  0.00  0.00    -0.378 OA
ATOM     12  H   UNL     1      34.400 -22.867 -13.027  0.00  0.00    +0.211 HD
ENDBRANCH   5  11
BRANCH   6  13
ATOM     13  O   UNL     1      34.691 -25.395 -14.379  0.00  0.00    -0.358 OA
ATOM     14  H   UNL     1      34.873 -25.668 -15.291  0.00  0.00    +0.213 HD
ENDBRANCH   6  13
BRANCH   4  15
ATOM     15  C   UNL     1      39.379 -25.484 -13.942  0.00  0.00    +0.169 C 
BRANCH  15  16
ATOM     16  O   UNL     1      40.501 -24.622 -14.004  0.00  0.00    -0.379 OA
ATOM     17  H   UNL     1      40.242 -23.734 -13.712  0.00  0.00    +0.211 HD
ENDBRANCH  15  16
ENDBRANCH   4  15
TORSDOF 6
ENDMDL
