MODEL 1
REMARK VINA RESULT:      -8.6      0.000      0.000
REMARK  Name = 150959
REMARK  8 active torsions:
REMARK  status: ('A' for Active; 'I' for Inactive)
REMARK    1  A    between atoms: C_2  and  O_15
REMARK    2  A    between atoms: C_3  and  O_17
REMARK    3  A    between atoms: C_4  and  C_19
REMARK    4  A    between atoms: C_5  and  N_8
REMARK    5  A    between atoms: C_19  and  O_20
REMARK    6  A    between atoms: O_20  and  P_21
REMARK    7  A    between atoms: P_21  and  O_23
REMARK    8  A    between atoms: P_21  and  O_25
REMARK                            x       y       z     vdW  Elec       q    Type
REMARK                         _______ _______ _______ _____ _____    ______ ____
ROOT
ATOM      1  O   UNL     1      35.114 -25.157 -15.518  0.00  0.00    -0.332 OA
ATOM      2  C   UNL     1      33.575 -24.095 -14.064  0.00  0.00    +0.171 C 
ATOM      3  C   UNL     1      34.853 -24.366 -13.299  0.00  0.00    +0.188 C 
ATOM      4  C   UNL     1      34.042 -24.189 -15.510  0.00  0.00    +0.176 C 
ATOM      5  C   UNL     1      35.520 -25.421 -14.164  0.00  0.00    +0.246 C 
ENDROOT
BRANCH   5   8
ATOM      6  O   UNL     1      37.130 -26.575 -12.114  0.00  0.00    -0.250 OA
ATOM      7  O   UNL     1      40.939 -25.032 -14.188  0.00  0.00    -0.268 OA
ATOM      8  N   UNL     1      36.952 -25.368 -14.090  0.00  0.00    -0.136 N 
ATOM      9  N   UNL     1      37.569 -24.693 -15.113  0.00  0.00    -0.166 NA
ATOM     10  N   UNL     1      39.048 -25.835 -13.094  0.00  0.00    -0.233 N 
ATOM     11  C   UNL     1      37.669 -25.964 -13.040  0.00  0.00    +0.331 C 
ATOM     12  C   UNL     1      38.854 -24.596 -15.127  0.00  0.00    +0.176 C 
ATOM     13  C   UNL     1      39.731 -25.178 -14.084  0.00  0.00    +0.274 C 
ATOM     14  H   UNL     1      39.574 -26.245 -12.371  0.00  0.00    +0.159 HD
ENDBRANCH   5   8
BRANCH   2  15
ATOM     15  O   UNL     1      32.631 -25.140 -13.838  0.00  0.00    -0.379 OA
ATOM     16  H   UNL     1      32.116 -25.293 -14.646  0.00  0.00    +0.211 HD
ENDBRANCH   2  15
BRANCH   3  17
ATOM     17  O   UNL     1      34.605 -24.818 -11.985  0.00  0.00    -0.378 OA
ATOM     18  H   UNL     1      35.430 -25.147 -11.595  0.00  0.00    +0.211 HD
ENDBRANCH   3  17
BRANCH   4  19
ATOM     19  C   UNL     1      34.586 -22.875 -16.055  0.00  0.00    +0.186 C 
BRANCH  19  20
ATOM     20  O   UNL     1      34.946 -23.061 -17.412  0.00  0.00    -0.271 OA
BRANCH  20  21
ATOM     21  P   UNL     1      33.860 -22.696 -18.556  0.00  0.00    +0.473 P 
ATOM     22  O   UNL     1      32.463 -22.468 -18.054  0.00  0.00    -0.227 OA
BRANCH  21  23
ATOM     23  O   UNL     1      34.020 -23.892 -19.633  0.00  0.00    -0.303 OA
ATOM     24  H   UNL     1      33.462 -23.707 -20.406  0.00  0.00    +0.222 HD
ENDBRANCH  21  23
BRANCH  21  25
ATOM     25  O   UNL     1      34.533 -21.430 -19.303  0.00  0.00    -0.303 OA
ATOM     26  H   UNL     1      34.607 -20.689 -18.681  0.00  0.00    +0.222 HD
ENDBRANCH  21  25
ENDBRANCH  20  21
ENDBRANCH  19  20
ENDBRANCH   4  19
TORSDOF 8
ENDMDL
MODEL 2
REMARK VINA RESULT:      -8.5      3.081      6.413
REMARK  Name = 150959
REMARK  8 active torsions:
REMARK  status: ('A' for Active; 'I' for Inactive)
REMARK    1  A    between atoms: C_2  and  O_15
REMARK    2  A    between atoms: C_3  and  O_17
REMARK    3  A    between atoms: C_4  and  C_19
REMARK    4  A    between atoms: C_5  and  N_8
REMARK    5  A    between atoms: C_19  and  O_20
REMARK    6  A    between atoms: O_20  and  P_21
REMARK    7  A    between atoms: P_21  and  O_23
REMARK    8  A    between atoms: P_21  and  O_25
REMARK                            x       y       z     vdW  Elec       q    Type
REMARK                         _______ _______ _______ _____ _____    ______ ____
ROOT
ATOM      1  O   UNL     1      36.047 -25.331 -15.409  0.00  0.00    -0.332 OA
ATOM      2  C   UNL     1      37.776 -23.918 -14.618  0.00  0.00    +0.171 C 
ATOM      3  C   UNL     1      36.601 -23.058 -15.033  0.00  0.00    +0.188 C 
ATOM      4  C   UNL     1      37.127 -25.286 -14.451  0.00  0.00    +0.176 C 
ATOM      5  C   UNL     1      35.812 -24.007 -15.917  0.00  0.00    +0.246 C 
ENDROOT
BRANCH   5   8
ATOM      6  O   UNL     1      34.221 -23.188 -18.136  0.00  0.00    -0.250 OA
ATOM      7  O   UNL     1      30.478 -23.084 -15.459  0.00  0.00    -0.268 OA
ATOM      8  N   UNL     1      34.402 -23.742 -15.889  0.00  0.00    -0.136 N 
ATOM      9  N   UNL     1      33.799 -23.907 -14.667  0.00  0.00    -0.166 NA
ATOM     10  N   UNL     1      32.336 -23.117 -16.860  0.00  0.00    -0.233 N 
ATOM     11  C   UNL     1      33.693 -23.340 -17.032  0.00  0.00    +0.331 C 
ATOM     12  C   UNL     1      32.534 -23.690 -14.549  0.00  0.00    +0.176 C 
ATOM     13  C   UNL     1      31.667 -23.262 -15.673  0.00  0.00    +0.274 C 
ATOM     14  H   UNL     1      31.816 -22.835 -17.646  0.00  0.00    +0.159 HD
ENDBRANCH   5   8
BRANCH   2  15
ATOM     15  O   UNL     1      38.723 -24.008 -15.681  0.00  0.00    -0.379 OA
ATOM     16  H   UNL     1      38.443 -24.693 -16.307  0.00  0.00    +0.211 HD
ENDBRANCH   2  15
BRANCH   3  17
ATOM     17  O   UNL     1      37.006 -21.890 -15.714  0.00  0.00    -0.378 OA
ATOM     18  H   UNL     1      37.939 -21.708 -15.520  0.00  0.00    +0.211 HD
ENDBRANCH   3  17
BRANCH   4  19
ATOM     19  C   UNL     1      36.540 -25.509 -13.063  0.00  0.00    +0.186 C 
BRANCH  19  20
ATOM     20  O   UNL     1      37.246 -24.702 -12.138  0.00  0.00    -0.271 OA
BRANCH  20  21
ATOM     21  P   UNL     1      36.402 -23.706 -11.180  0.00  0.00    +0.473 P 
ATOM     22  O   UNL     1      36.248 -24.170  -9.761  0.00  0.00    -0.227 OA
BRANCH  21  23
ATOM     23  O   UNL     1      35.018 -23.481 -11.986  0.00  0.00    -0.303 OA
ATOM     24  H   UNL     1      34.805 -22.534 -12.003  0.00  0.00    +0.222 HD
ENDBRANCH  21  23
BRANCH  21  25
ATOM     25  O   UNL     1      37.171 -22.295 -11.358  0.00  0.00    -0.303 OA
ATOM     26  H   UNL     1      37.684 -22.308 -12.181  0.00  0.00    +0.222 HD
ENDBRANCH  21  25
ENDBRANCH  20  21
ENDBRANCH  19  20
ENDBRANCH   4  19
TORSDOF 8
ENDMDL
MODEL 3
REMARK VINA RESULT:      -8.5      2.930      6.071
REMARK  Name = 150959
REMARK  8 active torsions:
REMARK  status: ('A' for Active; 'I' for Inactive)
REMARK    1  A    between atoms: C_2  and  O_15
REMARK    2  A    between atoms: C_3  and  O_17
REMARK    3  A    between atoms: C_4  and  C_19
REMARK    4  A    between atoms: C_5  and  N_8
REMARK    5  A    between atoms: C_19  and  O_20
REMARK    6  A    between atoms: O_20  and  P_21
REMARK    7  A    between atoms: P_21  and  O_23
REMARK    8  A    between atoms: P_21  and  O_25
REMARK                            x       y       z     vdW  Elec       q    Type
REMARK                         _______ _______ _______ _____ _____    ______ ____
ROOT
ATOM      1  O   UNL     1      36.757 -23.302 -13.949  0.00  0.00    -0.332 OA
ATOM      2  C   UNL     1      36.940 -25.014 -12.322  0.00  0.00    +0.171 C 
ATOM      3  C   UNL     1      35.490 -24.903 -12.746  0.00  0.00    +0.188 C 
ATOM      4  C   UNL     1      37.662 -24.320 -13.469  0.00  0.00    +0.176 C 
ATOM      5  C   UNL     1      35.454 -23.527 -13.386  0.00  0.00    +0.246 C 
ENDROOT
BRANCH   5   8
ATOM      6  O   UNL     1      32.625 -23.566 -13.032  0.00  0.00    -0.250 OA
ATOM      7  O   UNL     1      32.014 -23.147 -17.575  0.00  0.00    -0.268 OA
ATOM      8  N   UNL     1      34.473 -23.433 -14.431  0.00  0.00    -0.136 N 
ATOM      9  N   UNL     1      34.979 -23.315 -15.701  0.00  0.00    -0.166 NA
ATOM     10  N   UNL     1      32.262 -23.362 -15.271  0.00  0.00    -0.233 N 
ATOM     11  C   UNL     1      33.095 -23.461 -14.167  0.00  0.00    +0.331 C 
ATOM     12  C   UNL     1      34.171 -23.224 -16.700  0.00  0.00    +0.176 C 
ATOM     13  C   UNL     1      32.694 -23.240 -16.566  0.00  0.00    +0.274 C 
ATOM     14  H   UNL     1      31.291 -23.379 -15.114  0.00  0.00    +0.159 HD
ENDBRANCH   5   8
BRANCH   2  15
ATOM     15  O   UNL     1      37.168 -24.254 -11.136  0.00  0.00    -0.379 OA
ATOM     16  H   UNL     1      37.947 -23.689 -11.258  0.00  0.00    +0.211 HD
ENDBRANCH   2  15
BRANCH   3  17
ATOM     17  O   UNL     1      34.602 -25.019 -11.654  0.00  0.00    -0.378 OA
ATOM     18  H   UNL     1      33.725 -24.698 -11.915  0.00  0.00    +0.211 HD
ENDBRANCH   3  17
BRANCH   4  19
ATOM     19  C   UNL     1      37.984 -25.253 -14.630  0.00  0.00    +0.186 C 
BRANCH  19  20
ATOM     20  O   UNL     1      38.997 -26.154 -14.219  0.00  0.00    -0.271 OA
BRANCH  20  21
ATOM     21  P   UNL     1      40.534 -25.813 -14.599  0.00  0.00    +0.473 P 
ATOM     22  O   UNL     1      41.024 -24.478 -14.119  0.00  0.00    -0.227 OA
BRANCH  21  23
ATOM     23  O   UNL     1      40.591 -26.034 -16.200  0.00  0.00    -0.303 OA
ATOM     24  H   UNL     1      40.074 -25.341 -16.641  0.00  0.00    +0.222 HD
ENDBRANCH  21  23
BRANCH  21  25
ATOM     25  O   UNL     1      41.341 -27.087 -14.017  0.00  0.00    -0.303 OA
ATOM     26  H   UNL     1      41.877 -27.481 -14.723  0.00  0.00    +0.222 HD
ENDBRANCH  21  25
ENDBRANCH  20  21
ENDBRANCH  19  20
ENDBRANCH   4  19
TORSDOF 8
ENDMDL
MODEL 4
REMARK VINA RESULT:      -8.4      2.895      6.065
REMARK  Name = 150959
REMARK  8 active torsions:
REMARK  status: ('A' for Active; 'I' for Inactive)
REMARK    1  A    between atoms: C_2  and  O_15
REMARK    2  A    between atoms: C_3  and  O_17
REMARK    3  A    between atoms: C_4  and  C_19
REMARK    4  A    between atoms: C_5  and  N_8
REMARK    5  A    between atoms: C_19  and  O_20
REMARK    6  A    between atoms: O_20  and  P_21
REMARK    7  A    between atoms: P_21  and  O_23
REMARK    8  A    between atoms: P_21  and  O_25
REMARK                            x       y       z     vdW  Elec       q    Type
REMARK                         _______ _______ _______ _____ _____    ______ ____
ROOT
ATOM      1  O   UNL     1      37.290 -23.415 -14.576  0.00  0.00    -0.332 OA
ATOM      2  C   UNL     1      36.344 -24.603 -12.759  0.00  0.00    +0.171 C 
ATOM      3  C   UNL     1      35.224 -24.129 -13.662  0.00  0.00    +0.188 C 
ATOM      4  C   UNL     1      37.554 -24.515 -13.678  0.00  0.00    +0.176 C 
ATOM      5  C   UNL     1      35.909 -23.037 -14.465  0.00  0.00    +0.246 C 
ENDROOT
BRANCH   5   8
ATOM      6  O   UNL     1      37.158 -21.729 -16.668  0.00  0.00    -0.250 OA
ATOM      7  O   UNL     1      33.532 -22.686 -19.338  0.00  0.00    -0.268 OA
ATOM      8  N   UNL     1      35.357 -22.896 -15.782  0.00  0.00    -0.136 N 
ATOM      9  N   UNL     1      34.116 -23.453 -15.961  0.00  0.00    -0.166 NA
ATOM     10  N   UNL     1      35.391 -22.172 -18.036  0.00  0.00    -0.233 N 
ATOM     11  C   UNL     1      36.042 -22.234 -16.813  0.00  0.00    +0.331 C 
ATOM     12  C   UNL     1      33.545 -23.375 -17.114  0.00  0.00    +0.176 C 
ATOM     13  C   UNL     1      34.154 -22.705 -18.288  0.00  0.00    +0.274 C 
ATOM     14  H   UNL     1      35.850 -21.713 -18.775  0.00  0.00    +0.159 HD
ENDBRANCH   5   8
BRANCH   2  15
ATOM     15  O   UNL     1      36.538 -23.681 -11.687  0.00  0.00    -0.379 OA
ATOM     16  H   UNL     1      37.041 -24.112 -10.977  0.00  0.00    +0.211 HD
ENDBRANCH   2  15
BRANCH   3  17
ATOM     17  O   UNL     1      34.113 -23.652 -12.933  0.00  0.00    -0.378 OA
ATOM     18  H   UNL     1      33.322 -24.154 -13.183  0.00  0.00    +0.211 HD
ENDBRANCH   3  17
BRANCH   4  19
ATOM     19  C   UNL     1      37.767 -25.770 -14.514  0.00  0.00    +0.186 C 
BRANCH  19  20
ATOM     20  O   UNL     1      38.928 -26.434 -14.048  0.00  0.00    -0.271 OA
BRANCH  20  21
ATOM     21  P   UNL     1      40.376 -25.867 -14.500  0.00  0.00    +0.473 P 
ATOM     22  O   UNL     1      40.750 -24.539 -13.907  0.00  0.00    -0.227 OA
BRANCH  21  23
ATOM     23  O   UNL     1      40.317 -25.909 -16.115  0.00  0.00    -0.303 OA
ATOM     24  H   UNL     1      39.980 -25.061 -16.448  0.00  0.00    +0.222 HD
ENDBRANCH  21  23
BRANCH  21  25
ATOM     25  O   UNL     1      41.373 -27.085 -14.132  0.00  0.00    -0.303 OA
ATOM     26  H   UNL     1      40.995 -27.604 -13.406  0.00  0.00    +0.222 HD
ENDBRANCH  21  25
ENDBRANCH  20  21
ENDBRANCH  19  20
ENDBRANCH   4  19
TORSDOF 8
ENDMDL
MODEL 5
REMARK VINA RESULT:      -8.3      3.260      4.568
REMARK  Name = 150959
REMARK  8 active torsions:
REMARK  status: ('A' for Active; 'I' for Inactive)
REMARK    1  A    between atoms: C_2  and  O_15
REMARK    2  A    between atoms: C_3  and  O_17
REMARK    3  A    between atoms: C_4  and  C_19
REMARK    4  A    between atoms: C_5  and  N_8
REMARK    5  A    between atoms: C_19  and  O_20
REMARK    6  A    between atoms: O_20  and  P_21
REMARK    7  A    between atoms: P_21  and  O_23
REMARK    8  A    between atoms: P_21  and  O_25
REMARK                            x       y       z     vdW  Elec       q    Type
REMARK                         _______ _______ _______ _____ _____    ______ ____
ROOT
ATOM      1  O   UNL     1      32.000 -25.391 -14.547  0.00  0.00    -0.332 OA
ATOM      2  C   UNL     1      30.378 -24.090 -13.413  0.00  0.00    +0.171 C 
ATOM      3  C   UNL     1      31.659 -23.288 -13.510  0.00  0.00    +0.188 C 
ATOM      4  C   UNL     1      30.578 -25.143 -14.494  0.00  0.00    +0.176 C 
ATOM      5  C   UNL     1      32.685 -24.367 -13.806  0.00  0.00    +0.246 C 
ENDROOT
BRANCH   5   8
ATOM      6  O   UNL     1      35.365 -24.025 -12.896  0.00  0.00    -0.250 OA
ATOM      7  O   UNL     1      36.618 -22.496 -17.053  0.00  0.00    -0.268 OA
ATOM      8  N   UNL     1      33.784 -23.881 -14.590  0.00  0.00    -0.136 N 
ATOM      9  N   UNL     1      33.481 -23.562 -15.890  0.00  0.00    -0.166 NA
ATOM     10  N   UNL     1      36.042 -23.259 -14.931  0.00  0.00    -0.233 N 
ATOM     11  C   UNL     1      35.076 -23.741 -14.061  0.00  0.00    +0.331 C 
ATOM     12  C   UNL     1      34.408 -23.117 -16.667  0.00  0.00    +0.176 C 
ATOM     13  C   UNL     1      35.813 -22.921 -16.239  0.00  0.00    +0.274 C 
ATOM     14  H   UNL     1      36.956 -23.153 -14.585  0.00  0.00    +0.159 HD
ENDBRANCH   5   8
BRANCH   2  15
ATOM     15  O   UNL     1      30.307 -24.759 -12.155  0.00  0.00    -0.379 OA
ATOM     16  H   UNL     1      29.420 -25.133 -12.037  0.00  0.00    +0.211 HD
ENDBRANCH   2  15
BRANCH   3  17
ATOM     17  O   UNL     1      31.940 -22.582 -12.319  0.00  0.00    -0.378 OA
ATOM     18  H   UNL     1      31.621 -21.670 -12.401  0.00  0.00    +0.211 HD
ENDBRANCH   3  17
BRANCH   4  19
ATOM     19  C   UNL     1      30.125 -24.683 -15.874  0.00  0.00    +0.186 C 
BRANCH  19  20
ATOM     20  O   UNL     1      28.764 -24.298 -15.799  0.00  0.00    -0.271 OA
BRANCH  20  21
ATOM     21  P   UNL     1      28.314 -22.913 -16.507  0.00  0.00    +0.473 P 
ATOM     22  O   UNL     1      27.598 -21.945 -15.609  0.00  0.00    -0.227 OA
BRANCH  21  23
ATOM     23  O   UNL     1      27.479 -23.399 -17.804  0.00  0.00    -0.303 OA
ATOM     24  H   UNL     1      27.685 -24.329 -17.991  0.00  0.00    +0.222 HD
ENDBRANCH  21  23
BRANCH  21  25
ATOM     25  O   UNL     1      29.696 -22.363 -17.140  0.00  0.00    -0.303 OA
ATOM     26  H   UNL     1      29.804 -22.714 -18.037  0.00  0.00    +0.222 HD
ENDBRANCH  21  25
ENDBRANCH  20  21
ENDBRANCH  19  20
ENDBRANCH   4  19
TORSDOF 8
ENDMDL
MODEL 6
REMARK VINA RESULT:      -8.2      2.985      6.060
REMARK  Name = 150959
REMARK  8 active torsions:
REMARK  status: ('A' for Active; 'I' for Inactive)
REMARK    1  A    between atoms: C_2  and  O_15
REMARK    2  A    between atoms: C_3  and  O_17
REMARK    3  A    between atoms: C_4  and  C_19
REMARK    4  A    between atoms: C_5  and  N_8
REMARK    5  A    between atoms: C_19  and  O_20
REMARK    6  A    between atoms: O_20  and  P_21
REMARK    7  A    between atoms: P_21  and  O_23
REMARK    8  A    between atoms: P_21  and  O_25
REMARK                            x       y       z     vdW  Elec       q    Type
REMARK                         _______ _______ _______ _____ _____    ______ ____
ROOT
ATOM      1  O   UNL     1      35.797 -22.987 -14.648  0.00  0.00    -0.332 OA
ATOM      2  C   UNL     1      35.380 -24.951 -13.391  0.00  0.00    +0.171 C 
ATOM      3  C   UNL     1      34.250 -24.763 -14.382  0.00  0.00    +0.188 C 
ATOM      4  C   UNL     1      36.476 -24.077 -13.987  0.00  0.00    +0.176 C 
ATOM      5  C   UNL     1      34.398 -23.297 -14.752  0.00  0.00    +0.246 C 
ENDROOT
BRANCH   5   8
ATOM      6  O   UNL     1      31.688 -23.156 -15.625  0.00  0.00    -0.250 OA
ATOM      7  O   UNL     1      33.080 -22.229 -19.913  0.00  0.00    -0.268 OA
ATOM      8  N   UNL     1      33.958 -23.022 -16.090  0.00  0.00    -0.136 N 
ATOM      9  N   UNL     1      34.959 -22.814 -17.005  0.00  0.00    -0.166 NA
ATOM     10  N   UNL     1      32.318 -22.697 -17.765  0.00  0.00    -0.233 N 
ATOM     11  C   UNL     1      32.599 -22.972 -16.436  0.00  0.00    +0.331 C 
ATOM     12  C   UNL     1      34.656 -22.559 -18.232  0.00  0.00    +0.176 C 
ATOM     13  C   UNL     1      33.263 -22.477 -18.732  0.00  0.00    +0.274 C 
ATOM     14  H   UNL     1      31.372 -22.656 -18.033  0.00  0.00    +0.159 HD
ENDBRANCH   5   8
BRANCH   2  15
ATOM     15  O   UNL     1      35.023 -24.405 -12.123  0.00  0.00    -0.379 OA
ATOM     16  H   UNL     1      35.730 -23.818 -11.813  0.00  0.00    +0.211 HD
ENDBRANCH   2  15
BRANCH   3  17
ATOM     17  O   UNL     1      32.989 -25.057 -13.818  0.00  0.00    -0.378 OA
ATOM     18  H   UNL     1      32.306 -24.996 -14.504  0.00  0.00    +0.211 HD
ENDBRANCH   3  17
BRANCH   4  19
ATOM     19  C   UNL     1      37.329 -24.802 -15.020  0.00  0.00    +0.186 C 
BRANCH  19  20
ATOM     20  O   UNL     1      38.643 -24.273 -14.973  0.00  0.00    -0.271 OA
BRANCH  20  21
ATOM     21  P   UNL     1      39.877 -25.293 -14.726  0.00  0.00    +0.473 P 
ATOM     22  O   UNL     1      41.030 -24.717 -13.957  0.00  0.00    -0.227 OA
BRANCH  21  23
ATOM     23  O   UNL     1      40.235 -25.828 -16.210  0.00  0.00    -0.303 OA
ATOM     24  H   UNL     1      40.412 -25.071 -16.792  0.00  0.00    +0.222 HD
ENDBRANCH  21  23
BRANCH  21  25
ATOM     25  O   UNL     1      39.161 -26.567 -14.034  0.00  0.00    -0.303 OA
ATOM     26  H   UNL     1      39.047 -27.271 -14.691  0.00  0.00    +0.222 HD
ENDBRANCH  21  25
ENDBRANCH  20  21
ENDBRANCH  19  20
ENDBRANCH   4  19
TORSDOF 8
ENDMDL
MODEL 7
REMARK VINA RESULT:      -8.2      2.028      2.649
REMARK  Name = 150959
REMARK  8 active torsions:
REMARK  status: ('A' for Active; 'I' for Inactive)
REMARK    1  A    between atoms: C_2  and  O_15
REMARK    2  A    between atoms: C_3  and  O_17
REMARK    3  A    between atoms: C_4  and  C_19
REMARK    4  A    between atoms: C_5  and  N_8
REMARK    5  A    between atoms: C_19  and  O_20
REMARK    6  A    between atoms: O_20  and  P_21
REMARK    7  A    between atoms: P_21  and  O_23
REMARK    8  A    between atoms: P_21  and  O_25
REMARK                            x       y       z     vdW  Elec       q    Type
REMARK                         _______ _______ _______ _____ _____    ______ ____
ROOT
ATOM      1  O   UNL     1      35.073 -25.246 -15.305  0.00  0.00    -0.332 OA
ATOM      2  C   UNL     1      33.861 -24.052 -13.657  0.00  0.00    +0.171 C 
ATOM      3  C   UNL     1      35.183 -24.489 -13.062  0.00  0.00    +0.188 C 
ATOM      4  C   UNL     1      34.131 -24.161 -15.152  0.00  0.00    +0.176 C 
ATOM      5  C   UNL     1      35.609 -25.590 -14.017  0.00  0.00    +0.246 C 
ENDROOT
BRANCH   5   8
ATOM      6  O   UNL     1      37.022 -27.185 -15.911  0.00  0.00    -0.250 OA
ATOM      7  O   UNL     1      41.037 -25.792 -14.140  0.00  0.00    -0.268 OA
ATOM      8  N   UNL     1      37.036 -25.705 -14.122  0.00  0.00    -0.136 N 
ATOM      9  N   UNL     1      37.752 -24.966 -13.214  0.00  0.00    -0.166 NA
ATOM     10  N   UNL     1      39.038 -26.533 -15.075  0.00  0.00    -0.233 N 
ATOM     11  C   UNL     1      37.652 -26.517 -15.087  0.00  0.00    +0.331 C 
ATOM     12  C   UNL     1      39.040 -25.008 -13.237  0.00  0.00    +0.176 C 
ATOM     13  C   UNL     1      39.818 -25.822 -14.200  0.00  0.00    +0.274 C 
ATOM     14  H   UNL     1      39.494 -27.094 -15.741  0.00  0.00    +0.159 HD
ENDBRANCH   5   8
BRANCH   2  15
ATOM     15  O   UNL     1      32.836 -24.988 -13.326  0.00  0.00    -0.379 OA
ATOM     16  H   UNL     1      33.135 -25.551 -12.596  0.00  0.00    +0.211 HD
ENDBRANCH   2  15
BRANCH   3  17
ATOM     17  O   UNL     1      35.048 -24.945 -11.732  0.00  0.00    -0.378 OA
ATOM     18  H   UNL     1      34.207 -24.630 -11.366  0.00  0.00    +0.211 HD
ENDBRANCH   3  17
BRANCH   4  19
ATOM     19  C   UNL     1      34.755 -22.904 -15.744  0.00  0.00    +0.186 C 
BRANCH  19  20
ATOM     20  O   UNL     1      35.984 -23.253 -16.356  0.00  0.00    -0.271 OA
BRANCH  20  21
ATOM     21  P   UNL     1      37.303 -22.390 -15.986  0.00  0.00    +0.473 P 
ATOM     22  O   UNL     1      37.454 -21.105 -16.749  0.00  0.00    -0.227 OA
BRANCH  21  23
ATOM     23  O   UNL     1      38.515 -23.445 -16.164  0.00  0.00    -0.303 OA
ATOM     24  H   UNL     1      39.338 -23.050 -15.834  0.00  0.00    +0.222 HD
ENDBRANCH  21  23
BRANCH  21  25
ATOM     25  O   UNL     1      37.188 -22.222 -14.382  0.00  0.00    -0.303 OA
ATOM     26  H   UNL     1      36.890 -21.324 -14.171  0.00  0.00    +0.222 HD
ENDBRANCH  21  25
ENDBRANCH  20  21
ENDBRANCH  19  20
ENDBRANCH   4  19
TORSDOF 8
ENDMDL
MODEL 8
REMARK VINA RESULT:      -8.1      2.858      5.504
REMARK  Name = 150959
REMARK  8 active torsions:
REMARK  status: ('A' for Active; 'I' for Inactive)
REMARK    1  A    between atoms: C_2  and  O_15
REMARK    2  A    between atoms: C_3  and  O_17
REMARK    3  A    between atoms: C_4  and  C_19
REMARK    4  A    between atoms: C_5  and  N_8
REMARK    5  A    between atoms: C_19  and  O_20
REMARK    6  A    between atoms: O_20  and  P_21
REMARK    7  A    between atoms: P_21  and  O_23
REMARK    8  A    between atoms: P_21  and  O_25
REMARK                            x       y       z     vdW  Elec       q    Type
REMARK                         _______ _______ _______ _____ _____    ______ ____
ROOT
ATOM      1  O   UNL     1      37.360 -23.427 -12.551  0.00  0.00    -0.332 OA
ATOM      2  C   UNL     1      36.058 -25.169 -11.611  0.00  0.00    +0.171 C 
ATOM      3  C   UNL     1      35.395 -24.706 -12.892  0.00  0.00    +0.188 C 
ATOM      4  C   UNL     1      37.477 -24.643 -11.779  0.00  0.00    +0.176 C 
ATOM      5  C   UNL     1      36.037 -23.347 -13.106  0.00  0.00    +0.246 C 
ENDROOT
BRANCH   5   8
ATOM      6  O   UNL     1      33.850 -22.999 -14.900  0.00  0.00    -0.250 OA
ATOM      7  O   UNL     1      36.768 -22.023 -18.324  0.00  0.00    -0.268 OA
ATOM      8  N   UNL     1      36.136 -23.000 -14.495  0.00  0.00    -0.136 N 
ATOM      9  N   UNL     1      37.412 -22.827 -14.968  0.00  0.00    -0.166 NA
ATOM     10  N   UNL     1      35.246 -22.511 -16.633  0.00  0.00    -0.233 N 
ATOM     11  C   UNL     1      35.003 -22.848 -15.310  0.00  0.00    +0.331 C 
ATOM     12  C   UNL     1      37.595 -22.512 -16.204  0.00  0.00    +0.176 C 
ATOM     13  C   UNL     1      36.490 -22.322 -17.174  0.00  0.00    +0.274 C 
ATOM     14  H   UNL     1      34.468 -22.399 -17.225  0.00  0.00    +0.159 HD
ENDBRANCH   5   8
BRANCH   2  15
ATOM     15  O   UNL     1      35.475 -24.511 -10.487  0.00  0.00    -0.379 OA
ATOM     16  H   UNL     1      35.723 -24.979  -9.674  0.00  0.00    +0.211 HD
ENDBRANCH   2  15
BRANCH   3  17
ATOM     17  O   UNL     1      33.990 -24.631 -12.770  0.00  0.00    -0.378 OA
ATOM     18  H   UNL     1      33.593 -24.549 -13.651  0.00  0.00    +0.211 HD
ENDBRANCH   3  17
BRANCH   4  19
ATOM     19  C   UNL     1      38.389 -25.600 -12.536  0.00  0.00    +0.186 C 
BRANCH  19  20
ATOM     20  O   UNL     1      39.379 -24.844 -13.209  0.00  0.00    -0.271 OA
BRANCH  20  21
ATOM     21  P   UNL     1      40.184 -25.541 -14.430  0.00  0.00    +0.473 P 
ATOM     22  O   UNL     1      39.323 -26.043 -15.552  0.00  0.00    -0.227 OA
BRANCH  21  23
ATOM     23  O   UNL     1      41.091 -26.663 -13.701  0.00  0.00    -0.303 OA
ATOM     24  H   UNL     1      41.705 -26.232 -13.084  0.00  0.00    +0.222 HD
ENDBRANCH  21  23
BRANCH  21  25
ATOM     25  O   UNL     1      41.259 -24.407 -14.848  0.00  0.00    -0.303 OA
ATOM     26  H   UNL     1      41.291 -23.723 -14.161  0.00  0.00    +0.222 HD
ENDBRANCH  21  25
ENDBRANCH  20  21
ENDBRANCH  19  20
ENDBRANCH   4  19
TORSDOF 8
ENDMDL
MODEL 9
REMARK VINA RESULT:      -8.0      7.037      9.965
REMARK  Name = 150959
REMARK  8 active torsions:
REMARK  status: ('A' for Active; 'I' for Inactive)
REMARK    1  A    between atoms: C_2  and  O_15
REMARK    2  A    between atoms: C_3  and  O_17
REMARK    3  A    between atoms: C_4  and  C_19
REMARK    4  A    between atoms: C_5  and  N_8
REMARK    5  A    between atoms: C_19  and  O_20
REMARK    6  A    between atoms: O_20  and  P_21
REMARK    7  A    between atoms: P_21  and  O_23
REMARK    8  A    between atoms: P_21  and  O_25
REMARK                            x       y       z     vdW  Elec       q    Type
REMARK                         _______ _______ _______ _____ _____    ______ ____
ROOT
ATOM      1  O   UNL     1      35.277 -17.470 -20.696  0.00  0.00    -0.332 OA
ATOM      2  C   UNL     1      34.759 -16.921 -22.941  0.00  0.00    +0.171 C 
ATOM      3  C   UNL     1      34.537 -18.406 -22.743  0.00  0.00    +0.188 C 
ATOM      4  C   UNL     1      34.744 -16.402 -21.510  0.00  0.00    +0.176 C 
ATOM      5  C   UNL     1      35.327 -18.677 -21.475  0.00  0.00    +0.246 C 
ENDROOT
BRANCH   5   8
ATOM      6  O   UNL     1      36.815 -20.694 -20.117  0.00  0.00    -0.250 OA
ATOM      7  O   UNL     1      32.910 -22.622 -18.628  0.00  0.00    -0.268 OA
ATOM      8  N   UNL     1      34.775 -19.753 -20.703  0.00  0.00    -0.136 N 
ATOM      9  N   UNL     1      33.405 -19.783 -20.633  0.00  0.00    -0.166 NA
ATOM     10  N   UNL     1      34.916 -21.692 -19.353  0.00  0.00    -0.233 N 
ATOM     11  C   UNL     1      35.583 -20.708 -20.065  0.00  0.00    +0.331 C 
ATOM     12  C   UNL     1      32.823 -20.715 -19.960  0.00  0.00    +0.176 C 
ATOM     13  C   UNL     1      33.554 -21.784 -19.239  0.00  0.00    +0.274 C 
ATOM     14  H   UNL     1      35.460 -22.373 -18.897  0.00  0.00    +0.159 HD
ENDBRANCH   5   8
BRANCH   2  15
ATOM     15  O   UNL     1      36.058 -16.683 -23.481  0.00  0.00    -0.379 OA
ATOM     16  H   UNL     1      36.727 -16.836 -22.795  0.00  0.00    +0.211 HD
ENDBRANCH   2  15
BRANCH   3  17
ATOM     17  O   UNL     1      34.993 -19.168 -23.841  0.00  0.00    -0.378 OA
ATOM     18  H   UNL     1      34.375 -19.896 -24.010  0.00  0.00    +0.211 HD
ENDBRANCH   3  17
BRANCH   4  19
ATOM     19  C   UNL     1      33.345 -16.073 -21.004  0.00  0.00    +0.186 C 
BRANCH  19  20
ATOM     20  O   UNL     1      32.663 -15.337 -22.003  0.00  0.00    -0.271 OA
BRANCH  20  21
ATOM     21  P   UNL     1      32.742 -13.720 -21.959  0.00  0.00    +0.473 P 
ATOM     22  O   UNL     1      32.494 -13.109 -20.610  0.00  0.00    -0.227 OA
BRANCH  21  23
ATOM     23  O   UNL     1      31.724 -13.254 -23.126  0.00  0.00    -0.303 OA
ATOM     24  H   UNL     1      30.891 -13.746 -23.042  0.00  0.00    +0.222 HD
ENDBRANCH  21  23
BRANCH  21  25
ATOM     25  O   UNL     1      34.198 -13.411 -22.591  0.00  0.00    -0.303 OA
ATOM     26  H   UNL     1      34.274 -13.845 -23.455  0.00  0.00    +0.222 HD
ENDBRANCH  21  25
ENDBRANCH  20  21
ENDBRANCH  19  20
ENDBRANCH   4  19
TORSDOF 8
ENDMDL
