MODEL 1
REMARK VINA RESULT:      -9.3      0.000      0.000
REMARK  Name = 445967
REMARK  3 active torsions:
REMARK  status: ('A' for Active; 'I' for Inactive)
REMARK    1  A    between atoms: C_5  and  O_15
REMARK    2  A    between atoms: O_15  and  C_16
REMARK    3  A    between atoms: C_16  and  C_17
REMARK                            x       y       z     vdW  Elec       q    Type
REMARK                         _______ _______ _______ _____ _____    ______ ____
ROOT
ATOM      1  N   UNL     1      32.564 -23.661 -15.652  0.00  0.00    -0.356 NA
ATOM      2  N   UNL     1      28.505 -23.763 -15.262  0.00  0.00    -0.318 N 
ATOM      3  N   UNL     1      29.273 -22.722 -17.069  0.00  0.00    -0.311 N 
ATOM      4  N   UNL     1      32.986 -24.860 -13.639  0.00  0.00    -0.336 N 
ATOM      5  C   UNL     1      31.701 -23.111 -16.540  0.00  0.00    +0.293 C 
ATOM      6  C   UNL     1      30.326 -23.195 -16.322  0.00  0.00    +0.122 C 
ATOM      7  C   UNL     1      29.870 -23.851 -15.184  0.00  0.00    +0.050 C 
ATOM      8  C   UNL     1      30.720 -24.428 -14.250  0.00  0.00    +0.117 C 
ATOM      9  C   UNL     1      32.066 -24.289 -14.557  0.00  0.00    +0.163 C 
ATOM     10  C   UNL     1      28.196 -23.079 -16.406  0.00  0.00    +0.182 C 
ATOM     11  H   UNL     1      27.860 -24.125 -14.611  0.00  0.00    +0.148 HD
ATOM     12  H   UNL     1      29.316 -22.223 -17.917  0.00  0.00    +0.149 HD
ATOM     13  H   UNL     1      33.954 -24.793 -13.805  0.00  0.00    +0.144 HD
ATOM     14  H   UNL     1      32.656 -25.324 -12.836  0.00  0.00    +0.144 HD
ENDROOT
BRANCH   5  15
ATOM     15  O   UNL     1      32.225 -22.479 -17.641  0.00  0.00    -0.451 OA
BRANCH  15  16
ATOM     16  C   UNL     1      33.535 -22.847 -18.030  0.00  0.00    +0.208 C 
BRANCH  16  17
ATOM     17  C   UNL     1      33.891 -22.090 -19.308  0.00  0.00    +0.044 C 
ATOM     18  C   UNL     1      32.893 -20.951 -19.560  0.00  0.00    +0.004 C 
ATOM     19  C   UNL     1      35.327 -21.552 -19.238  0.00  0.00    +0.004 C 
ATOM     20  C   UNL     1      33.260 -20.146 -20.805  0.00  0.00    +0.000 C 
ATOM     21  C   UNL     1      35.690 -20.746 -20.483  0.00  0.00    +0.000 C 
ATOM     22  C   UNL     1      34.690 -19.621 -20.736  0.00  0.00    +0.000 C 
ENDBRANCH  16  17
ENDBRANCH  15  16
ENDBRANCH   5  15
TORSDOF 3
ENDMDL
MODEL 2
REMARK VINA RESULT:      -9.2      1.414      2.129
REMARK  Name = 445967
REMARK  3 active torsions:
REMARK  status: ('A' for Active; 'I' for Inactive)
REMARK    1  A    between atoms: C_5  and  O_15
REMARK    2  A    between atoms: O_15  and  C_16
REMARK    3  A    between atoms: C_16  and  C_17
REMARK                            x       y       z     vdW  Elec       q    Type
REMARK                         _______ _______ _______ _____ _____    ______ ____
ROOT
ATOM      1  N   UNL     1      34.158 -23.459 -16.818  0.00  0.00    -0.356 NA
ATOM      2  N   UNL     1      30.698 -23.396 -14.658  0.00  0.00    -0.318 N 
ATOM      3  N   UNL     1      30.524 -22.744 -16.776  0.00  0.00    -0.311 N 
ATOM      4  N   UNL     1      35.500 -24.252 -15.019  0.00  0.00    -0.336 N 
ATOM      5  C   UNL     1      32.958 -23.074 -17.316  0.00  0.00    +0.293 C 
ATOM      6  C   UNL     1      31.827 -23.085 -16.500  0.00  0.00    +0.122 C 
ATOM      7  C   UNL     1      31.962 -23.497 -15.178  0.00  0.00    +0.050 C 
ATOM      8  C   UNL     1      33.172 -23.899 -14.630  0.00  0.00    +0.117 C 
ATOM      9  C   UNL     1      34.234 -23.852 -15.522  0.00  0.00    +0.163 C 
ATOM     10  C   UNL     1      29.874 -22.942 -15.650  0.00  0.00    +0.182 C 
ATOM     11  H   UNL     1      30.431 -23.611 -13.734  0.00  0.00    +0.148 HD
ATOM     12  H   UNL     1      30.157 -22.421 -17.630  0.00  0.00    +0.149 HD
ATOM     13  H   UNL     1      36.290 -24.240 -15.606  0.00  0.00    +0.144 HD
ATOM     14  H   UNL     1      35.588 -24.543 -14.083  0.00  0.00    +0.144 HD
ENDROOT
BRANCH   5  15
ATOM     15  O   UNL     1      32.902 -22.680 -18.631  0.00  0.00    -0.451 OA
BRANCH  15  16
ATOM     16  C   UNL     1      34.132 -22.578 -19.324  0.00  0.00    +0.208 C 
BRANCH  16  17
ATOM     17  C   UNL     1      34.372 -21.110 -19.670  0.00  0.00    +0.044 C 
ATOM     18  C   UNL     1      35.710 -20.937 -20.402  0.00  0.00    +0.004 C 
ATOM     19  C   UNL     1      33.215 -20.556 -20.512  0.00  0.00    +0.004 C 
ATOM     20  C   UNL     1      35.947 -19.483 -20.806  0.00  0.00    +0.000 C 
ATOM     21  C   UNL     1      33.455 -19.103 -20.916  0.00  0.00    +0.000 C 
ATOM     22  C   UNL     1      34.791 -18.933 -21.635  0.00  0.00    +0.000 C 
ENDBRANCH  16  17
ENDBRANCH  15  16
ENDBRANCH   5  15
TORSDOF 3
ENDMDL
MODEL 3
REMARK VINA RESULT:      -9.0      6.125      9.047
REMARK  Name = 445967
REMARK  3 active torsions:
REMARK  status: ('A' for Active; 'I' for Inactive)
REMARK    1  A    between atoms: C_5  and  O_15
REMARK    2  A    between atoms: O_15  and  C_16
REMARK    3  A    between atoms: C_16  and  C_17
REMARK                            x       y       z     vdW  Elec       q    Type
REMARK                         _______ _______ _______ _____ _____    ______ ____
ROOT
ATOM      1  N   UNL     1      35.071 -17.132 -23.123  0.00  0.00    -0.356 NA
ATOM      2  N   UNL     1      32.671 -14.007 -22.069  0.00  0.00    -0.318 N 
ATOM      3  N   UNL     1      33.501 -15.194 -20.384  0.00  0.00    -0.311 N 
ATOM      4  N   UNL     1      34.874 -16.751 -25.465  0.00  0.00    -0.336 N 
ATOM      5  C   UNL     1      34.772 -16.801 -21.843  0.00  0.00    +0.293 C 
ATOM      6  C   UNL     1      33.939 -15.714 -21.579  0.00  0.00    +0.122 C 
ATOM      7  C   UNL     1      33.432 -14.986 -22.650  0.00  0.00    +0.050 C 
ATOM      8  C   UNL     1      33.714 -15.291 -23.975  0.00  0.00    +0.117 C 
ATOM      9  C   UNL     1      34.548 -16.389 -24.131  0.00  0.00    +0.163 C 
ATOM     10  C   UNL     1      32.744 -14.173 -20.713  0.00  0.00    +0.182 C 
ATOM     11  H   UNL     1      32.161 -13.308 -22.541  0.00  0.00    +0.148 HD
ATOM     12  H   UNL     1      33.710 -15.518 -19.477  0.00  0.00    +0.149 HD
ATOM     13  H   UNL     1      35.462 -17.521 -25.637  0.00  0.00    +0.144 HD
ATOM     14  H   UNL     1      34.511 -16.231 -26.218  0.00  0.00    +0.144 HD
ENDROOT
BRANCH   5  15
ATOM     15  O   UNL     1      35.310 -17.566 -20.838  0.00  0.00    -0.451 OA
BRANCH  15  16
ATOM     16  C   UNL     1      36.100 -18.675 -21.226  0.00  0.00    +0.208 C 
BRANCH  16  17
ATOM     17  C   UNL     1      35.304 -19.951 -20.963  0.00  0.00    +0.044 C 
ATOM     18  C   UNL     1      35.944 -20.766 -19.829  0.00  0.00    +0.004 C 
ATOM     19  C   UNL     1      33.841 -19.621 -20.638  0.00  0.00    +0.004 C 
ATOM     20  C   UNL     1      35.135 -22.022 -19.511  0.00  0.00    +0.000 C 
ATOM     21  C   UNL     1      33.035 -20.878 -20.318  0.00  0.00    +0.000 C 
ATOM     22  C   UNL     1      33.679 -21.690 -19.198  0.00  0.00    +0.000 C 
ENDBRANCH  16  17
ENDBRANCH  15  16
ENDBRANCH   5  15
TORSDOF 3
ENDMDL
MODEL 4
REMARK VINA RESULT:      -9.0      1.472      3.499
REMARK  Name = 445967
REMARK  3 active torsions:
REMARK  status: ('A' for Active; 'I' for Inactive)
REMARK    1  A    between atoms: C_5  and  O_15
REMARK    2  A    between atoms: O_15  and  C_16
REMARK    3  A    between atoms: C_16  and  C_17
REMARK                            x       y       z     vdW  Elec       q    Type
REMARK                         _______ _______ _______ _____ _____    ______ ____
ROOT
ATOM      1  N   UNL     1      32.241 -22.810 -17.393  0.00  0.00    -0.356 NA
ATOM      2  N   UNL     1      33.482 -24.408 -13.851  0.00  0.00    -0.318 N 
ATOM      3  N   UNL     1      35.075 -24.063 -15.363  0.00  0.00    -0.311 N 
ATOM      4  N   UNL     1      29.948 -22.694 -16.765  0.00  0.00    -0.336 N 
ATOM      5  C   UNL     1      33.528 -23.125 -17.111  0.00  0.00    +0.293 C 
ATOM      6  C   UNL     1      33.859 -23.670 -15.870  0.00  0.00    +0.122 C 
ATOM      7  C   UNL     1      32.844 -23.876 -14.941  0.00  0.00    +0.050 C 
ATOM      8  C   UNL     1      31.514 -23.566 -15.190  0.00  0.00    +0.117 C 
ATOM      9  C   UNL     1      31.290 -23.032 -16.451  0.00  0.00    +0.163 C 
ATOM     10  C   UNL     1      34.813 -24.500 -14.152  0.00  0.00    +0.182 C 
ATOM     11  H   UNL     1      33.059 -24.677 -13.004  0.00  0.00    +0.148 HD
ATOM     12  H   UNL     1      35.951 -24.026 -15.811  0.00  0.00    +0.149 HD
ATOM     13  H   UNL     1      29.729 -22.311 -17.644  0.00  0.00    +0.144 HD
ATOM     14  H   UNL     1      29.235 -22.842 -16.102  0.00  0.00    +0.144 HD
ENDROOT
BRANCH   5  15
ATOM     15  O   UNL     1      34.475 -22.893 -18.078  0.00  0.00    -0.451 OA
BRANCH  15  16
ATOM     16  C   UNL     1      34.006 -22.523 -19.361  0.00  0.00    +0.208 C 
BRANCH  16  17
ATOM     17  C   UNL     1      34.487 -21.105 -19.662  0.00  0.00    +0.044 C 
ATOM     18  C   UNL     1      35.924 -21.123 -20.203  0.00  0.00    +0.004 C 
ATOM     19  C   UNL     1      33.541 -20.409 -20.650  0.00  0.00    +0.004 C 
ATOM     20  C   UNL     1      36.409 -19.719 -20.562  0.00  0.00    +0.000 C 
ATOM     21  C   UNL     1      34.030 -19.007 -21.008  0.00  0.00    +0.000 C 
ATOM     22  C   UNL     1      35.461 -19.028 -21.536  0.00  0.00    +0.000 C 
ENDBRANCH  16  17
ENDBRANCH  15  16
ENDBRANCH   5  15
TORSDOF 3
ENDMDL
MODEL 5
REMARK VINA RESULT:      -9.0      6.037      9.051
REMARK  Name = 445967
REMARK  3 active torsions:
REMARK  status: ('A' for Active; 'I' for Inactive)
REMARK    1  A    between atoms: C_5  and  O_15
REMARK    2  A    between atoms: O_15  and  C_16
REMARK    3  A    between atoms: C_16  and  C_17
REMARK                            x       y       z     vdW  Elec       q    Type
REMARK                         _______ _______ _______ _____ _____    ______ ____
ROOT
ATOM      1  N   UNL     1      34.293 -16.082 -20.972  0.00  0.00    -0.356 NA
ATOM      2  N   UNL     1      33.824 -15.613 -24.996  0.00  0.00    -0.318 N 
ATOM      3  N   UNL     1      35.246 -17.202 -24.371  0.00  0.00    -0.311 N 
ATOM      4  N   UNL     1      32.762 -14.354 -20.391  0.00  0.00    -0.336 N 
ATOM      5  C   UNL     1      34.940 -16.823 -21.904  0.00  0.00    +0.293 C 
ATOM      6  C   UNL     1      34.716 -16.590 -23.260  0.00  0.00    +0.122 C 
ATOM      7  C   UNL     1      33.821 -15.589 -23.626  0.00  0.00    +0.050 C 
ATOM      8  C   UNL     1      33.138 -14.809 -22.703  0.00  0.00    +0.117 C 
ATOM      9  C   UNL     1      33.431 -15.119 -21.383  0.00  0.00    +0.163 C 
ATOM     10  C   UNL     1      34.691 -16.593 -25.394  0.00  0.00    +0.182 C 
ATOM     11  H   UNL     1      33.297 -15.028 -25.589  0.00  0.00    +0.148 HD
ATOM     12  H   UNL     1      35.901 -17.938 -24.395  0.00  0.00    +0.149 HD
ATOM     13  H   UNL     1      32.930 -14.529 -19.437  0.00  0.00    +0.144 HD
ATOM     14  H   UNL     1      32.130 -13.648 -20.658  0.00  0.00    +0.144 HD
ENDROOT
BRANCH   5  15
ATOM     15  O   UNL     1      35.808 -17.793 -21.467  0.00  0.00    -0.451 OA
BRANCH  15  16
ATOM     16  C   UNL     1      35.503 -19.132 -21.811  0.00  0.00    +0.208 C 
BRANCH  16  17
ATOM     17  C   UNL     1      34.970 -19.842 -20.568  0.00  0.00    +0.044 C 
ATOM     18  C   UNL     1      33.492 -20.219 -20.750  0.00  0.00    +0.004 C 
ATOM     19  C   UNL     1      35.814 -21.083 -20.249  0.00  0.00    +0.004 C 
ATOM     20  C   UNL     1      32.951 -20.978 -19.540  0.00  0.00    +0.000 C 
ATOM     21  C   UNL     1      35.269 -21.841 -19.040  0.00  0.00    +0.000 C 
ATOM     22  C   UNL     1      33.799 -22.205 -19.220  0.00  0.00    +0.000 C 
ENDBRANCH  16  17
ENDBRANCH  15  16
ENDBRANCH   5  15
TORSDOF 3
ENDMDL
MODEL 6
REMARK VINA RESULT:      -8.8      2.211      3.528
REMARK  Name = 445967
REMARK  3 active torsions:
REMARK  status: ('A' for Active; 'I' for Inactive)
REMARK    1  A    between atoms: C_5  and  O_15
REMARK    2  A    between atoms: O_15  and  C_16
REMARK    3  A    between atoms: C_16  and  C_17
REMARK                            x       y       z     vdW  Elec       q    Type
REMARK                         _______ _______ _______ _____ _____    ______ ____
ROOT
ATOM      1  N   UNL     1      35.551 -23.136 -16.613  0.00  0.00    -0.356 NA
ATOM      2  N   UNL     1      33.533 -24.682 -13.423  0.00  0.00    -0.318 N 
ATOM      3  N   UNL     1      32.269 -23.929 -15.089  0.00  0.00    -0.311 N 
ATOM      4  N   UNL     1      37.710 -23.521 -15.687  0.00  0.00    -0.336 N 
ATOM      5  C   UNL     1      34.200 -23.207 -16.530  0.00  0.00    +0.293 C 
ATOM      6  C   UNL     1      33.598 -23.753 -15.397  0.00  0.00    +0.122 C 
ATOM      7  C   UNL     1      34.410 -24.217 -14.367  0.00  0.00    +0.050 C 
ATOM      8  C   UNL     1      35.797 -24.163 -14.413  0.00  0.00    +0.117 C 
ATOM      9  C   UNL     1      36.297 -23.603 -15.580  0.00  0.00    +0.163 C 
ATOM     10  C   UNL     1      32.266 -24.488 -13.899  0.00  0.00    +0.182 C 
ATOM     11  H   UNL     1      33.772 -25.083 -12.555  0.00  0.00    +0.148 HD
ATOM     12  H   UNL     1      31.490 -23.688 -15.640  0.00  0.00    +0.149 HD
ATOM     13  H   UNL     1      38.122 -23.133 -16.492  0.00  0.00    +0.144 HD
ATOM     14  H   UNL     1      38.279 -23.852 -14.954  0.00  0.00    +0.144 HD
ENDROOT
BRANCH   5  15
ATOM     15  O   UNL     1      33.464 -22.729 -17.586  0.00  0.00    -0.451 OA
BRANCH  15  16
ATOM     16  C   UNL     1      34.066 -22.782 -18.866  0.00  0.00    +0.208 C 
BRANCH  16  17
ATOM     17  C   UNL     1      34.246 -21.353 -19.375  0.00  0.00    +0.044 C 
ATOM     18  C   UNL     1      35.553 -21.221 -20.169  0.00  0.00    +0.004 C 
ATOM     19  C   UNL     1      33.044 -20.927 -20.229  0.00  0.00    +0.004 C 
ATOM     20  C   UNL     1      35.729 -19.813 -20.735  0.00  0.00    +0.000 C 
ATOM     21  C   UNL     1      33.224 -19.520 -20.794  0.00  0.00    +0.000 C 
ATOM     22  C   UNL     1      34.528 -19.389 -21.574  0.00  0.00    +0.000 C 
ENDBRANCH  16  17
ENDBRANCH  15  16
ENDBRANCH   5  15
TORSDOF 3
ENDMDL
MODEL 7
REMARK VINA RESULT:      -8.7      2.427      4.173
REMARK  Name = 445967
REMARK  3 active torsions:
REMARK  status: ('A' for Active; 'I' for Inactive)
REMARK    1  A    between atoms: C_5  and  O_15
REMARK    2  A    between atoms: O_15  and  C_16
REMARK    3  A    between atoms: C_16  and  C_17
REMARK                            x       y       z     vdW  Elec       q    Type
REMARK                         _______ _______ _______ _____ _____    ______ ____
ROOT
ATOM      1  N   UNL     1      33.267 -23.390 -15.722  0.00  0.00    -0.356 NA
ATOM      2  N   UNL     1      36.565 -24.384 -13.537  0.00  0.00    -0.318 N 
ATOM      3  N   UNL     1      36.949 -23.787 -15.643  0.00  0.00    -0.311 N 
ATOM      4  N   UNL     1      31.730 -23.770 -13.944  0.00  0.00    -0.336 N 
ATOM      5  C   UNL     1      34.533 -23.372 -16.205  0.00  0.00    +0.293 C 
ATOM      6  C   UNL     1      35.600 -23.730 -15.382  0.00  0.00    +0.122 C 
ATOM      7  C   UNL     1      35.334 -24.099 -14.068  0.00  0.00    +0.050 C 
ATOM      8  C   UNL     1      34.052 -24.130 -13.534  0.00  0.00    +0.117 C 
ATOM      9  C   UNL     1      33.063 -23.759 -14.432  0.00  0.00    +0.163 C 
ATOM     10  C   UNL     1      37.498 -24.182 -14.516  0.00  0.00    +0.182 C 
ATOM     11  H   UNL     1      36.746 -24.681 -12.615  0.00  0.00    +0.148 HD
ATOM     12  H   UNL     1      37.404 -23.578 -16.490  0.00  0.00    +0.149 HD
ATOM     13  H   UNL     1      30.986 -23.516 -14.536  0.00  0.00    +0.144 HD
ATOM     14  H   UNL     1      31.549 -24.033 -13.013  0.00  0.00    +0.144 HD
ENDROOT
BRANCH   5  15
ATOM     15  O   UNL     1      34.718 -22.996 -17.513  0.00  0.00    -0.451 OA
BRANCH  15  16
ATOM     16  C   UNL     1      33.554 -22.772 -18.288  0.00  0.00    +0.208 C 
BRANCH  16  17
ATOM     17  C   UNL     1      33.942 -21.950 -19.516  0.00  0.00    +0.044 C 
ATOM     18  C   UNL     1      32.950 -20.798 -19.732  0.00  0.00    +0.004 C 
ATOM     19  C   UNL     1      35.375 -21.418 -19.382  0.00  0.00    +0.004 C 
ATOM     20  C   UNL     1      33.347 -19.929 -20.923  0.00  0.00    +0.000 C 
ATOM     21  C   UNL     1      35.768 -20.548 -20.574  0.00  0.00    +0.000 C 
ATOM     22  C   UNL     1      34.776 -19.410 -20.791  0.00  0.00    +0.000 C 
ENDBRANCH  16  17
ENDBRANCH  15  16
ENDBRANCH   5  15
TORSDOF 3
ENDMDL
MODEL 8
REMARK VINA RESULT:      -8.7      9.773     12.528
REMARK  Name = 445967
REMARK  3 active torsions:
REMARK  status: ('A' for Active; 'I' for Inactive)
REMARK    1  A    between atoms: C_5  and  O_15
REMARK    2  A    between atoms: O_15  and  C_16
REMARK    3  A    between atoms: C_16  and  C_17
REMARK                            x       y       z     vdW  Elec       q    Type
REMARK                         _______ _______ _______ _____ _____    ______ ____
ROOT
ATOM      1  N   UNL     1      32.228 -12.547 -22.632  0.00  0.00    -0.356 NA
ATOM      2  N   UNL     1      33.869  -9.027 -23.877  0.00  0.00    -0.318 N 
ATOM      3  N   UNL     1      34.908 -10.869 -24.561  0.00  0.00    -0.311 N 
ATOM      4  N   UNL     1      30.459 -11.520 -21.413  0.00  0.00    -0.336 N 
ATOM      5  C   UNL     1      33.332 -12.457 -23.412  0.00  0.00    +0.293 C 
ATOM      6  C   UNL     1      33.822 -11.207 -23.788  0.00  0.00    +0.122 C 
ATOM      7  C   UNL     1      33.155 -10.069 -23.347  0.00  0.00    +0.050 C 
ATOM      8  C   UNL     1      32.021 -10.117 -22.547  0.00  0.00    +0.117 C 
ATOM      9  C   UNL     1      31.615 -11.405 -22.229  0.00  0.00    +0.163 C 
ATOM     10  C   UNL     1      34.907  -9.555 -24.595  0.00  0.00    +0.182 C 
ATOM     11  H   UNL     1      33.672  -8.068 -23.762  0.00  0.00    +0.148 HD
ATOM     12  H   UNL     1      35.547 -11.479 -24.995  0.00  0.00    +0.149 HD
ATOM     13  H   UNL     1      30.125 -12.409 -21.155  0.00  0.00    +0.144 HD
ATOM     14  H   UNL     1      29.992 -10.710 -21.105  0.00  0.00    +0.144 HD
ENDROOT
BRANCH   5  15
ATOM     15  O   UNL     1      33.938 -13.624 -23.808  0.00  0.00    -0.451 OA
BRANCH  15  16
ATOM     16  C   UNL     1      34.351 -14.513 -22.787  0.00  0.00    +0.208 C 
BRANCH  16  17
ATOM     17  C   UNL     1      34.924 -15.769 -23.441  0.00  0.00    +0.044 C 
ATOM     18  C   UNL     1      35.030 -16.912 -22.422  0.00  0.00    +0.004 C 
ATOM     19  C   UNL     1      34.073 -16.189 -24.646  0.00  0.00    +0.004 C 
ATOM     20  C   UNL     1      35.551 -18.195 -23.065  0.00  0.00    +0.000 C 
ATOM     21  C   UNL     1      34.595 -17.474 -25.286  0.00  0.00    +0.000 C 
ATOM     22  C   UNL     1      34.707 -18.605 -24.268  0.00  0.00    +0.000 C 
ENDBRANCH  16  17
ENDBRANCH  15  16
ENDBRANCH   5  15
TORSDOF 3
ENDMDL
MODEL 9
REMARK VINA RESULT:      -8.5      9.524     12.104
REMARK  Name = 445967
REMARK  3 active torsions:
REMARK  status: ('A' for Active; 'I' for Inactive)
REMARK    1  A    between atoms: C_5  and  O_15
REMARK    2  A    between atoms: O_15  and  C_16
REMARK    3  A    between atoms: C_16  and  C_17
REMARK                            x       y       z     vdW  Elec       q    Type
REMARK                         _______ _______ _______ _____ _____    ______ ____
ROOT
ATOM      1  N   UNL     1      34.159 -12.282 -24.213  0.00  0.00    -0.356 NA
ATOM      2  N   UNL     1      31.434 -10.125 -22.077  0.00  0.00    -0.318 N 
ATOM      3  N   UNL     1      31.375 -12.326 -21.771  0.00  0.00    -0.311 N 
ATOM      4  N   UNL     1      35.123 -10.383 -25.278  0.00  0.00    -0.336 N 
ATOM      5  C   UNL     1      33.258 -12.827 -23.361  0.00  0.00    +0.293 C 
ATOM      6  C   UNL     1      32.362 -12.008 -22.673  0.00  0.00    +0.122 C 
ATOM      7  C   UNL     1      32.419 -10.634 -22.882  0.00  0.00    +0.050 C 
ATOM      8  C   UNL     1      33.327 -10.036 -23.746  0.00  0.00    +0.117 C 
ATOM      9  C   UNL     1      34.171 -10.935 -24.381  0.00  0.00    +0.163 C 
ATOM     10  C   UNL     1      30.838 -11.174 -21.434  0.00  0.00    +0.182 C 
ATOM     11  H   UNL     1      31.196  -9.174 -21.980  0.00  0.00    +0.148 HD
ATOM     12  H   UNL     1      31.124 -13.221 -21.447  0.00  0.00    +0.149 HD
ATOM     13  H   UNL     1      35.749 -10.973 -25.757  0.00  0.00    +0.144 HD
ATOM     14  H   UNL     1      35.158  -9.410 -25.421  0.00  0.00    +0.144 HD
ENDROOT
BRANCH   5  15
ATOM     15  O   UNL     1      33.261 -14.192 -23.206  0.00  0.00    -0.451 OA
BRANCH  15  16
ATOM     16  C   UNL     1      34.299 -14.746 -22.418  0.00  0.00    +0.208 C 
BRANCH  16  17
ATOM     17  C   UNL     1      34.900 -15.929 -23.174  0.00  0.00    +0.044 C 
ATOM     18  C   UNL     1      34.960 -17.173 -22.276  0.00  0.00    +0.004 C 
ATOM     19  C   UNL     1      34.103 -16.218 -24.453  0.00  0.00    +0.004 C 
ATOM     20  C   UNL     1      35.508 -18.385 -23.027  0.00  0.00    +0.000 C 
ATOM     21  C   UNL     1      34.653 -17.431 -25.200  0.00  0.00    +0.000 C 
ATOM     22  C   UNL     1      34.719 -18.662 -24.302  0.00  0.00    +0.000 C 
ENDBRANCH  16  17
ENDBRANCH  15  16
ENDBRANCH   5  15
TORSDOF 3
ENDMDL
