MODEL 1
REMARK VINA RESULT:      -7.5      0.000      0.000
REMARK  Name = 3454
REMARK  7 active torsions:
REMARK  status: ('A' for Active; 'I' for Inactive)
REMARK    1  A    between atoms: N_2  and  C_15
REMARK    2  A    between atoms: C_15  and  O_16
REMARK    3  A    between atoms: O_16  and  C_17
REMARK    4  A    between atoms: C_17  and  C_18
REMARK    5  A    between atoms: C_17  and  C_21
REMARK    6  A    between atoms: C_18  and  O_19
REMARK    7  A    between atoms: C_21  and  O_22
REMARK                            x       y       z     vdW  Elec       q    Type
REMARK                         _______ _______ _______ _____ _____    ______ ____
ROOT
ATOM      1  O   UNL     1      33.164 -21.433 -19.933  0.00  0.00    -0.208 OA
ATOM      2  N   UNL     1      36.199 -22.698 -16.829  0.00  0.00    -0.206 NA
ATOM      3  N   UNL     1      33.881 -23.297 -16.398  0.00  0.00    -0.279 N 
ATOM      4  N   UNL     1      35.873 -21.653 -18.789  0.00  0.00    -0.241 NA
ATOM      5  N   UNL     1      32.341 -22.586 -18.098  0.00  0.00    -0.301 NA
ATOM      6  N   UNL     1      31.627 -23.766 -16.186  0.00  0.00    -0.320 N 
ATOM      7  C   UNL     1      34.873 -22.750 -17.103  0.00  0.00    +0.191 C 
ATOM      8  C   UNL     1      34.685 -22.114 -18.295  0.00  0.00    +0.183 C 
ATOM      9  C   UNL     1      36.765 -22.020 -17.885  0.00  0.00    +0.205 C 
ATOM     10  C   UNL     1      33.356 -22.001 -18.865  0.00  0.00    +0.224 C 
ATOM     11  C   UNL     1      32.607 -23.185 -16.952  0.00  0.00    +0.245 C 
ATOM     12  H   UNL     1      34.039 -23.752 -15.539  0.00  0.00    +0.152 HD
ATOM     13  H   UNL     1      31.862 -24.204 -15.336  0.00  0.00    +0.146 HD
ATOM     14  H   UNL     1      30.690 -23.744 -16.486  0.00  0.00    +0.146 HD
ENDROOT
BRANCH   2  15
ATOM     15  C   UNL     1      36.892 -23.231 -15.684  0.00  0.00    +0.223 C 
BRANCH  15  16
ATOM     16  O   UNL     1      36.499 -24.589 -15.541  0.00  0.00    -0.335 OA
BRANCH  16  17
ATOM     17  C   UNL     1      37.312 -25.268 -14.593  0.00  0.00    +0.175 C 
BRANCH  17  18
ATOM     18  C   UNL     1      38.757 -24.848 -14.826  0.00  0.00    +0.169 C 
BRANCH  18  19
ATOM     19  O   UNL     1      39.442 -25.898 -15.500  0.00  0.00    -0.379 OA
ATOM     20  H   UNL     1      39.940 -26.426 -14.856  0.00  0.00    +0.211 HD
ENDBRANCH  18  19
ENDBRANCH  17  18
BRANCH  17  21
ATOM     21  C   UNL     1      37.131 -26.770 -14.780  0.00  0.00    +0.169 C 
BRANCH  21  22
ATOM     22  O   UNL     1      36.802 -27.053 -16.135  0.00  0.00    -0.379 OA
ATOM     23  H   UNL     1      36.500 -26.241 -16.571  0.00  0.00    +0.211 HD
ENDBRANCH  21  22
ENDBRANCH  17  21
ENDBRANCH  16  17
ENDBRANCH  15  16
ENDBRANCH   2  15
TORSDOF 7
ENDMDL
MODEL 2
REMARK VINA RESULT:      -7.4      2.745      4.165
REMARK  Name = 3454
REMARK  7 active torsions:
REMARK  status: ('A' for Active; 'I' for Inactive)
REMARK    1  A    between atoms: N_2  and  C_15
REMARK    2  A    between atoms: C_15  and  O_16
REMARK    3  A    between atoms: O_16  and  C_17
REMARK    4  A    between atoms: C_17  and  C_18
REMARK    5  A    between atoms: C_17  and  C_21
REMARK    6  A    between atoms: C_18  and  O_19
REMARK    7  A    between atoms: C_21  and  O_22
REMARK                            x       y       z     vdW  Elec       q    Type
REMARK                         _______ _______ _______ _____ _____    ______ ____
ROOT
ATOM      1  O   UNL     1      32.146 -24.701 -13.268  0.00  0.00    -0.208 OA
ATOM      2  N   UNL     1      36.586 -24.005 -12.777  0.00  0.00    -0.206 NA
ATOM      3  N   UNL     1      35.619 -23.411 -14.929  0.00  0.00    -0.279 N 
ATOM      4  N   UNL     1      34.702 -24.734 -11.798  0.00  0.00    -0.241 NA
ATOM      5  N   UNL     1      33.257 -23.814 -15.099  0.00  0.00    -0.301 NA
ATOM      6  N   UNL     1      34.499 -22.914 -16.889  0.00  0.00    -0.320 N 
ATOM      7  C   UNL     1      35.582 -23.874 -13.677  0.00  0.00    +0.191 C 
ATOM      8  C   UNL     1      34.442 -24.318 -13.074  0.00  0.00    +0.183 C 
ATOM      9  C   UNL     1      36.000 -24.533 -11.649  0.00  0.00    +0.205 C 
ATOM     10  C   UNL     1      33.181 -24.306 -13.790  0.00  0.00    +0.224 C 
ATOM     11  C   UNL     1      34.403 -23.401 -15.610  0.00  0.00    +0.245 C 
ATOM     12  H   UNL     1      36.453 -23.095 -15.345  0.00  0.00    +0.152 HD
ATOM     13  H   UNL     1      35.370 -22.616 -17.238  0.00  0.00    +0.146 HD
ATOM     14  H   UNL     1      33.697 -22.864 -17.458  0.00  0.00    +0.146 HD
ENDROOT
BRANCH   2  15
ATOM     15  C   UNL     1      37.977 -23.670 -12.942  0.00  0.00    +0.223 C 
BRANCH  15  16
ATOM     16  O   UNL     1      38.420 -24.262 -14.155  0.00  0.00    -0.335 OA
BRANCH  16  17
ATOM     17  C   UNL     1      38.935 -25.569 -13.938  0.00  0.00    +0.175 C 
BRANCH  17  18
ATOM     18  C   UNL     1      40.347 -25.618 -14.507  0.00  0.00    +0.169 C 
BRANCH  18  19
ATOM     19  O   UNL     1      40.272 -25.737 -15.923  0.00  0.00    -0.379 OA
ATOM     20  H   UNL     1      40.035 -24.879 -16.308  0.00  0.00    +0.211 HD
ENDBRANCH  18  19
ENDBRANCH  17  18
BRANCH  17  21
ATOM     21  C   UNL     1      38.021 -26.576 -14.627  0.00  0.00    +0.169 C 
BRANCH  21  22
ATOM     22  O   UNL     1      37.206 -25.912 -15.587  0.00  0.00    -0.379 OA
ATOM     23  H   UNL     1      37.691 -25.158 -15.958  0.00  0.00    +0.211 HD
ENDBRANCH  21  22
ENDBRANCH  17  21
ENDBRANCH  16  17
ENDBRANCH  15  16
ENDBRANCH   2  15
TORSDOF 7
ENDMDL
MODEL 3
REMARK VINA RESULT:      -7.4      1.776      2.193
REMARK  Name = 3454
REMARK  7 active torsions:
REMARK  status: ('A' for Active; 'I' for Inactive)
REMARK    1  A    between atoms: N_2  and  C_15
REMARK    2  A    between atoms: C_15  and  O_16
REMARK    3  A    between atoms: O_16  and  C_17
REMARK    4  A    between atoms: C_17  and  C_18
REMARK    5  A    between atoms: C_17  and  C_21
REMARK    6  A    between atoms: C_18  and  O_19
REMARK    7  A    between atoms: C_21  and  O_22
REMARK                            x       y       z     vdW  Elec       q    Type
REMARK                         _______ _______ _______ _____ _____    ______ ____
ROOT
ATOM      1  O   UNL     1      32.855 -22.871 -17.610  0.00  0.00    -0.208 OA
ATOM      2  N   UNL     1      36.540 -23.362 -15.038  0.00  0.00    -0.206 NA
ATOM      3  N   UNL     1      34.460 -24.254 -14.146  0.00  0.00    -0.279 N 
ATOM      4  N   UNL     1      35.718 -22.574 -16.972  0.00  0.00    -0.241 NA
ATOM      5  N   UNL     1      32.557 -23.949 -15.579  0.00  0.00    -0.301 NA
ATOM      6  N   UNL     1      32.383 -25.030 -13.491  0.00  0.00    -0.320 N 
ATOM      7  C   UNL     1      35.214 -23.637 -15.059  0.00  0.00    +0.191 C 
ATOM      8  C   UNL     1      34.724 -23.155 -16.237  0.00  0.00    +0.183 C 
ATOM      9  C   UNL     1      36.799 -22.713 -16.224  0.00  0.00    +0.205 C 
ATOM     10  C   UNL     1      33.317 -23.297 -16.558  0.00  0.00    +0.224 C 
ATOM     11  C   UNL     1      33.109 -24.388 -14.463  0.00  0.00    +0.245 C 
ATOM     12  H   UNL     1      34.835 -24.595 -13.302  0.00  0.00    +0.152 HD
ATOM     13  H   UNL     1      32.828 -25.343 -12.672  0.00  0.00    +0.146 HD
ATOM     14  H   UNL     1      31.417 -25.177 -13.615  0.00  0.00    +0.146 HD
ENDROOT
BRANCH   2  15
ATOM     15  C   UNL     1      37.496 -23.673 -14.005  0.00  0.00    +0.223 C 
BRANCH  15  16
ATOM     16  O   UNL     1      38.630 -24.254 -14.633  0.00  0.00    -0.335 OA
BRANCH  16  17
ATOM     17  C   UNL     1      38.966 -25.504 -14.047  0.00  0.00    +0.175 C 
BRANCH  17  18
ATOM     18  C   UNL     1      40.338 -25.913 -14.566  0.00  0.00    +0.169 C 
BRANCH  18  19
ATOM     19  O   UNL     1      40.317 -25.907 -15.989  0.00  0.00    -0.379 OA
ATOM     20  H   UNL     1      41.097 -26.375 -16.326  0.00  0.00    +0.211 HD
ENDBRANCH  18  19
ENDBRANCH  17  18
BRANCH  17  21
ATOM     21  C   UNL     1      37.899 -26.525 -14.427  0.00  0.00    +0.169 C 
BRANCH  21  22
ATOM     22  O   UNL     1      37.547 -26.370 -15.798  0.00  0.00    -0.379 OA
ATOM     23  H   UNL     1      38.188 -25.786 -16.232  0.00  0.00    +0.211 HD
ENDBRANCH  21  22
ENDBRANCH  17  21
ENDBRANCH  16  17
ENDBRANCH  15  16
ENDBRANCH   2  15
TORSDOF 7
ENDMDL
MODEL 4
REMARK VINA RESULT:      -7.4      7.876     11.609
REMARK  Name = 3454
REMARK  7 active torsions:
REMARK  status: ('A' for Active; 'I' for Inactive)
REMARK    1  A    between atoms: N_2  and  C_15
REMARK    2  A    between atoms: C_15  and  O_16
REMARK    3  A    between atoms: O_16  and  C_17
REMARK    4  A    between atoms: C_17  and  C_18
REMARK    5  A    between atoms: C_17  and  C_21
REMARK    6  A    between atoms: C_18  and  O_19
REMARK    7  A    between atoms: C_21  and  O_22
REMARK                            x       y       z     vdW  Elec       q    Type
REMARK                         _______ _______ _______ _____ _____    ______ ____
ROOT
ATOM      1  O   UNL     1      35.970 -18.781 -20.383  0.00  0.00    -0.208 OA
ATOM      2  N   UNL     1      34.110 -15.077 -22.188  0.00  0.00    -0.206 NA
ATOM      3  N   UNL     1      34.362 -16.999 -23.657  0.00  0.00    -0.279 N 
ATOM      4  N   UNL     1      34.988 -16.001 -20.340  0.00  0.00    -0.241 NA
ATOM      5  N   UNL     1      35.358 -18.919 -22.615  0.00  0.00    -0.301 NA
ATOM      6  N   UNL     1      34.692 -18.936 -24.876  0.00  0.00    -0.320 N 
ATOM      7  C   UNL     1      34.471 -16.345 -22.499  0.00  0.00    +0.191 C 
ATOM      8  C   UNL     1      35.002 -16.898 -21.371  0.00  0.00    +0.183 C 
ATOM      9  C   UNL     1      34.445 -14.915 -20.863  0.00  0.00    +0.205 C 
ATOM     10  C   UNL     1      35.488 -18.265 -21.383  0.00  0.00    +0.224 C 
ATOM     11  C   UNL     1      34.830 -18.312 -23.661  0.00  0.00    +0.245 C 
ATOM     12  H   UNL     1      33.975 -16.580 -24.459  0.00  0.00    +0.152 HD
ATOM     13  H   UNL     1      34.294 -18.452 -25.635  0.00  0.00    +0.146 HD
ATOM     14  H   UNL     1      34.992 -19.867 -24.987  0.00  0.00    +0.146 HD
ENDROOT
BRANCH   2  15
ATOM     15  C   UNL     1      33.502 -14.090 -23.044  0.00  0.00    +0.223 C 
BRANCH  15  16
ATOM     16  O   UNL     1      34.008 -14.291 -24.356  0.00  0.00    -0.335 OA
BRANCH  16  17
ATOM     17  C   UNL     1      33.032 -13.985 -25.342  0.00  0.00    +0.175 C 
BRANCH  17  18
ATOM     18  C   UNL     1      32.824 -15.228 -26.198  0.00  0.00    +0.169 C 
BRANCH  18  19
ATOM     19  O   UNL     1      34.039 -15.967 -26.244  0.00  0.00    -0.379 OA
ATOM     20  H   UNL     1      34.771 -15.373 -26.477  0.00  0.00    +0.211 HD
ENDBRANCH  18  19
ENDBRANCH  17  18
BRANCH  17  21
ATOM     21  C   UNL     1      33.529 -12.811 -26.176  0.00  0.00    +0.169 C 
BRANCH  21  22
ATOM     22  O   UNL     1      33.643 -13.199 -27.541  0.00  0.00    -0.379 OA
ATOM     23  H   UNL     1      32.780 -13.504 -27.863  0.00  0.00    +0.211 HD
ENDBRANCH  21  22
ENDBRANCH  17  21
ENDBRANCH  16  17
ENDBRANCH  15  16
ENDBRANCH   2  15
TORSDOF 7
ENDMDL
MODEL 5
REMARK VINA RESULT:      -7.3      7.013      9.424
REMARK  Name = 3454
REMARK  7 active torsions:
REMARK  status: ('A' for Active; 'I' for Inactive)
REMARK    1  A    between atoms: N_2  and  C_15
REMARK    2  A    between atoms: C_15  and  O_16
REMARK    3  A    between atoms: O_16  and  C_17
REMARK    4  A    between atoms: C_17  and  C_18
REMARK    5  A    between atoms: C_17  and  C_21
REMARK    6  A    between atoms: C_18  and  O_19
REMARK    7  A    between atoms: C_21  and  O_22
REMARK                            x       y       z     vdW  Elec       q    Type
REMARK                         _______ _______ _______ _____ _____    ______ ____
ROOT
ATOM      1  O   UNL     1      33.339 -15.170 -26.902  0.00  0.00    -0.208 OA
ATOM      2  N   UNL     1      34.764 -17.317 -23.187  0.00  0.00    -0.206 NA
ATOM      3  N   UNL     1      33.612 -15.202 -22.851  0.00  0.00    -0.279 N 
ATOM      4  N   UNL     1      34.648 -17.364 -25.428  0.00  0.00    -0.241 NA
ATOM      5  N   UNL     1      32.891 -14.133 -24.877  0.00  0.00    -0.301 NA
ATOM      6  N   UNL     1      32.495 -13.180 -22.758  0.00  0.00    -0.320 N 
ATOM      7  C   UNL     1      34.117 -16.196 -23.585  0.00  0.00    +0.191 C 
ATOM      8  C   UNL     1      34.050 -16.233 -24.946  0.00  0.00    +0.183 C 
ATOM      9  C   UNL     1      35.068 -17.996 -24.346  0.00  0.00    +0.205 C 
ATOM     10  C   UNL     1      33.409 -15.159 -25.679  0.00  0.00    +0.224 C 
ATOM     11  C   UNL     1      32.996 -14.174 -23.562  0.00  0.00    +0.245 C 
ATOM     12  H   UNL     1      33.671 -15.195 -21.869  0.00  0.00    +0.152 HD
ATOM     13  H   UNL     1      32.591 -13.243 -21.781  0.00  0.00    +0.146 HD
ATOM     14  H   UNL     1      32.039 -12.405 -23.160  0.00  0.00    +0.146 HD
ENDROOT
BRANCH   2  15
ATOM     15  C   UNL     1      35.079 -17.734 -21.844  0.00  0.00    +0.223 C 
BRANCH  15  16
ATOM     16  O   UNL     1      33.887 -18.248 -21.265  0.00  0.00    -0.335 OA
BRANCH  16  17
ATOM     17  C   UNL     1      33.887 -19.669 -21.249  0.00  0.00    +0.175 C 
BRANCH  17  18
ATOM     18  C   UNL     1      32.896 -20.127 -20.188  0.00  0.00    +0.169 C 
BRANCH  18  19
ATOM     19  O   UNL     1      32.776 -21.544 -20.246  0.00  0.00    -0.379 OA
ATOM     20  H   UNL     1      31.906 -21.781 -20.603  0.00  0.00    +0.211 HD
ENDBRANCH  18  19
ENDBRANCH  17  18
BRANCH  17  21
ATOM     21  C   UNL     1      35.299 -20.155 -20.941  0.00  0.00    +0.169 C 
BRANCH  21  22
ATOM     22  O   UNL     1      35.367 -20.620 -19.597  0.00  0.00    -0.379 OA
ATOM     23  H   UNL     1      35.221 -19.878 -18.990  0.00  0.00    +0.211 HD
ENDBRANCH  21  22
ENDBRANCH  17  21
ENDBRANCH  16  17
ENDBRANCH  15  16
ENDBRANCH   2  15
TORSDOF 7
ENDMDL
MODEL 6
REMARK VINA RESULT:      -7.3      2.508      3.497
REMARK  Name = 3454
REMARK  7 active torsions:
REMARK  status: ('A' for Active; 'I' for Inactive)
REMARK    1  A    between atoms: N_2  and  C_15
REMARK    2  A    between atoms: C_15  and  O_16
REMARK    3  A    between atoms: O_16  and  C_17
REMARK    4  A    between atoms: C_17  and  C_18
REMARK    5  A    between atoms: C_17  and  C_21
REMARK    6  A    between atoms: C_18  and  O_19
REMARK    7  A    between atoms: C_21  and  O_22
REMARK                            x       y       z     vdW  Elec       q    Type
REMARK                         _______ _______ _______ _____ _____    ______ ____
ROOT
ATOM      1  O   UNL     1      29.403 -22.557 -17.150  0.00  0.00    -0.208 OA
ATOM      2  N   UNL     1      33.728 -23.517 -16.253  0.00  0.00    -0.206 NA
ATOM      3  N   UNL     1      32.108 -24.059 -14.521  0.00  0.00    -0.279 N 
ATOM      4  N   UNL     1      32.287 -22.674 -17.753  0.00  0.00    -0.241 NA
ATOM      5  N   UNL     1      29.837 -23.515 -15.084  0.00  0.00    -0.301 NA
ATOM      6  N   UNL     1      30.408 -24.493 -13.017  0.00  0.00    -0.320 N 
ATOM      7  C   UNL     1      32.489 -23.590 -15.712  0.00  0.00    +0.191 C 
ATOM      8  C   UNL     1      31.620 -23.077 -16.630  0.00  0.00    +0.183 C 
ATOM      9  C   UNL     1      33.553 -22.952 -17.496  0.00  0.00    +0.205 C 
ATOM     10  C   UNL     1      30.200 -23.015 -16.341  0.00  0.00    +0.224 C 
ATOM     11  C   UNL     1      30.742 -23.997 -14.252  0.00  0.00    +0.245 C 
ATOM     12  H   UNL     1      32.752 -24.426 -13.874  0.00  0.00    +0.152 HD
ATOM     13  H   UNL     1      31.108 -24.845 -12.422  0.00  0.00    +0.146 HD
ATOM     14  H   UNL     1      29.467 -24.497 -12.726  0.00  0.00    +0.146 HD
ENDROOT
BRANCH   2  15
ATOM     15  C   UNL     1      34.978 -23.936 -15.672  0.00  0.00    +0.223 C 
BRANCH  15  16
ATOM     16  O   UNL     1      35.152 -23.213 -14.462  0.00  0.00    -0.335 OA
BRANCH  16  17
ATOM     17  C   UNL     1      36.029 -23.890 -13.572  0.00  0.00    +0.175 C 
BRANCH  17  18
ATOM     18  C   UNL     1      36.404 -25.223 -14.206  0.00  0.00    +0.169 C 
BRANCH  18  19
ATOM     19  O   UNL     1      36.404 -26.231 -13.201  0.00  0.00    -0.379 OA
ATOM     20  H   UNL     1      36.972 -26.967 -13.480  0.00  0.00    +0.211 HD
ENDBRANCH  18  19
ENDBRANCH  17  18
BRANCH  17  21
ATOM     21  C   UNL     1      35.319 -24.088 -12.238  0.00  0.00    +0.169 C 
BRANCH  21  22
ATOM     22  O   UNL     1      34.059 -24.715 -12.449  0.00  0.00    -0.379 OA
ATOM     23  H   UNL     1      33.502 -24.145 -13.003  0.00  0.00    +0.211 HD
ENDBRANCH  21  22
ENDBRANCH  17  21
ENDBRANCH  16  17
ENDBRANCH  15  16
ENDBRANCH   2  15
TORSDOF 7
ENDMDL
MODEL 7
REMARK VINA RESULT:      -7.3      4.150      7.769
REMARK  Name = 3454
REMARK  7 active torsions:
REMARK  status: ('A' for Active; 'I' for Inactive)
REMARK    1  A    between atoms: N_2  and  C_15
REMARK    2  A    between atoms: C_15  and  O_16
REMARK    3  A    between atoms: O_16  and  C_17
REMARK    4  A    between atoms: C_17  and  C_18
REMARK    5  A    between atoms: C_17  and  C_21
REMARK    6  A    between atoms: C_18  and  O_19
REMARK    7  A    between atoms: C_21  and  O_22
REMARK                            x       y       z     vdW  Elec       q    Type
REMARK                         _______ _______ _______ _____ _____    ______ ____
ROOT
ATOM      1  O   UNL     1      32.693 -23.024 -18.339  0.00  0.00    -0.208 OA
ATOM      2  N   UNL     1      34.705 -19.780 -20.761  0.00  0.00    -0.206 NA
ATOM      3  N   UNL     1      36.088 -20.944 -19.133  0.00  0.00    -0.279 N 
ATOM      4  N   UNL     1      32.794 -20.891 -20.372  0.00  0.00    -0.241 NA
ATOM      5  N   UNL     1      34.937 -22.649 -17.894  0.00  0.00    -0.301 NA
ATOM      6  N   UNL     1      37.218 -22.173 -17.535  0.00  0.00    -0.320 N 
ATOM      7  C   UNL     1      34.954 -20.690 -19.789  0.00  0.00    +0.191 C 
ATOM      8  C   UNL     1      33.788 -21.360 -19.560  0.00  0.00    +0.183 C 
ATOM      9  C   UNL     1      33.377 -19.940 -21.083  0.00  0.00    +0.205 C 
ATOM     10  C   UNL     1      33.729 -22.410 -18.562  0.00  0.00    +0.224 C 
ATOM     11  C   UNL     1      36.024 -21.954 -18.176  0.00  0.00    +0.245 C 
ATOM     12  H   UNL     1      36.919 -20.448 -19.314  0.00  0.00    +0.152 HD
ATOM     13  H   UNL     1      38.008 -21.637 -17.770  0.00  0.00    +0.146 HD
ATOM     14  H   UNL     1      37.283 -22.867 -16.839  0.00  0.00    +0.146 HD
ENDROOT
BRANCH   2  15
ATOM     15  C   UNL     1      35.621 -18.835 -21.349  0.00  0.00    +0.223 C 
BRANCH  15  16
ATOM     16  O   UNL     1      35.287 -17.548 -20.850  0.00  0.00    -0.335 OA
BRANCH  16  17
ATOM     17  C   UNL     1      34.464 -16.833 -21.762  0.00  0.00    +0.175 C 
BRANCH  17  18
ATOM     18  C   UNL     1      34.946 -17.144 -23.172  0.00  0.00    +0.169 C 
BRANCH  18  19
ATOM     19  O   UNL     1      35.694 -16.036 -23.661  0.00  0.00    -0.379 OA
ATOM     20  H   UNL     1      36.493 -15.923 -23.123  0.00  0.00    +0.211 HD
ENDBRANCH  18  19
ENDBRANCH  17  18
BRANCH  17  21
ATOM     21  C   UNL     1      34.568 -15.344 -21.452  0.00  0.00    +0.169 C 
BRANCH  21  22
ATOM     22  O   UNL     1      34.944 -15.158 -20.092  0.00  0.00    -0.379 OA
ATOM     23  H   UNL     1      35.584 -15.840 -19.836  0.00  0.00    +0.211 HD
ENDBRANCH  21  22
ENDBRANCH  17  21
ENDBRANCH  16  17
ENDBRANCH  15  16
ENDBRANCH   2  15
TORSDOF 7
ENDMDL
MODEL 8
REMARK VINA RESULT:      -7.3      1.974      2.820
REMARK  Name = 3454
REMARK  7 active torsions:
REMARK  status: ('A' for Active; 'I' for Inactive)
REMARK    1  A    between atoms: N_2  and  C_15
REMARK    2  A    between atoms: C_15  and  O_16
REMARK    3  A    between atoms: O_16  and  C_17
REMARK    4  A    between atoms: C_17  and  C_18
REMARK    5  A    between atoms: C_17  and  C_21
REMARK    6  A    between atoms: C_18  and  O_19
REMARK    7  A    between atoms: C_21  and  O_22
REMARK                            x       y       z     vdW  Elec       q    Type
REMARK                         _______ _______ _______ _____ _____    ______ ____
ROOT
ATOM      1  O   UNL     1      29.486 -22.838 -17.150  0.00  0.00    -0.208 OA
ATOM      2  N   UNL     1      33.902 -23.359 -16.338  0.00  0.00    -0.206 NA
ATOM      3  N   UNL     1      32.378 -24.059 -14.576  0.00  0.00    -0.279 N 
ATOM      4  N   UNL     1      32.355 -22.665 -17.808  0.00  0.00    -0.241 NA
ATOM      5  N   UNL     1      30.054 -23.746 -15.094  0.00  0.00    -0.301 NA
ATOM      6  N   UNL     1      30.759 -24.661 -13.039  0.00  0.00    -0.320 N 
ATOM      7  C   UNL     1      32.687 -23.556 -15.773  0.00  0.00    +0.191 C 
ATOM      8  C   UNL     1      31.754 -23.132 -16.673  0.00  0.00    +0.183 C 
ATOM      9  C   UNL     1      33.648 -22.814 -17.576  0.00  0.00    +0.205 C 
ATOM     10  C   UNL     1      30.341 -23.213 -16.358  0.00  0.00    +0.224 C 
ATOM     11  C   UNL     1      31.019 -24.135 -14.281  0.00  0.00    +0.245 C 
ATOM     12  H   UNL     1      33.068 -24.359 -13.942  0.00  0.00    +0.152 HD
ATOM     13  H   UNL     1      31.503 -24.940 -12.459  0.00  0.00    +0.146 HD
ATOM     14  H   UNL     1      29.830 -24.759 -12.731  0.00  0.00    +0.146 HD
ENDROOT
BRANCH   2  15
ATOM     15  C   UNL     1      35.199 -23.650 -15.781  0.00  0.00    +0.223 C 
BRANCH  15  16
ATOM     16  O   UNL     1      35.278 -25.056 -15.592  0.00  0.00    -0.335 OA
BRANCH  16  17
ATOM     17  C   UNL     1      36.336 -25.404 -14.710  0.00  0.00    +0.175 C 
BRANCH  17  18
ATOM     18  C   UNL     1      37.483 -24.429 -14.944  0.00  0.00    +0.169 C 
BRANCH  18  19
ATOM     19  O   UNL     1      38.638 -25.159 -15.340  0.00  0.00    -0.379 OA
ATOM     20  H   UNL     1      38.893 -25.772 -14.632  0.00  0.00    +0.211 HD
ENDBRANCH  18  19
ENDBRANCH  17  18
BRANCH  17  21
ATOM     21  C   UNL     1      36.759 -26.840 -14.994  0.00  0.00    +0.169 C 
BRANCH  21  22
ATOM     22  O   UNL     1      36.648 -27.111 -16.387  0.00  0.00    -0.379 OA
ATOM     23  H   UNL     1      36.008 -27.826 -16.527  0.00  0.00    +0.211 HD
ENDBRANCH  21  22
ENDBRANCH  17  21
ENDBRANCH  16  17
ENDBRANCH  15  16
ENDBRANCH   2  15
TORSDOF 7
ENDMDL
MODEL 9
REMARK VINA RESULT:      -7.3      2.438      2.861
REMARK  Name = 3454
REMARK  7 active torsions:
REMARK  status: ('A' for Active; 'I' for Inactive)
REMARK    1  A    between atoms: N_2  and  C_15
REMARK    2  A    between atoms: C_15  and  O_16
REMARK    3  A    between atoms: O_16  and  C_17
REMARK    4  A    between atoms: C_17  and  C_18
REMARK    5  A    between atoms: C_17  and  C_21
REMARK    6  A    between atoms: C_18  and  O_19
REMARK    7  A    between atoms: C_21  and  O_22
REMARK                            x       y       z     vdW  Elec       q    Type
REMARK                         _______ _______ _______ _____ _____    ______ ____
ROOT
ATOM      1  O   UNL     1      32.597 -22.823 -18.019  0.00  0.00    -0.208 OA
ATOM      2  N   UNL     1      36.138 -23.215 -15.236  0.00  0.00    -0.206 NA
ATOM      3  N   UNL     1      33.981 -23.924 -14.364  0.00  0.00    -0.279 N 
ATOM      4  N   UNL     1      35.441 -22.588 -17.275  0.00  0.00    -0.241 NA
ATOM      5  N   UNL     1      32.159 -23.681 -15.910  0.00  0.00    -0.301 NA
ATOM      6  N   UNL     1      31.843 -24.541 -13.738  0.00  0.00    -0.320 N 
ATOM      7  C   UNL     1      34.803 -23.434 -15.295  0.00  0.00    +0.191 C 
ATOM      8  C   UNL     1      34.389 -23.051 -16.536  0.00  0.00    +0.183 C 
ATOM      9  C   UNL     1      36.480 -22.699 -16.466  0.00  0.00    +0.205 C 
ATOM     10  C   UNL     1      32.992 -23.163 -16.910  0.00  0.00    +0.224 C 
ATOM     11  C   UNL     1      32.641 -24.030 -14.731  0.00  0.00    +0.245 C 
ATOM     12  H   UNL     1      34.302 -24.195 -13.474  0.00  0.00    +0.152 HD
ATOM     13  H   UNL     1      32.236 -24.790 -12.871  0.00  0.00    +0.146 HD
ATOM     14  H   UNL     1      30.878 -24.658 -13.894  0.00  0.00    +0.146 HD
ENDROOT
BRANCH   2  15
ATOM     15  C   UNL     1      37.033 -23.463 -14.133  0.00  0.00    +0.223 C 
BRANCH  15  16
ATOM     16  O   UNL     1      36.305 -23.241 -12.934  0.00  0.00    -0.335 OA
BRANCH  16  17
ATOM     17  C   UNL     1      36.813 -24.028 -11.865  0.00  0.00    +0.175 C 
BRANCH  17  18
ATOM     18  C   UNL     1      37.534 -25.228 -12.465  0.00  0.00    +0.169 C 
BRANCH  18  19
ATOM     19  O   UNL     1      36.843 -26.416 -12.096  0.00  0.00    -0.379 OA
ATOM     20  H   UNL     1      37.443 -27.001 -11.607  0.00  0.00    +0.211 HD
ENDBRANCH  18  19
ENDBRANCH  17  18
BRANCH  17  21
ATOM     21  C   UNL     1      35.650 -24.461 -10.980  0.00  0.00    +0.169 C 
BRANCH  21  22
ATOM     22  O   UNL     1      34.562 -24.894 -11.789  0.00  0.00    -0.379 OA
ATOM     23  H   UNL     1      34.438 -24.274 -12.524  0.00  0.00    +0.211 HD
ENDBRANCH  21  22
ENDBRANCH  17  21
ENDBRANCH  16  17
ENDBRANCH  15  16
ENDBRANCH   2  15
TORSDOF 7
ENDMDL
