MODEL 1
REMARK VINA RESULT:      -6.7      0.000      0.000
REMARK  Name = 439190
REMARK  11 active torsions:
REMARK  status: ('A' for Active; 'I' for Inactive)
REMARK    1  A    between atoms: C_1  and  O_2
REMARK    2  A    between atoms: C_1  and  C_4
REMARK    3  A    between atoms: C_1  and  C_12
REMARK    4  A    between atoms: C_4  and  O_5
REMARK    5  A    between atoms: C_4  and  C_8
REMARK    6  A    between atoms: C_8  and  C_9
REMARK    7  A    between atoms: C_9  and  O_10
REMARK    8  A    between atoms: C_12  and  O_13
REMARK    9  A    between atoms: O_13  and  P_14
REMARK   10  A    between atoms: P_14  and  O_16
REMARK   11  A    between atoms: P_14  and  O_18
REMARK                            x       y       z     vdW  Elec       q    Type
REMARK                         _______ _______ _______ _____ _____    ______ ____
ROOT
ATOM      1  C   UNL     1      36.648 -25.704 -13.888  0.00  0.00    +0.175 C 
ENDROOT
BRANCH   1   2
ATOM      2  O   UNL     1      36.839 -26.656 -12.837  0.00  0.00    -0.379 OA
ATOM      3  H   UNL     1      37.635 -27.180 -13.017  0.00  0.00    +0.211 HD
ENDBRANCH   1   2
BRANCH   1   4
ATOM      4  C   UNL     1      36.735 -24.282 -13.325  0.00  0.00    +0.200 C 
BRANCH   4   5
ATOM      5  O   UNL     1      37.723 -23.549 -14.034  0.00  0.00    -0.375 OA
ATOM      6  H   UNL     1      38.487 -24.121 -14.210  0.00  0.00    +0.211 HD
ENDBRANCH   4   5
BRANCH   4   8
ATOM      7  O   UNL     1      38.231 -24.413 -11.436  0.00  0.00    -0.291 OA
ATOM      8  C   UNL     1      37.077 -24.260 -11.838  0.00  0.00    +0.209 C 
BRANCH   8   9
ATOM      9  C   UNL     1      35.929 -24.012 -10.878  0.00  0.00    +0.205 C 
BRANCH   9  10
ATOM     10  O   UNL     1      35.280 -25.226 -10.559  0.00  0.00    -0.375 OA
ATOM     11  H   UNL     1      35.543 -25.910 -11.194  0.00  0.00    +0.211 HD
ENDBRANCH   9  10
ENDBRANCH   8   9
ENDBRANCH   4   8
ENDBRANCH   1   4
BRANCH   1  12
ATOM     12  C   UNL     1      37.727 -25.966 -14.938  0.00  0.00    +0.186 C 
BRANCH  12  13
ATOM     13  O   UNL     1      38.800 -26.676 -14.328  0.00  0.00    -0.271 OA
BRANCH  13  14
ATOM     14  P   UNL     1      40.297 -26.089 -14.496  0.00  0.00    +0.473 P 
ATOM     15  O   UNL     1      41.391 -26.978 -13.979  0.00  0.00    -0.227 OA
BRANCH  14  16
ATOM     16  O   UNL     1      40.216 -24.624 -13.815  0.00  0.00    -0.303 OA
ATOM     17  H   UNL     1      39.818 -24.700 -12.934  0.00  0.00    +0.222 HD
ENDBRANCH  14  16
BRANCH  14  18
ATOM     18  O   UNL     1      40.375 -25.761 -16.077  0.00  0.00    -0.303 OA
ATOM     19  H   UNL     1      41.136 -25.187 -16.252  0.00  0.00    +0.222 HD
ENDBRANCH  14  18
ENDBRANCH  13  14
ENDBRANCH  12  13
ENDBRANCH   1  12
TORSDOF 11
ENDMDL
MODEL 2
REMARK VINA RESULT:      -6.5      0.624      1.809
REMARK  Name = 439190
REMARK  11 active torsions:
REMARK  status: ('A' for Active; 'I' for Inactive)
REMARK    1  A    between atoms: C_1  and  O_2
REMARK    2  A    between atoms: C_1  and  C_4
REMARK    3  A    between atoms: C_1  and  C_12
REMARK    4  A    between atoms: C_4  and  O_5
REMARK    5  A    between atoms: C_4  and  C_8
REMARK    6  A    between atoms: C_8  and  C_9
REMARK    7  A    between atoms: C_9  and  O_10
REMARK    8  A    between atoms: C_12  and  O_13
REMARK    9  A    between atoms: O_13  and  P_14
REMARK   10  A    between atoms: P_14  and  O_16
REMARK   11  A    between atoms: P_14  and  O_18
REMARK                            x       y       z     vdW  Elec       q    Type
REMARK                         _______ _______ _______ _____ _____    ______ ____
ROOT
ATOM      1  C   UNL     1      36.480 -26.134 -14.051  0.00  0.00    +0.175 C 
ENDROOT
BRANCH   1   2
ATOM      2  O   UNL     1      36.899 -26.786 -12.849  0.00  0.00    -0.379 OA
ATOM      3  H   UNL     1      37.868 -26.810 -12.815  0.00  0.00    +0.211 HD
ENDBRANCH   1   2
BRANCH   1   4
ATOM      4  C   UNL     1      36.172 -24.661 -13.763  0.00  0.00    +0.200 C 
BRANCH   4   5
ATOM      5  O   UNL     1      37.275 -23.857 -14.160  0.00  0.00    -0.375 OA
ATOM      6  H   UNL     1      36.989 -22.934 -14.243  0.00  0.00    +0.211 HD
ENDBRANCH   4   5
BRANCH   4   8
ATOM      7  O   UNL     1      34.859 -24.826 -11.745  0.00  0.00    -0.291 OA
ATOM      8  C   UNL     1      35.879 -24.400 -12.288  0.00  0.00    +0.209 C 
BRANCH   8   9
ATOM      9  C   UNL     1      36.920 -23.613 -11.515  0.00  0.00    +0.205 C 
BRANCH   9  10
ATOM     10  O   UNL     1      38.113 -24.360 -11.388  0.00  0.00    -0.375 OA
ATOM     11  H   UNL     1      38.757 -23.853 -10.869  0.00  0.00    +0.211 HD
ENDBRANCH   9  10
ENDBRANCH   8   9
ENDBRANCH   4   8
ENDBRANCH   1   4
BRANCH   1  12
ATOM     12  C   UNL     1      37.610 -26.289 -15.068  0.00  0.00    +0.186 C 
BRANCH  12  13
ATOM     13  O   UNL     1      38.771 -26.769 -14.398  0.00  0.00    -0.271 OA
BRANCH  13  14
ATOM     14  P   UNL     1      40.125 -25.891 -14.490  0.00  0.00    +0.473 P 
ATOM     15  O   UNL     1      40.106 -24.609 -13.710  0.00  0.00    -0.227 OA
BRANCH  14  16
ATOM     16  O   UNL     1      40.372 -25.729 -16.080  0.00  0.00    -0.303 OA
ATOM     17  H   UNL     1      39.916 -26.444 -16.552  0.00  0.00    +0.222 HD
ENDBRANCH  14  16
BRANCH  14  18
ATOM     18  O   UNL     1      41.265 -26.947 -14.042  0.00  0.00    -0.303 OA
ATOM     19  H   UNL     1      42.005 -26.907 -14.666  0.00  0.00    +0.222 HD
ENDBRANCH  14  18
ENDBRANCH  13  14
ENDBRANCH  12  13
ENDBRANCH   1  12
TORSDOF 11
ENDMDL
MODEL 3
REMARK VINA RESULT:      -6.4      0.998      1.792
REMARK  Name = 439190
REMARK  11 active torsions:
REMARK  status: ('A' for Active; 'I' for Inactive)
REMARK    1  A    between atoms: C_1  and  O_2
REMARK    2  A    between atoms: C_1  and  C_4
REMARK    3  A    between atoms: C_1  and  C_12
REMARK    4  A    between atoms: C_4  and  O_5
REMARK    5  A    between atoms: C_4  and  C_8
REMARK    6  A    between atoms: C_8  and  C_9
REMARK    7  A    between atoms: C_9  and  O_10
REMARK    8  A    between atoms: C_12  and  O_13
REMARK    9  A    between atoms: O_13  and  P_14
REMARK   10  A    between atoms: P_14  and  O_16
REMARK   11  A    between atoms: P_14  and  O_18
REMARK                            x       y       z     vdW  Elec       q    Type
REMARK                         _______ _______ _______ _____ _____    ______ ____
ROOT
ATOM      1  C   UNL     1      37.070 -25.100 -13.926  0.00  0.00    +0.175 C 
ENDROOT
BRANCH   1   2
ATOM      2  O   UNL     1      35.676 -25.401 -14.043  0.00  0.00    -0.379 OA
ATOM      3  H   UNL     1      35.462 -26.161 -13.480  0.00  0.00    +0.211 HD
ENDBRANCH   1   2
BRANCH   1   4
ATOM      4  C   UNL     1      37.514 -25.248 -12.467  0.00  0.00    +0.200 C 
BRANCH   4   5
ATOM      5  O   UNL     1      36.700 -26.213 -11.817  0.00  0.00    -0.375 OA
ATOM      6  H   UNL     1      36.419 -26.885 -12.459  0.00  0.00    +0.211 HD
ENDBRANCH   4   5
BRANCH   4   8
ATOM      7  O   UNL     1      38.380 -23.147 -11.653  0.00  0.00    -0.291 OA
ATOM      8  C   UNL     1      37.434 -23.934 -11.694  0.00  0.00    +0.209 C 
BRANCH   8   9
ATOM      9  C   UNL     1      36.120 -23.632 -10.999  0.00  0.00    +0.205 C 
BRANCH   9  10
ATOM     10  O   UNL     1      36.065 -24.275  -9.742  0.00  0.00    -0.375 OA
ATOM     11  H   UNL     1      35.154 -24.256  -9.409  0.00  0.00    +0.211 HD
ENDBRANCH   9  10
ENDBRANCH   8   9
ENDBRANCH   4   8
ENDBRANCH   1   4
BRANCH   1  12
ATOM     12  C   UNL     1      37.821 -26.060 -14.848  0.00  0.00    +0.186 C 
BRANCH  12  13
ATOM     13  O   UNL     1      38.962 -26.562 -14.159  0.00  0.00    -0.271 OA
BRANCH  13  14
ATOM     14  P   UNL     1      40.406 -25.925 -14.507  0.00  0.00    +0.473 P 
ATOM     15  O   UNL     1      40.681 -24.591 -13.877  0.00  0.00    -0.227 OA
BRANCH  14  16
ATOM     16  O   UNL     1      40.460 -25.951 -16.124  0.00  0.00    -0.303 OA
ATOM     17  H   UNL     1      39.598 -26.230 -16.471  0.00  0.00    +0.222 HD
ENDBRANCH  14  16
BRANCH  14  18
ATOM     18  O   UNL     1      41.426 -27.105 -14.082  0.00  0.00    -0.303 OA
ATOM     19  H   UNL     1      42.217 -27.066 -14.642  0.00  0.00    +0.222 HD
ENDBRANCH  14  18
ENDBRANCH  13  14
ENDBRANCH  12  13
ENDBRANCH   1  12
TORSDOF 11
ENDMDL
MODEL 4
REMARK VINA RESULT:      -6.4      1.600      2.715
REMARK  Name = 439190
REMARK  11 active torsions:
REMARK  status: ('A' for Active; 'I' for Inactive)
REMARK    1  A    between atoms: C_1  and  O_2
REMARK    2  A    between atoms: C_1  and  C_4
REMARK    3  A    between atoms: C_1  and  C_12
REMARK    4  A    between atoms: C_4  and  O_5
REMARK    5  A    between atoms: C_4  and  C_8
REMARK    6  A    between atoms: C_8  and  C_9
REMARK    7  A    between atoms: C_9  and  O_10
REMARK    8  A    between atoms: C_12  and  O_13
REMARK    9  A    between atoms: O_13  and  P_14
REMARK   10  A    between atoms: P_14  and  O_16
REMARK   11  A    between atoms: P_14  and  O_18
REMARK                            x       y       z     vdW  Elec       q    Type
REMARK                         _______ _______ _______ _____ _____    ______ ____
ROOT
ATOM      1  C   UNL     1      36.744 -25.971 -13.324  0.00  0.00    +0.175 C 
ENDROOT
BRANCH   1   2
ATOM      2  O   UNL     1      36.054 -25.439 -12.190  0.00  0.00    -0.379 OA
ATOM      3  H   UNL     1      35.456 -26.113 -11.831  0.00  0.00    +0.211 HD
ENDBRANCH   1   2
BRANCH   1   4
ATOM      4  C   UNL     1      36.297 -25.241 -14.595  0.00  0.00    +0.200 C 
BRANCH   4   5
ATOM      5  O   UNL     1      36.993 -25.766 -15.716  0.00  0.00    -0.375 OA
ATOM      6  H   UNL     1      37.920 -25.480 -15.684  0.00  0.00    +0.211 HD
ENDBRANCH   4   5
BRANCH   4   8
ATOM      7  O   UNL     1      36.226 -23.075 -13.534  0.00  0.00    -0.291 OA
ATOM      8  C   UNL     1      36.541 -23.736 -14.524  0.00  0.00    +0.209 C 
BRANCH   8   9
ATOM      9  C   UNL     1      37.217 -23.098 -15.722  0.00  0.00    +0.205 C 
BRANCH   9  10
ATOM     10  O   UNL     1      38.584 -23.456 -15.769  0.00  0.00    -0.375 OA
ATOM     11  H   UNL     1      38.698 -24.344 -15.396  0.00  0.00    +0.211 HD
ENDBRANCH   9  10
ENDBRANCH   8   9
ENDBRANCH   4   8
ENDBRANCH   1   4
BRANCH   1  12
ATOM     12  C   UNL     1      38.240 -25.797 -13.067  0.00  0.00    +0.186 C 
BRANCH  12  13
ATOM     13  O   UNL     1      38.964 -26.608 -13.989  0.00  0.00    -0.271 OA
BRANCH  13  14
ATOM     14  P   UNL     1      40.445 -26.132 -14.426  0.00  0.00    +0.473 P 
ATOM     15  O   UNL     1      41.557 -27.053 -14.016  0.00  0.00    -0.227 OA
BRANCH  14  16
ATOM     16  O   UNL     1      40.551 -24.623 -13.853  0.00  0.00    -0.303 OA
ATOM     17  H   UNL     1      41.285 -24.569 -13.222  0.00  0.00    +0.222 HD
ENDBRANCH  14  16
BRANCH  14  18
ATOM     18  O   UNL     1      40.292 -25.914 -16.021  0.00  0.00    -0.303 OA
ATOM     19  H   UNL     1      40.751 -26.627 -16.490  0.00  0.00    +0.222 HD
ENDBRANCH  14  18
ENDBRANCH  13  14
ENDBRANCH  12  13
ENDBRANCH   1  12
TORSDOF 11
ENDMDL
MODEL 5
REMARK VINA RESULT:      -6.2      1.570      3.034
REMARK  Name = 439190
REMARK  11 active torsions:
REMARK  status: ('A' for Active; 'I' for Inactive)
REMARK    1  A    between atoms: C_1  and  O_2
REMARK    2  A    between atoms: C_1  and  C_4
REMARK    3  A    between atoms: C_1  and  C_12
REMARK    4  A    between atoms: C_4  and  O_5
REMARK    5  A    between atoms: C_4  and  C_8
REMARK    6  A    between atoms: C_8  and  C_9
REMARK    7  A    between atoms: C_9  and  O_10
REMARK    8  A    between atoms: C_12  and  O_13
REMARK    9  A    between atoms: O_13  and  P_14
REMARK   10  A    between atoms: P_14  and  O_16
REMARK   11  A    between atoms: P_14  and  O_18
REMARK                            x       y       z     vdW  Elec       q    Type
REMARK                         _______ _______ _______ _____ _____    ______ ____
ROOT
ATOM      1  C   UNL     1      37.419 -23.942 -12.908  0.00  0.00    +0.175 C 
ENDROOT
BRANCH   1   2
ATOM      2  O   UNL     1      37.624 -23.079 -14.031  0.00  0.00    -0.379 OA
ATOM      3  H   UNL     1      38.034 -23.580 -14.753  0.00  0.00    +0.211 HD
ENDBRANCH   1   2
BRANCH   1   4
ATOM      4  C   UNL     1      36.209 -24.848 -13.163  0.00  0.00    +0.200 C 
BRANCH   4   5
ATOM      5  O   UNL     1      36.535 -26.186 -12.813  0.00  0.00    -0.375 OA
ATOM      6  H   UNL     1      35.719 -26.701 -12.711  0.00  0.00    +0.211 HD
ENDBRANCH   4   5
BRANCH   4   8
ATOM      7  O   UNL     1      36.381 -25.386 -15.509  0.00  0.00    -0.291 OA
ATOM      8  C   UNL     1      35.750 -24.817 -14.618  0.00  0.00    +0.209 C 
BRANCH   8   9
ATOM      9  C   UNL     1      34.460 -24.074 -14.910  0.00  0.00    +0.205 C 
BRANCH   9  10
ATOM     10  O   UNL     1      34.654 -22.679 -14.787  0.00  0.00    -0.375 OA
ATOM     11  H   UNL     1      35.497 -22.509 -14.339  0.00  0.00    +0.211 HD
ENDBRANCH   9  10
ENDBRANCH   8   9
ENDBRANCH   4   8
ENDBRANCH   1   4
BRANCH   1  12
ATOM     12  C   UNL     1      38.702 -24.750 -12.716  0.00  0.00    +0.186 C 
BRANCH  12  13
ATOM     13  O   UNL     1      39.483 -24.662 -13.904  0.00  0.00    -0.271 OA
BRANCH  13  14
ATOM     14  P   UNL     1      40.031 -26.033 -14.561  0.00  0.00    +0.473 P 
ATOM     15  O   UNL     1      41.203 -26.652 -13.857  0.00  0.00    -0.227 OA
BRANCH  14  16
ATOM     16  O   UNL     1      40.281 -25.645 -16.111  0.00  0.00    -0.303 OA
ATOM     17  H   UNL     1      40.174 -26.436 -16.663  0.00  0.00    +0.222 HD
ENDBRANCH  14  16
BRANCH  14  18
ATOM     18  O   UNL     1      38.704 -26.955 -14.617  0.00  0.00    -0.303 OA
ATOM     19  H   UNL     1      38.897 -27.823 -14.233  0.00  0.00    +0.222 HD
ENDBRANCH  14  18
ENDBRANCH  13  14
ENDBRANCH  12  13
ENDBRANCH   1  12
TORSDOF 11
ENDMDL
MODEL 6
REMARK VINA RESULT:      -6.1      1.522      2.875
REMARK  Name = 439190
REMARK  11 active torsions:
REMARK  status: ('A' for Active; 'I' for Inactive)
REMARK    1  A    between atoms: C_1  and  O_2
REMARK    2  A    between atoms: C_1  and  C_4
REMARK    3  A    between atoms: C_1  and  C_12
REMARK    4  A    between atoms: C_4  and  O_5
REMARK    5  A    between atoms: C_4  and  C_8
REMARK    6  A    between atoms: C_8  and  C_9
REMARK    7  A    between atoms: C_9  and  O_10
REMARK    8  A    between atoms: C_12  and  O_13
REMARK    9  A    between atoms: O_13  and  P_14
REMARK   10  A    between atoms: P_14  and  O_16
REMARK   11  A    between atoms: P_14  and  O_18
REMARK                            x       y       z     vdW  Elec       q    Type
REMARK                         _______ _______ _______ _____ _____    ______ ____
ROOT
ATOM      1  C   UNL     1      37.329 -24.175 -11.677  0.00  0.00    +0.175 C 
ENDROOT
BRANCH   1   2
ATOM      2  O   UNL     1      38.157 -23.012 -11.769  0.00  0.00    -0.379 OA
ATOM      3  H   UNL     1      39.016 -23.257 -12.149  0.00  0.00    +0.211 HD
ENDBRANCH   1   2
BRANCH   1   4
ATOM      4  C   UNL     1      35.959 -23.890 -12.302  0.00  0.00    +0.200 C 
BRANCH   4   5
ATOM      5  O   UNL     1      35.063 -24.946 -11.989  0.00  0.00    -0.375 OA
ATOM      6  H   UNL     1      35.380 -25.770 -12.393  0.00  0.00    +0.211 HD
ENDBRANCH   4   5
BRANCH   4   8
ATOM      7  O   UNL     1      36.785 -22.924 -14.354  0.00  0.00    -0.291 OA
ATOM      8  C   UNL     1      36.028 -23.735 -13.819  0.00  0.00    +0.209 C 
BRANCH   8   9
ATOM      9  C   UNL     1      35.136 -24.649 -14.638  0.00  0.00    +0.205 C 
BRANCH   9  10
ATOM     10  O   UNL     1      35.705 -25.939 -14.735  0.00  0.00    -0.375 OA
ATOM     11  H   UNL     1      36.549 -25.885 -15.210  0.00  0.00    +0.211 HD
ENDBRANCH   9  10
ENDBRANCH   8   9
ENDBRANCH   4   8
ENDBRANCH   1   4
BRANCH   1  12
ATOM     12  C   UNL     1      38.057 -25.309 -12.399  0.00  0.00    +0.186 C 
BRANCH  12  13
ATOM     13  O   UNL     1      39.207 -24.777 -13.049  0.00  0.00    -0.271 OA
BRANCH  13  14
ATOM     14  P   UNL     1      39.634 -25.401 -14.477  0.00  0.00    +0.473 P 
ATOM     15  O   UNL     1      41.078 -25.797 -14.593  0.00  0.00    -0.227 OA
BRANCH  14  16
ATOM     16  O   UNL     1      39.132 -24.298 -15.548  0.00  0.00    -0.303 OA
ATOM     17  H   UNL     1      38.163 -24.309 -15.591  0.00  0.00    +0.222 HD
ENDBRANCH  14  16
BRANCH  14  18
ATOM     18  O   UNL     1      38.578 -26.611 -14.666  0.00  0.00    -0.303 OA
ATOM     19  H   UNL     1      38.047 -26.456 -15.462  0.00  0.00    +0.222 HD
ENDBRANCH  14  18
ENDBRANCH  13  14
ENDBRANCH  12  13
ENDBRANCH   1  12
TORSDOF 11
ENDMDL
MODEL 7
REMARK VINA RESULT:      -6.0      2.293      4.781
REMARK  Name = 439190
REMARK  11 active torsions:
REMARK  status: ('A' for Active; 'I' for Inactive)
REMARK    1  A    between atoms: C_1  and  O_2
REMARK    2  A    between atoms: C_1  and  C_4
REMARK    3  A    between atoms: C_1  and  C_12
REMARK    4  A    between atoms: C_4  and  O_5
REMARK    5  A    between atoms: C_4  and  C_8
REMARK    6  A    between atoms: C_8  and  C_9
REMARK    7  A    between atoms: C_9  and  O_10
REMARK    8  A    between atoms: C_12  and  O_13
REMARK    9  A    between atoms: O_13  and  P_14
REMARK   10  A    between atoms: P_14  and  O_16
REMARK   11  A    between atoms: P_14  and  O_18
REMARK                            x       y       z     vdW  Elec       q    Type
REMARK                         _______ _______ _______ _____ _____    ______ ____
ROOT
ATOM      1  C   UNL     1      36.589 -24.306 -14.844  0.00  0.00    +0.175 C 
ENDROOT
BRANCH   1   2
ATOM      2  O   UNL     1      36.200 -23.767 -16.112  0.00  0.00    -0.379 OA
ATOM      3  H   UNL     1      35.330 -23.347 -16.031  0.00  0.00    +0.211 HD
ENDBRANCH   1   2
BRANCH   1   4
ATOM      4  C   UNL     1      38.112 -24.235 -14.694  0.00  0.00    +0.200 C 
BRANCH   4   5
ATOM      5  O   UNL     1      38.671 -23.570 -15.818  0.00  0.00    -0.375 OA
ATOM      6  H   UNL     1      39.051 -24.224 -16.425  0.00  0.00    +0.211 HD
ENDBRANCH   4   5
BRANCH   4   8
ATOM      7  O   UNL     1      38.112 -26.596 -14.196  0.00  0.00    -0.291 OA
ATOM      8  C   UNL     1      38.754 -25.614 -14.568  0.00  0.00    +0.209 C 
BRANCH   8   9
ATOM      9  C   UNL     1      40.218 -25.721 -14.950  0.00  0.00    +0.205 C 
BRANCH   9  10
ATOM     10  O   UNL     1      40.968 -24.695 -14.333  0.00  0.00    -0.375 OA
ATOM     11  H   UNL     1      40.793 -24.696 -13.379  0.00  0.00    +0.211 HD
ENDBRANCH   9  10
ENDBRANCH   8   9
ENDBRANCH   4   8
ENDBRANCH   1   4
BRANCH   1  12
ATOM     12  C   UNL     1      35.873 -23.492 -13.767  0.00  0.00    +0.186 C 
BRANCH  12  13
ATOM     13  O   UNL     1      36.600 -23.603 -12.547  0.00  0.00    -0.271 OA
BRANCH  13  14
ATOM     14  P   UNL     1      36.032 -24.598 -11.407  0.00  0.00    +0.473 P 
ATOM     15  O   UNL     1      36.148 -24.087 -10.000  0.00  0.00    -0.227 OA
BRANCH  14  16
ATOM     16  O   UNL     1      36.794 -25.995 -11.700  0.00  0.00    -0.303 OA
ATOM     17  H   UNL     1      37.730 -25.820 -11.879  0.00  0.00    +0.222 HD
ENDBRANCH  14  16
BRANCH  14  18
ATOM     18  O   UNL     1      34.522 -24.885 -11.907  0.00  0.00    -0.303 OA
ATOM     19  H   UNL     1      34.056 -25.414 -11.242  0.00  0.00    +0.222 HD
ENDBRANCH  14  18
ENDBRANCH  13  14
ENDBRANCH  12  13
ENDBRANCH   1  12
TORSDOF 11
ENDMDL
MODEL 8
REMARK VINA RESULT:      -5.9      1.829      3.168
REMARK  Name = 439190
REMARK  11 active torsions:
REMARK  status: ('A' for Active; 'I' for Inactive)
REMARK    1  A    between atoms: C_1  and  O_2
REMARK    2  A    between atoms: C_1  and  C_4
REMARK    3  A    between atoms: C_1  and  C_12
REMARK    4  A    between atoms: C_4  and  O_5
REMARK    5  A    between atoms: C_4  and  C_8
REMARK    6  A    between atoms: C_8  and  C_9
REMARK    7  A    between atoms: C_9  and  O_10
REMARK    8  A    between atoms: C_12  and  O_13
REMARK    9  A    between atoms: O_13  and  P_14
REMARK   10  A    between atoms: P_14  and  O_16
REMARK   11  A    between atoms: P_14  and  O_18
REMARK                            x       y       z     vdW  Elec       q    Type
REMARK                         _______ _______ _______ _____ _____    ______ ____
ROOT
ATOM      1  C   UNL     1      35.594 -23.434 -13.952  0.00  0.00    +0.175 C 
ENDROOT
BRANCH   1   2
ATOM      2  O   UNL     1      34.695 -22.555 -14.636  0.00  0.00    -0.379 OA
ATOM      3  H   UNL     1      34.873 -22.589 -15.589  0.00  0.00    +0.211 HD
ENDBRANCH   1   2
BRANCH   1   4
ATOM      4  C   UNL     1      34.848 -24.177 -12.839  0.00  0.00    +0.200 C 
BRANCH   4   5
ATOM      5  O   UNL     1      33.613 -23.526 -12.576  0.00  0.00    -0.375 OA
ATOM      6  H   UNL     1      33.066 -24.088 -12.005  0.00  0.00    +0.211 HD
ENDBRANCH   4   5
BRANCH   4   8
ATOM      7  O   UNL     1      35.341 -25.020 -10.632  0.00  0.00    -0.291 OA
ATOM      8  C   UNL     1      35.651 -24.252 -11.543  0.00  0.00    +0.209 C 
BRANCH   8   9
ATOM      9  C   UNL     1      36.867 -23.351 -11.442  0.00  0.00    +0.205 C 
BRANCH   9  10
ATOM     10  O   UNL     1      38.055 -24.106 -11.577  0.00  0.00    -0.375 OA
ATOM     11  H   UNL     1      38.037 -24.849 -10.954  0.00  0.00    +0.211 HD
ENDBRANCH   9  10
ENDBRANCH   8   9
ENDBRANCH   4   8
ENDBRANCH   1   4
BRANCH   1  12
ATOM     12  C   UNL     1      36.167 -24.396 -14.992  0.00  0.00    +0.186 C 
BRANCH  12  13
ATOM     13  O   UNL     1      37.437 -24.858 -14.542  0.00  0.00    -0.271 OA
BRANCH  13  14
ATOM     14  P   UNL     1      37.741 -26.443 -14.610  0.00  0.00    +0.473 P 
ATOM     15  O   UNL     1      39.193 -26.817 -14.528  0.00  0.00    -0.227 OA
BRANCH  14  16
ATOM     16  O   UNL     1      36.977 -26.926 -15.950  0.00  0.00    -0.303 OA
ATOM     17  H   UNL     1      36.807 -26.159 -16.519  0.00  0.00    +0.222 HD
ENDBRANCH  14  16
BRANCH  14  18
ATOM     18  O   UNL     1      36.817 -27.034 -13.421  0.00  0.00    -0.303 OA
ATOM     19  H   UNL     1      35.883 -26.932 -13.657  0.00  0.00    +0.222 HD
ENDBRANCH  14  18
ENDBRANCH  13  14
ENDBRANCH  12  13
ENDBRANCH   1  12
TORSDOF 11
ENDMDL
MODEL 9
REMARK VINA RESULT:      -5.9      1.237      1.650
REMARK  Name = 439190
REMARK  11 active torsions:
REMARK  status: ('A' for Active; 'I' for Inactive)
REMARK    1  A    between atoms: C_1  and  O_2
REMARK    2  A    between atoms: C_1  and  C_4
REMARK    3  A    between atoms: C_1  and  C_12
REMARK    4  A    between atoms: C_4  and  O_5
REMARK    5  A    between atoms: C_4  and  C_8
REMARK    6  A    between atoms: C_8  and  C_9
REMARK    7  A    between atoms: C_9  and  O_10
REMARK    8  A    between atoms: C_12  and  O_13
REMARK    9  A    between atoms: O_13  and  P_14
REMARK   10  A    between atoms: P_14  and  O_16
REMARK   11  A    between atoms: P_14  and  O_18
REMARK                            x       y       z     vdW  Elec       q    Type
REMARK                         _______ _______ _______ _____ _____    ______ ____
ROOT
ATOM      1  C   UNL     1      36.617 -25.965 -13.888  0.00  0.00    +0.175 C 
ENDROOT
BRANCH   1   2
ATOM      2  O   UNL     1      36.703 -27.224 -13.215  0.00  0.00    -0.379 OA
ATOM      3  H   UNL     1      37.635 -27.478 -13.122  0.00  0.00    +0.211 HD
ENDBRANCH   1   2
BRANCH   1   4
ATOM      4  C   UNL     1      36.750 -24.823 -12.876  0.00  0.00    +0.200 C 
BRANCH   4   5
ATOM      5  O   UNL     1      37.694 -25.180 -11.877  0.00  0.00    -0.375 OA
ATOM      6  H   UNL     1      38.519 -24.691 -12.021  0.00  0.00    +0.211 HD
ENDBRANCH   4   5
BRANCH   4   8
ATOM      7  O   UNL     1      35.290 -24.524 -10.978  0.00  0.00    -0.291 OA
ATOM      8  C   UNL     1      35.425 -24.480 -12.201  0.00  0.00    +0.209 C 
BRANCH   8   9
ATOM      9  C   UNL     1      34.287 -24.055 -13.109  0.00  0.00    +0.205 C 
BRANCH   9  10
ATOM     10  O   UNL     1      33.184 -24.927 -12.963  0.00  0.00    -0.375 OA
ATOM     11  H   UNL     1      33.143 -25.245 -12.048  0.00  0.00    +0.211 HD
ENDBRANCH   9  10
ENDBRANCH   8   9
ENDBRANCH   4   8
ENDBRANCH   1   4
BRANCH   1  12
ATOM     12  C   UNL     1      37.733 -25.932 -14.932  0.00  0.00    +0.186 C 
BRANCH  12  13
ATOM     13  O   UNL     1      38.828 -26.711 -14.461  0.00  0.00    -0.271 OA
BRANCH  13  14
ATOM     14  P   UNL     1      40.308 -26.066 -14.525  0.00  0.00    +0.473 P 
ATOM     15  O   UNL     1      41.402 -26.925 -13.960  0.00  0.00    -0.227 OA
BRANCH  14  16
ATOM     16  O   UNL     1      40.131 -24.621 -13.820  0.00  0.00    -0.303 OA
ATOM     17  H   UNL     1      40.991 -24.176 -13.776  0.00  0.00    +0.222 HD
ENDBRANCH  14  16
BRANCH  14  18
ATOM     18  O   UNL     1      40.468 -25.699 -16.091  0.00  0.00    -0.303 OA
ATOM     19  H   UNL     1      39.725 -25.144 -16.371  0.00  0.00    +0.222 HD
ENDBRANCH  14  18
ENDBRANCH  13  14
ENDBRANCH  12  13
ENDBRANCH   1  12
TORSDOF 11
ENDMDL
