MODEL 1
REMARK VINA RESULT:      -9.3      0.000      0.000
REMARK  Name = 18719622
REMARK  1 active torsions:
REMARK  status: ('A' for Active; 'I' for Inactive)
REMARK    1  A    between atoms: C_5  and  N_16
REMARK                            x       y       z     vdW  Elec       q    Type
REMARK                         _______ _______ _______ _____ _____    ______ ____
ROOT
ATOM      1  N   UNL     1      33.455 -15.149 -24.722  0.00  0.00    -0.242 NA
ATOM      2  N   UNL     1      32.390 -13.421 -22.890  0.00  0.00    -0.242 NA
ATOM      3  C   UNL     1      34.404 -16.473 -22.958  0.00  0.00    +0.033 C 
ATOM      4  C   UNL     1      33.652 -15.363 -23.405  0.00  0.00    +0.100 C 
ATOM      5  C   UNL     1      34.607 -16.691 -21.593  0.00  0.00    +0.052 C 
ATOM      6  C   UNL     1      33.320 -14.713 -21.093  0.00  0.00    +0.020 C 
ATOM      7  C   UNL     1      33.110 -14.483 -22.471  0.00  0.00    +0.099 C 
ATOM      8  C   UNL     1      34.067 -15.815 -20.662  0.00  0.00    +0.016 C 
ATOM      9  C   UNL     1      34.942 -17.349 -23.913  0.00  0.00    +0.004 C 
ATOM     10  C   UNL     1      32.766 -13.816 -20.169  0.00  0.00    +0.003 C 
ATOM     11  C   UNL     1      34.735 -17.121 -25.264  0.00  0.00    +0.021 C 
ATOM     12  C   UNL     1      32.029 -12.728 -20.608  0.00  0.00    +0.021 C 
ATOM     13  C   UNL     1      33.989 -16.016 -25.613  0.00  0.00    +0.099 C 
ATOM     14  C   UNL     1      31.871 -12.576 -21.969  0.00  0.00    +0.099 C 
ENDROOT
BRANCH   5  16
ATOM     15  O   UNL     1      33.859 -19.595 -21.322  0.00  0.00    -0.275 OA
ATOM     16  N   UNL     1      35.346 -17.779 -21.112  0.00  0.00    -0.284 N 
ATOM     17  C   UNL     1      34.943 -19.113 -21.008  0.00  0.00    +0.227 C 
ATOM     18  C   UNL     1      36.037 -19.981 -20.438  0.00  0.00    +0.095 C 
ATOM     19  H   UNL     1      36.262 -17.579 -20.811  0.00  0.00    +0.155 HD
ENDBRANCH   5  16
TORSDOF 1
ENDMDL
MODEL 2
REMARK VINA RESULT:      -9.1      7.534      9.778
REMARK  Name = 18719622
REMARK  1 active torsions:
REMARK  status: ('A' for Active; 'I' for Inactive)
REMARK    1  A    between atoms: C_5  and  N_16
REMARK                            x       y       z     vdW  Elec       q    Type
REMARK                         _______ _______ _______ _____ _____    ______ ____
ROOT
ATOM      1  N   UNL     1      32.575 -22.140 -18.606  0.00  0.00    -0.242 NA
ATOM      2  N   UNL     1      30.454 -22.790 -17.006  0.00  0.00    -0.242 NA
ATOM      3  C   UNL     1      34.107 -22.979 -16.959  0.00  0.00    +0.033 C 
ATOM      4  C   UNL     1      32.792 -22.711 -17.404  0.00  0.00    +0.100 C 
ATOM      5  C   UNL     1      34.328 -23.570 -15.712  0.00  0.00    +0.052 C 
ATOM      6  C   UNL     1      31.948 -23.641 -15.330  0.00  0.00    +0.020 C 
ATOM      7  C   UNL     1      31.712 -23.043 -16.588  0.00  0.00    +0.099 C 
ATOM      8  C   UNL     1      33.253 -23.900 -14.900  0.00  0.00    +0.016 C 
ATOM      9  C   UNL     1      35.181 -22.638 -17.794  0.00  0.00    +0.004 C 
ATOM     10  C   UNL     1      30.849 -23.967 -14.524  0.00  0.00    +0.003 C 
ATOM     11  C   UNL     1      34.948 -22.051 -19.027  0.00  0.00    +0.021 C 
ATOM     12  C   UNL     1      29.560 -23.704 -14.961  0.00  0.00    +0.021 C 
ATOM     13  C   UNL     1      33.636 -21.826 -19.384  0.00  0.00    +0.099 C 
ATOM     14  C   UNL     1      29.418 -23.119 -16.200  0.00  0.00    +0.099 C 
ENDROOT
BRANCH   5  16
ATOM     15  O   UNL     1      35.840 -26.171 -15.583  0.00  0.00    -0.275 OA
ATOM     16  N   UNL     1      35.616 -23.851 -15.238  0.00  0.00    -0.284 N 
ATOM     17  C   UNL     1      36.268 -25.086 -15.201  0.00  0.00    +0.227 C 
ATOM     18  C   UNL     1      37.652 -24.967 -14.613  0.00  0.00    +0.095 C 
ATOM     19  H   UNL     1      36.123 -23.083 -14.887  0.00  0.00    +0.155 HD
ENDBRANCH   5  16
TORSDOF 1
ENDMDL
MODEL 3
REMARK VINA RESULT:      -8.9      7.477     10.283
REMARK  Name = 18719622
REMARK  1 active torsions:
REMARK  status: ('A' for Active; 'I' for Inactive)
REMARK    1  A    between atoms: C_5  and  N_16
REMARK                            x       y       z     vdW  Elec       q    Type
REMARK                         _______ _______ _______ _____ _____    ______ ____
ROOT
ATOM      1  N   UNL     1      35.950 -23.113 -14.979  0.00  0.00    -0.242 NA
ATOM      2  N   UNL     1      36.327 -22.146 -17.508  0.00  0.00    -0.242 NA
ATOM      3  C   UNL     1      33.627 -23.498 -15.445  0.00  0.00    +0.033 C 
ATOM      4  C   UNL     1      34.911 -23.059 -15.837  0.00  0.00    +0.100 C 
ATOM      5  C   UNL     1      32.553 -23.440 -16.338  0.00  0.00    +0.052 C 
ATOM      6  C   UNL     1      34.011 -22.513 -18.021  0.00  0.00    +0.020 C 
ATOM      7  C   UNL     1      35.103 -22.566 -17.127  0.00  0.00    +0.099 C 
ATOM      8  C   UNL     1      32.743 -22.949 -17.622  0.00  0.00    +0.016 C 
ATOM      9  C   UNL     1      33.453 -23.991 -14.144  0.00  0.00    +0.004 C 
ATOM     10  C   UNL     1      34.224 -22.014 -19.314  0.00  0.00    +0.003 C 
ATOM     11  C   UNL     1      34.525 -24.043 -13.268  0.00  0.00    +0.021 C 
ATOM     12  C   UNL     1      35.484 -21.584 -19.697  0.00  0.00    +0.021 C 
ATOM     13  C   UNL     1      35.744 -23.596 -13.732  0.00  0.00    +0.099 C 
ATOM     14  C   UNL     1      36.495 -21.671 -18.764  0.00  0.00    +0.099 C 
ENDROOT
BRANCH   5  16
ATOM     15  O   UNL     1      29.858 -22.279 -17.014  0.00  0.00    -0.275 OA
ATOM     16  N   UNL     1      31.266 -23.865 -15.986  0.00  0.00    -0.284 N 
ATOM     17  C   UNL     1      30.043 -23.281 -16.330  0.00  0.00    +0.227 C 
ATOM     18  C   UNL     1      28.879 -24.046 -15.752  0.00  0.00    +0.095 C 
ATOM     19  H   UNL     1      31.216 -24.674 -15.428  0.00  0.00    +0.155 HD
ENDBRANCH   5  16
TORSDOF 1
ENDMDL
MODEL 4
REMARK VINA RESULT:      -8.9      2.139      5.596
REMARK  Name = 18719622
REMARK  1 active torsions:
REMARK  status: ('A' for Active; 'I' for Inactive)
REMARK    1  A    between atoms: C_5  and  N_16
REMARK                            x       y       z     vdW  Elec       q    Type
REMARK                         _______ _______ _______ _____ _____    ______ ____
ROOT
ATOM      1  N   UNL     1      33.316 -15.205 -20.425  0.00  0.00    -0.242 NA
ATOM      2  N   UNL     1      34.784 -17.479 -20.819  0.00  0.00    -0.242 NA
ATOM      3  C   UNL     1      33.443 -14.688 -22.766  0.00  0.00    +0.033 C 
ATOM      4  C   UNL     1      33.744 -15.521 -21.664  0.00  0.00    +0.100 C 
ATOM      5  C   UNL     1      33.889 -15.018 -24.049  0.00  0.00    +0.052 C 
ATOM      6  C   UNL     1      34.937 -17.004 -23.166  0.00  0.00    +0.020 C 
ATOM      7  C   UNL     1      34.492 -16.680 -21.866  0.00  0.00    +0.099 C 
ATOM      8  C   UNL     1      34.633 -16.172 -24.249  0.00  0.00    +0.016 C 
ATOM      9  C   UNL     1      32.689 -13.527 -22.544  0.00  0.00    +0.004 C 
ATOM     10  C   UNL     1      35.687 -18.173 -23.349  0.00  0.00    +0.003 C 
ATOM     11  C   UNL     1      32.253 -13.210 -21.267  0.00  0.00    +0.021 C 
ATOM     12  C   UNL     1      35.982 -18.989 -22.268  0.00  0.00    +0.021 C 
ATOM     13  C   UNL     1      32.591 -14.077 -20.250  0.00  0.00    +0.099 C 
ATOM     14  C   UNL     1      35.511 -18.600 -21.033  0.00  0.00    +0.099 C 
ENDROOT
BRANCH   5  16
ATOM     15  O   UNL     1      32.596 -15.713 -26.678  0.00  0.00    -0.275 OA
ATOM     16  N   UNL     1      33.610 -14.219 -25.164  0.00  0.00    -0.284 N 
ATOM     17  C   UNL     1      33.006 -14.600 -26.366  0.00  0.00    +0.227 C 
ATOM     18  C   UNL     1      32.884 -13.437 -27.319  0.00  0.00    +0.095 C 
ATOM     19  H   UNL     1      33.872 -13.272 -25.093  0.00  0.00    +0.155 HD
ENDBRANCH   5  16
TORSDOF 1
ENDMDL
MODEL 5
REMARK VINA RESULT:      -8.7      6.829      9.757
REMARK  Name = 18719622
REMARK  1 active torsions:
REMARK  status: ('A' for Active; 'I' for Inactive)
REMARK    1  A    between atoms: C_5  and  N_16
REMARK                            x       y       z     vdW  Elec       q    Type
REMARK                         _______ _______ _______ _____ _____    ______ ____
ROOT
ATOM      1  N   UNL     1      31.276 -22.880 -17.042  0.00  0.00    -0.242 NA
ATOM      2  N   UNL     1      32.731 -21.760 -19.069  0.00  0.00    -0.242 NA
ATOM      3  C   UNL     1      33.294 -23.456 -15.878  0.00  0.00    +0.033 C 
ATOM      4  C   UNL     1      32.623 -22.881 -16.980  0.00  0.00    +0.100 C 
ATOM      5  C   UNL     1      34.691 -23.456 -15.817  0.00  0.00    +0.052 C 
ATOM      6  C   UNL     1      34.776 -22.316 -17.941  0.00  0.00    +0.020 C 
ATOM      7  C   UNL     1      33.366 -22.311 -18.013  0.00  0.00    +0.099 C 
ATOM      8  C   UNL     1      35.430 -22.888 -16.845  0.00  0.00    +0.016 C 
ATOM      9  C   UNL     1      32.531 -24.026 -14.848  0.00  0.00    +0.004 C 
ATOM     10  C   UNL     1      35.505 -21.737 -18.989  0.00  0.00    +0.003 C 
ATOM     11  C   UNL     1      31.147 -24.020 -14.920  0.00  0.00    +0.021 C 
ATOM     12  C   UNL     1      34.846 -21.173 -20.070  0.00  0.00    +0.021 C 
ATOM     13  C   UNL     1      30.573 -23.438 -16.030  0.00  0.00    +0.099 C 
ATOM     14  C   UNL     1      33.468 -21.211 -20.061  0.00  0.00    +0.099 C 
ENDROOT
BRANCH   5  16
ATOM     15  O   UNL     1      36.143 -26.084 -15.585  0.00  0.00    -0.275 OA
ATOM     16  N   UNL     1      35.391 -24.016 -14.741  0.00  0.00    -0.284 N 
ATOM     17  C   UNL     1      36.048 -25.249 -14.691  0.00  0.00    +0.227 C 
ATOM     18  C   UNL     1      36.685 -25.484 -13.344  0.00  0.00    +0.095 C 
ATOM     19  H   UNL     1      35.425 -23.474 -13.920  0.00  0.00    +0.155 HD
ENDBRANCH   5  16
TORSDOF 1
ENDMDL
MODEL 6
REMARK VINA RESULT:      -8.6      6.506      9.568
REMARK  Name = 18719622
REMARK  1 active torsions:
REMARK  status: ('A' for Active; 'I' for Inactive)
REMARK    1  A    between atoms: C_5  and  N_16
REMARK                            x       y       z     vdW  Elec       q    Type
REMARK                         _______ _______ _______ _____ _____    ______ ____
ROOT
ATOM      1  N   UNL     1      36.789 -22.894 -16.385  0.00  0.00    -0.242 NA
ATOM      2  N   UNL     1      36.491 -21.479 -18.707  0.00  0.00    -0.242 NA
ATOM      3  C   UNL     1      34.435 -23.363 -16.340  0.00  0.00    +0.033 C 
ATOM      4  C   UNL     1      35.567 -22.770 -16.942  0.00  0.00    +0.100 C 
ATOM      5  C   UNL     1      33.170 -23.231 -16.920  0.00  0.00    +0.052 C 
ATOM      6  C   UNL     1      34.132 -21.923 -18.704  0.00  0.00    +0.020 C 
ATOM      7  C   UNL     1      35.415 -22.049 -18.126  0.00  0.00    +0.099 C 
ATOM      8  C   UNL     1      33.018 -22.514 -18.098  0.00  0.00    +0.016 C 
ATOM      9  C   UNL     1      34.608 -24.084 -15.150  0.00  0.00    +0.004 C 
ATOM     10  C   UNL     1      33.999 -21.194 -19.894  0.00  0.00    +0.003 C 
ATOM     11  C   UNL     1      35.866 -24.207 -14.584  0.00  0.00    +0.021 C 
ATOM     12  C   UNL     1      35.110 -20.613 -20.484  0.00  0.00    +0.021 C 
ATOM     13  C   UNL     1      36.917 -23.598 -15.237  0.00  0.00    +0.099 C 
ATOM     14  C   UNL     1      36.324 -20.784 -19.855  0.00  0.00    +0.099 C 
ENDROOT
BRANCH   5  16
ATOM     15  O   UNL     1      31.515 -22.364 -14.559  0.00  0.00    -0.275 OA
ATOM     16  N   UNL     1      32.025 -23.804 -16.353  0.00  0.00    -0.284 N 
ATOM     17  C   UNL     1      31.296 -23.355 -15.248  0.00  0.00    +0.227 C 
ATOM     18  C   UNL     1      30.123 -24.255 -14.953  0.00  0.00    +0.095 C 
ATOM     19  H   UNL     1      31.694 -24.624 -16.785  0.00  0.00    +0.155 HD
ENDBRANCH   5  16
TORSDOF 1
ENDMDL
MODEL 7
REMARK VINA RESULT:      -8.6      7.647     11.252
REMARK  Name = 18719622
REMARK  1 active torsions:
REMARK  status: ('A' for Active; 'I' for Inactive)
REMARK    1  A    between atoms: C_5  and  N_16
REMARK                            x       y       z     vdW  Elec       q    Type
REMARK                         _______ _______ _______ _____ _____    ______ ____
ROOT
ATOM      1  N   UNL     1      34.189 -24.205 -12.864  0.00  0.00    -0.242 NA
ATOM      2  N   UNL     1      31.530 -24.677 -13.293  0.00  0.00    -0.242 NA
ATOM      3  C   UNL     1      34.443 -23.432 -15.122  0.00  0.00    +0.033 C 
ATOM      4  C   UNL     1      33.649 -23.946 -14.072  0.00  0.00    +0.100 C 
ATOM      5  C   UNL     1      33.879 -23.166 -16.373  0.00  0.00    +0.052 C 
ATOM      6  C   UNL     1      31.735 -23.913 -15.560  0.00  0.00    +0.020 C 
ATOM      7  C   UNL     1      32.294 -24.186 -14.292  0.00  0.00    +0.099 C 
ATOM      8  C   UNL     1      32.531 -23.405 -16.592  0.00  0.00    +0.016 C 
ATOM      9  C   UNL     1      35.804 -23.197 -14.883  0.00  0.00    +0.004 C 
ATOM     10  C   UNL     1      30.371 -24.161 -15.761  0.00  0.00    +0.003 C 
ATOM     11  C   UNL     1      36.351 -23.466 -13.638  0.00  0.00    +0.021 C 
ATOM     12  C   UNL     1      29.593 -24.665 -14.730  0.00  0.00    +0.021 C 
ATOM     13  C   UNL     1      35.506 -23.964 -12.669  0.00  0.00    +0.099 C 
ATOM     14  C   UNL     1      30.216 -24.904 -13.525  0.00  0.00    +0.099 C 
ENDROOT
BRANCH   5  16
ATOM     15  O   UNL     1      33.041 -22.349 -19.148  0.00  0.00    -0.275 OA
ATOM     16  N   UNL     1      34.633 -22.657 -17.438  0.00  0.00    -0.284 N 
ATOM     17  C   UNL     1      34.187 -22.295 -18.712  0.00  0.00    +0.227 C 
ATOM     18  C   UNL     1      35.316 -21.787 -19.573  0.00  0.00    +0.095 C 
ATOM     19  H   UNL     1      35.596 -22.539 -17.268  0.00  0.00    +0.155 HD
ENDBRANCH   5  16
TORSDOF 1
ENDMDL
MODEL 8
REMARK VINA RESULT:      -8.5      8.399     11.029
REMARK  Name = 18719622
REMARK  1 active torsions:
REMARK  status: ('A' for Active; 'I' for Inactive)
REMARK    1  A    between atoms: C_5  and  N_16
REMARK                            x       y       z     vdW  Elec       q    Type
REMARK                         _______ _______ _______ _____ _____    ______ ____
ROOT
ATOM      1  N   UNL     1      35.447 -22.767 -17.245  0.00  0.00    -0.242 NA
ATOM      2  N   UNL     1      36.536 -23.486 -14.841  0.00  0.00    -0.242 NA
ATOM      3  C   UNL     1      33.239 -23.164 -16.391  0.00  0.00    +0.033 C 
ATOM      4  C   UNL     1      34.643 -23.140 -16.229  0.00  0.00    +0.100 C 
ATOM      5  C   UNL     1      32.408 -23.552 -15.337  0.00  0.00    +0.052 C 
ATOM      6  C   UNL     1      34.348 -23.896 -13.944  0.00  0.00    +0.020 C 
ATOM      7  C   UNL     1      35.197 -23.506 -15.004  0.00  0.00    +0.099 C 
ATOM      8  C   UNL     1      32.960 -23.917 -14.117  0.00  0.00    +0.016 C 
ATOM      9  C   UNL     1      32.699 -22.792 -17.631  0.00  0.00    +0.004 C 
ATOM     10  C   UNL     1      34.924 -24.261 -12.720  0.00  0.00    +0.003 C 
ATOM     11  C   UNL     1      33.534 -22.410 -18.669  0.00  0.00    +0.021 C 
ATOM     12  C   UNL     1      36.300 -24.237 -12.562  0.00  0.00    +0.021 C 
ATOM     13  C   UNL     1      34.891 -22.414 -18.426  0.00  0.00    +0.099 C 
ATOM     14  C   UNL     1      37.056 -23.845 -13.645  0.00  0.00    +0.099 C 
ENDROOT
BRANCH   5  16
ATOM     15  O   UNL     1      30.468 -25.819 -14.928  0.00  0.00    -0.275 OA
ATOM     16  N   UNL     1      31.014 -23.589 -15.460  0.00  0.00    -0.284 N 
ATOM     17  C   UNL     1      30.161 -24.678 -15.258  0.00  0.00    +0.227 C 
ATOM     18  C   UNL     1      28.718 -24.304 -15.491  0.00  0.00    +0.095 C 
ATOM     19  H   UNL     1      30.581 -22.743 -15.720  0.00  0.00    +0.155 HD
ENDBRANCH   5  16
TORSDOF 1
ENDMDL
MODEL 9
REMARK VINA RESULT:      -8.3      7.861     11.669
REMARK  Name = 18719622
REMARK  1 active torsions:
REMARK  status: ('A' for Active; 'I' for Inactive)
REMARK    1  A    between atoms: C_5  and  N_16
REMARK                            x       y       z     vdW  Elec       q    Type
REMARK                         _______ _______ _______ _____ _____    ______ ____
ROOT
ATOM      1  N   UNL     1      31.999 -24.653 -13.132  0.00  0.00    -0.242 NA
ATOM      2  N   UNL     1      34.562 -24.457 -12.198  0.00  0.00    -0.242 NA
ATOM      3  C   UNL     1      32.673 -23.742 -15.248  0.00  0.00    +0.033 C 
ATOM      4  C   UNL     1      32.967 -24.160 -13.930  0.00  0.00    +0.100 C 
ATOM      5  C   UNL     1      33.680 -23.231 -16.072  0.00  0.00    +0.052 C 
ATOM      6  C   UNL     1      35.283 -23.543 -14.298  0.00  0.00    +0.020 C 
ATOM      7  C   UNL     1      34.274 -24.060 -13.456  0.00  0.00    +0.099 C 
ATOM      8  C   UNL     1      34.980 -23.132 -15.600  0.00  0.00    +0.016 C 
ATOM      9  C   UNL     1      31.353 -23.850 -15.709  0.00  0.00    +0.004 C 
ATOM     10  C   UNL     1      36.591 -23.451 -13.802  0.00  0.00    +0.003 C 
ATOM     11  C   UNL     1      30.365 -24.358 -14.881  0.00  0.00    +0.021 C 
ATOM     12  C   UNL     1      36.878 -23.861 -12.510  0.00  0.00    +0.021 C 
ATOM     13  C   UNL     1      30.737 -24.743 -13.611  0.00  0.00    +0.099 C 
ATOM     14  C   UNL     1      35.836 -24.353 -11.755  0.00  0.00    +0.099 C 
ENDROOT
BRANCH   5  16
ATOM     15  O   UNL     1      35.574 -22.350 -18.241  0.00  0.00    -0.275 OA
ATOM     16  N   UNL     1      33.427 -22.807 -17.383  0.00  0.00    -0.284 N 
ATOM     17  C   UNL     1      34.353 -22.406 -18.350  0.00  0.00    +0.227 C 
ATOM     18  C   UNL     1      33.676 -22.023 -19.642  0.00  0.00    +0.095 C 
ATOM     19  H   UNL     1      32.481 -22.790 -17.656  0.00  0.00    +0.155 HD
ENDBRANCH   5  16
TORSDOF 1
ENDMDL
