MODEL 1
REMARK VINA RESULT:      -6.7      0.000      0.000
REMARK  Name = 1188
REMARK  0 active torsions:
REMARK  status: ('A' for Active; 'I' for Inactive)
REMARK                            x       y       z     vdW  Elec       q    Type
REMARK                         _______ _______ _______ _____ _____    ______ ____
ROOT
ATOM      1  O   UNL     1      38.385 -22.211 -11.914  0.00  0.00    -0.266 OA
ATOM      2  O   UNL     1      35.212 -24.905  -9.860  0.00  0.00    -0.247 OA
ATOM      3  N   UNL     1      35.286 -24.896 -12.165  0.00  0.00    -0.294 N 
ATOM      4  N   UNL     1      37.251 -23.252 -14.530  0.00  0.00    -0.310 N 
ATOM      5  N   UNL     1      36.794 -23.562 -10.893  0.00  0.00    -0.273 N 
ATOM      6  N   UNL     1      35.562 -24.715 -14.591  0.00  0.00    -0.302 N 
ATOM      7  C   UNL     1      36.921 -23.508 -13.231  0.00  0.00    +0.133 A 
ATOM      8  C   UNL     1      35.885 -24.405 -13.304  0.00  0.00    +0.129 A 
ATOM      9  C   UNL     1      37.460 -23.012 -12.003  0.00  0.00    +0.277 A 
ATOM     10  C   UNL     1      35.723 -24.488 -10.901  0.00  0.00    +0.328 A 
ATOM     11  C   UNL     1      36.406 -24.002 -15.311  0.00  0.00    +0.183 C 
ATOM     12  H   UNL     1      34.545 -25.539 -12.241  0.00  0.00    +0.172 HD
ATOM     13  H   UNL     1      37.960 -22.646 -14.846  0.00  0.00    +0.149 HD
ATOM     14  H   UNL     1      37.110 -23.270 -10.008  0.00  0.00    +0.173 HD
ATOM     15  H   UNL     1      34.861 -25.328 -14.910  0.00  0.00    +0.150 HD
ENDROOT
TORSDOF 0
ENDMDL
MODEL 2
REMARK VINA RESULT:      -6.7      2.824      4.000
REMARK  Name = 1188
REMARK  0 active torsions:
REMARK  status: ('A' for Active; 'I' for Inactive)
REMARK                            x       y       z     vdW  Elec       q    Type
REMARK                         _______ _______ _______ _____ _____    ______ ____
ROOT
ATOM      1  O   UNL     1      37.191 -26.180 -11.998  0.00  0.00    -0.266 OA
ATOM      2  O   UNL     1      41.020 -26.088 -14.620  0.00  0.00    -0.247 OA
ATOM      3  N   UNL     1      39.235 -24.781 -15.274  0.00  0.00    -0.294 N 
ATOM      4  N   UNL     1      36.044 -24.204 -13.996  0.00  0.00    -0.310 N 
ATOM      5  N   UNL     1      39.104 -26.128 -13.315  0.00  0.00    -0.273 N 
ATOM      6  N   UNL     1      37.215 -23.485 -15.759  0.00  0.00    -0.302 N 
ATOM      7  C   UNL     1      37.258 -24.824 -13.926  0.00  0.00    +0.133 A 
ATOM      8  C   UNL     1      37.949 -24.362 -15.017  0.00  0.00    +0.129 A 
ATOM      9  C   UNL     1      37.790 -25.754 -12.980  0.00  0.00    +0.277 A 
ATOM     10  C   UNL     1      39.870 -25.690 -14.423  0.00  0.00    +0.328 A 
ATOM     11  C   UNL     1      36.066 -23.409 -15.116  0.00  0.00    +0.183 C 
ATOM     12  H   UNL     1      39.713 -24.436 -16.063  0.00  0.00    +0.172 HD
ATOM     13  H   UNL     1      35.295 -24.309 -13.365  0.00  0.00    +0.149 HD
ATOM     14  H   UNL     1      39.542 -26.768 -12.709  0.00  0.00    +0.173 HD
ATOM     15  H   UNL     1      37.481 -23.017 -16.583  0.00  0.00    +0.150 HD
ENDROOT
TORSDOF 0
ENDMDL
MODEL 3
REMARK VINA RESULT:      -6.7      3.045      3.845
REMARK  Name = 1188
REMARK  0 active torsions:
REMARK  status: ('A' for Active; 'I' for Inactive)
REMARK                            x       y       z     vdW  Elec       q    Type
REMARK                         _______ _______ _______ _____ _____    ______ ____
ROOT
ATOM      1  O   UNL     1      37.194 -26.535 -11.756  0.00  0.00    -0.266 OA
ATOM      2  O   UNL     1      34.882 -24.261 -15.077  0.00  0.00    -0.247 OA
ATOM      3  N   UNL     1      37.145 -24.595 -15.376  0.00  0.00    -0.294 N 
ATOM      4  N   UNL     1      39.646 -26.139 -13.500  0.00  0.00    -0.310 N 
ATOM      5  N   UNL     1      36.044 -25.397 -13.422  0.00  0.00    -0.273 N 
ATOM      6  N   UNL     1      39.545 -25.071 -15.462  0.00  0.00    -0.302 N 
ATOM      7  C   UNL     1      38.343 -25.767 -13.666  0.00  0.00    +0.133 A 
ATOM      8  C   UNL     1      38.316 -25.117 -14.874  0.00  0.00    +0.129 A 
ATOM      9  C   UNL     1      37.193 -25.958 -12.838  0.00  0.00    +0.277 A 
ATOM     10  C   UNL     1      35.949 -24.716 -14.661  0.00  0.00    +0.328 A 
ATOM     11  C   UNL     1      40.329 -25.698 -14.607  0.00  0.00    +0.183 C 
ATOM     12  H   UNL     1      37.149 -24.132 -16.245  0.00  0.00    +0.172 HD
ATOM     13  H   UNL     1      40.022 -26.628 -12.734  0.00  0.00    +0.149 HD
ATOM     14  H   UNL     1      35.207 -25.488 -12.912  0.00  0.00    +0.173 HD
ATOM     15  H   UNL     1      39.790 -24.665 -16.325  0.00  0.00    +0.150 HD
ENDROOT
TORSDOF 0
ENDMDL
MODEL 4
REMARK VINA RESULT:      -6.6      2.867      4.140
REMARK  Name = 1188
REMARK  0 active torsions:
REMARK  status: ('A' for Active; 'I' for Inactive)
REMARK                            x       y       z     vdW  Elec       q    Type
REMARK                         _______ _______ _______ _____ _____    ______ ____
ROOT
ATOM      1  O   UNL     1      36.002 -24.256 -15.739  0.00  0.00    -0.266 OA
ATOM      2  O   UNL     1      39.863 -26.664 -14.821  0.00  0.00    -0.247 OA
ATOM      3  N   UNL     1      39.017 -25.310 -13.156  0.00  0.00    -0.294 N 
ATOM      4  N   UNL     1      36.261 -23.189 -12.909  0.00  0.00    -0.310 N 
ATOM      5  N   UNL     1      37.934 -25.459 -15.272  0.00  0.00    -0.273 N 
ATOM      6  N   UNL     1      37.931 -23.807 -11.557  0.00  0.00    -0.302 N 
ATOM      7  C   UNL     1      37.027 -24.065 -13.624  0.00  0.00    +0.133 A 
ATOM      8  C   UNL     1      38.038 -24.423 -12.769  0.00  0.00    +0.129 A 
ATOM      9  C   UNL     1      36.897 -24.563 -14.958  0.00  0.00    +0.277 A 
ATOM     10  C   UNL     1      39.003 -25.868 -14.438  0.00  0.00    +0.328 A 
ATOM     11  C   UNL     1      36.846 -23.067 -11.673  0.00  0.00    +0.183 C 
ATOM     12  H   UNL     1      39.734 -25.553 -12.526  0.00  0.00    +0.172 HD
ATOM     13  H   UNL     1      35.447 -22.733 -13.222  0.00  0.00    +0.149 HD
ATOM     14  H   UNL     1      37.915 -25.847 -16.176  0.00  0.00    +0.173 HD
ATOM     15  H   UNL     1      38.526 -23.895 -10.778  0.00  0.00    +0.150 HD
ENDROOT
TORSDOF 0
ENDMDL
MODEL 5
REMARK VINA RESULT:      -6.6      2.190      2.190
REMARK  Name = 1188
REMARK  0 active torsions:
REMARK  status: ('A' for Active; 'I' for Inactive)
REMARK                            x       y       z     vdW  Elec       q    Type
REMARK                         _______ _______ _______ _____ _____    ______ ____
ROOT
ATOM      1  O   UNL     1      39.146 -22.985 -11.595  0.00  0.00    -0.266 OA
ATOM      2  O   UNL     1      34.941 -24.923 -11.250  0.00  0.00    -0.247 OA
ATOM      3  N   UNL     1      36.419 -25.820 -12.777  0.00  0.00    -0.294 N 
ATOM      4  N   UNL     1      39.689 -25.075 -13.727  0.00  0.00    -0.310 N 
ATOM      5  N   UNL     1      37.044 -23.960 -11.427  0.00  0.00    -0.273 N 
ATOM      6  N   UNL     1      38.156 -26.590 -14.321  0.00  0.00    -0.302 N 
ATOM      7  C   UNL     1      38.588 -24.825 -12.960  0.00  0.00    +0.133 A 
ATOM      8  C   UNL     1      37.671 -25.768 -13.348  0.00  0.00    +0.129 A 
ATOM      9  C   UNL     1      38.340 -23.837 -11.957  0.00  0.00    +0.277 A 
ATOM     10  C   UNL     1      36.052 -24.908 -11.783  0.00  0.00    +0.328 A 
ATOM     11  C   UNL     1      39.381 -26.146 -14.529  0.00  0.00    +0.183 C 
ATOM     12  H   UNL     1      35.776 -26.506 -13.071  0.00  0.00    +0.172 HD
ATOM     13  H   UNL     1      40.541 -24.582 -13.708  0.00  0.00    +0.149 HD
ATOM     14  H   UNL     1      36.796 -23.315 -10.728  0.00  0.00    +0.173 HD
ATOM     15  H   UNL     1      37.699 -27.341 -14.765  0.00  0.00    +0.150 HD
ENDROOT
TORSDOF 0
ENDMDL
MODEL 6
REMARK VINA RESULT:      -6.5      2.962      3.867
REMARK  Name = 1188
REMARK  0 active torsions:
REMARK  status: ('A' for Active; 'I' for Inactive)
REMARK                            x       y       z     vdW  Elec       q    Type
REMARK                         _______ _______ _______ _____ _____    ______ ____
ROOT
ATOM      1  O   UNL     1      39.941 -24.587 -14.352  0.00  0.00    -0.266 OA
ATOM      2  O   UNL     1      36.690 -27.334 -16.204  0.00  0.00    -0.247 OA
ATOM      3  N   UNL     1      36.182 -26.238 -14.239  0.00  0.00    -0.294 N 
ATOM      4  N   UNL     1      37.912 -24.038 -12.161  0.00  0.00    -0.310 N 
ATOM      5  N   UNL     1      38.309 -25.960 -15.273  0.00  0.00    -0.273 N 
ATOM      6  N   UNL     1      35.882 -24.973 -12.164  0.00  0.00    -0.302 N 
ATOM      7  C   UNL     1      37.854 -24.820 -13.278  0.00  0.00    +0.133 A 
ATOM      8  C   UNL     1      36.601 -25.377 -13.250  0.00  0.00    +0.129 A 
ATOM      9  C   UNL     1      38.815 -25.073 -14.306  0.00  0.00    +0.277 A 
ATOM     10  C   UNL     1      37.029 -26.567 -15.301  0.00  0.00    +0.328 A 
ATOM     11  C   UNL     1      36.703 -24.163 -11.524  0.00  0.00    +0.183 C 
ATOM     12  H   UNL     1      35.277 -26.626 -14.198  0.00  0.00    +0.172 HD
ATOM     13  H   UNL     1      38.676 -23.491 -11.869  0.00  0.00    +0.149 HD
ATOM     14  H   UNL     1      38.912 -26.184 -16.017  0.00  0.00    +0.173 HD
ATOM     15  H   UNL     1      34.964 -25.227 -11.916  0.00  0.00    +0.150 HD
ENDROOT
TORSDOF 0
ENDMDL
MODEL 7
REMARK VINA RESULT:      -6.4      2.734      3.135
REMARK  Name = 1188
REMARK  0 active torsions:
REMARK  status: ('A' for Active; 'I' for Inactive)
REMARK                            x       y       z     vdW  Elec       q    Type
REMARK                         _______ _______ _______ _____ _____    ______ ____
ROOT
ATOM      1  O   UNL     1      35.557 -24.719 -15.639  0.00  0.00    -0.266 OA
ATOM      2  O   UNL     1      35.439 -25.069 -11.011  0.00  0.00    -0.247 OA
ATOM      3  N   UNL     1      37.452 -25.457 -12.070  0.00  0.00    -0.294 N 
ATOM      4  N   UNL     1      38.497 -25.432 -15.395  0.00  0.00    -0.310 N 
ATOM      5  N   UNL     1      35.506 -24.895 -13.323  0.00  0.00    -0.273 N 
ATOM      6  N   UNL     1      39.463 -25.821 -13.417  0.00  0.00    -0.302 N 
ATOM      7  C   UNL     1      37.519 -25.278 -14.456  0.00  0.00    +0.133 A 
ATOM      8  C   UNL     1      38.143 -25.523 -13.259  0.00  0.00    +0.129 A 
ATOM      9  C   UNL     1      36.135 -24.941 -14.580  0.00  0.00    +0.277 A 
ATOM     10  C   UNL     1      36.091 -25.137 -12.055  0.00  0.00    +0.328 A 
ATOM     11  C   UNL     1      39.648 -25.758 -14.721  0.00  0.00    +0.183 C 
ATOM     12  H   UNL     1      37.919 -25.636 -11.222  0.00  0.00    +0.172 HD
ATOM     13  H   UNL     1      38.396 -25.330 -16.369  0.00  0.00    +0.149 HD
ATOM     14  H   UNL     1      34.548 -24.668 -13.323  0.00  0.00    +0.173 HD
ATOM     15  H   UNL     1      40.125 -26.034 -12.720  0.00  0.00    +0.150 HD
ENDROOT
TORSDOF 0
ENDMDL
MODEL 8
REMARK VINA RESULT:      -6.4      6.928      8.382
REMARK  Name = 1188
REMARK  0 active torsions:
REMARK  status: ('A' for Active; 'I' for Inactive)
REMARK                            x       y       z     vdW  Elec       q    Type
REMARK                         _______ _______ _______ _____ _____    ______ ____
ROOT
ATOM      1  O   UNL     1      32.305 -20.163 -20.873  0.00  0.00    -0.266 OA
ATOM      2  O   UNL     1      33.746 -23.608 -18.115  0.00  0.00    -0.247 OA
ATOM      3  N   UNL     1      35.325 -22.112 -18.885  0.00  0.00    -0.294 N 
ATOM      4  N   UNL     1      35.212 -19.294 -20.934  0.00  0.00    -0.310 N 
ATOM      5  N   UNL     1      33.034 -21.884 -19.493  0.00  0.00    -0.273 N 
ATOM      6  N   UNL     1      36.806 -20.405 -19.826  0.00  0.00    -0.302 N 
ATOM      7  C   UNL     1      34.588 -20.333 -20.308  0.00  0.00    +0.133 A 
ATOM      8  C   UNL     1      35.589 -20.991 -19.640  0.00  0.00    +0.129 A 
ATOM      9  C   UNL     1      33.216 -20.736 -20.284  0.00  0.00    +0.277 A 
ATOM     10  C   UNL     1      34.022 -22.607 -18.781  0.00  0.00    +0.328 A 
ATOM     11  C   UNL     1      36.545 -19.380 -20.615  0.00  0.00    +0.183 C 
ATOM     12  H   UNL     1      36.059 -22.569 -18.414  0.00  0.00    +0.172 HD
ATOM     13  H   UNL     1      34.788 -18.615 -21.507  0.00  0.00    +0.149 HD
ATOM     14  H   UNL     1      32.113 -22.224 -19.425  0.00  0.00    +0.173 HD
ATOM     15  H   UNL     1      37.676 -20.681 -19.458  0.00  0.00    +0.150 HD
ENDROOT
TORSDOF 0
ENDMDL
MODEL 9
REMARK VINA RESULT:      -6.4      2.277      3.040
REMARK  Name = 1188
REMARK  0 active torsions:
REMARK  status: ('A' for Active; 'I' for Inactive)
REMARK                            x       y       z     vdW  Elec       q    Type
REMARK                         _______ _______ _______ _____ _____    ______ ____
ROOT
ATOM      1  O   UNL     1      38.427 -23.190 -11.599  0.00  0.00    -0.266 OA
ATOM      2  O   UNL     1      39.289 -26.668 -14.550  0.00  0.00    -0.247 OA
ATOM      3  N   UNL     1      37.108 -25.943 -14.347  0.00  0.00    -0.294 N 
ATOM      4  N   UNL     1      35.530 -23.478 -12.454  0.00  0.00    -0.310 N 
ATOM      5  N   UNL     1      38.851 -24.931 -13.078  0.00  0.00    -0.273 N 
ATOM      6  N   UNL     1      34.882 -25.001 -13.958  0.00  0.00    -0.302 N 
ATOM      7  C   UNL     1      36.658 -24.150 -12.827  0.00  0.00    +0.133 A 
ATOM      8  C   UNL     1      36.227 -25.073 -13.746  0.00  0.00    +0.129 A 
ATOM      9  C   UNL     1      38.020 -24.008 -12.418  0.00  0.00    +0.277 A 
ATOM     10  C   UNL     1      38.470 -25.906 -14.033  0.00  0.00    +0.328 A 
ATOM     11  C   UNL     1      34.488 -24.026 -13.162  0.00  0.00    +0.183 C 
ATOM     12  H   UNL     1      36.777 -26.598 -15.004  0.00  0.00    +0.172 HD
ATOM     13  H   UNL     1      35.474 -22.743 -11.803  0.00  0.00    +0.149 HD
ATOM     14  H   UNL     1      39.807 -24.896 -12.851  0.00  0.00    +0.173 HD
ATOM     15  H   UNL     1      34.333 -25.549 -14.564  0.00  0.00    +0.150 HD
ENDROOT
TORSDOF 0
ENDMDL
