MODEL 1
REMARK VINA RESULT:      -8.2      0.000      0.000
REMARK  Name = 6468
REMARK  2 active torsions:
REMARK  status: ('A' for Active; 'I' for Inactive)
REMARK    1  A    between atoms: C_1  and  N_7
REMARK    2  A    between atoms: C_1  and  C_14
REMARK                            x       y       z     vdW  Elec       q    Type
REMARK                         _______ _______ _______ _____ _____    ______ ____
ROOT
ATOM      1  C   UNL     1      31.873  -8.921 -22.027  0.00  0.00    -0.022 C 
ATOM      2  C   UNL     1      30.713  -9.943 -22.188  0.00  0.00    -0.015 C 
ATOM      3  C   UNL     1      32.148  -8.741 -20.505  0.00  0.00    -0.015 C 
ATOM      4  C   UNL     1      30.933 -11.261 -21.440  0.00  0.00    -0.002 C 
ATOM      5  C   UNL     1      32.356 -10.056 -19.750  0.00  0.00    -0.002 C 
ATOM      6  C   UNL     1      31.197 -11.022 -19.960  0.00  0.00    -0.000 C 
ENDROOT
BRANCH   1   7
ATOM      7  N   UNL     1      33.054  -9.518 -22.653  0.00  0.00    +0.392 N 
ATOM      8  C   UNL     1      32.662 -10.628 -23.532  0.00  0.00    -0.077 C 
ATOM      9  C   UNL     1      33.815  -8.499 -23.389  0.00  0.00    -0.077 C 
ATOM     10  C   UNL     1      33.889 -11.295 -24.156  0.00  0.00    -0.023 C 
ATOM     11  C   UNL     1      35.079  -9.097 -24.010  0.00  0.00    -0.023 C 
ATOM     12  C   UNL     1      34.749 -10.284 -24.907  0.00  0.00    -0.004 C 
ATOM     13  H   UNL     1      33.657  -9.894 -21.921  0.00  0.00    -0.079 HD
ENDBRANCH   1   7
BRANCH   1  14
ATOM     14  C   UNL     1      31.586  -7.551 -22.673  0.00  0.00    -0.040 C 
ATOM     15  C   UNL     1      31.830  -6.384 -21.956  0.00  0.00    -0.006 C 
ATOM     16  C   UNL     1      31.083  -7.491 -23.969  0.00  0.00    -0.006 C 
ATOM     17  C   UNL     1      31.570  -5.145 -22.541  0.00  0.00    -0.000 C 
ATOM     18  C   UNL     1      30.823  -6.252 -24.554  0.00  0.00    -0.000 C 
ATOM     19  C   UNL     1      31.068  -5.079 -23.841  0.00  0.00    -0.000 C 
ENDBRANCH   1  14
TORSDOF 2
ENDMDL
MODEL 2
REMARK VINA RESULT:      -8.0      0.913      4.450
REMARK  Name = 6468
REMARK  2 active torsions:
REMARK  status: ('A' for Active; 'I' for Inactive)
REMARK    1  A    between atoms: C_1  and  N_7
REMARK    2  A    between atoms: C_1  and  C_14
REMARK                            x       y       z     vdW  Elec       q    Type
REMARK                         _______ _______ _______ _____ _____    ______ ____
ROOT
ATOM      1  C   UNL     1      32.256  -8.221 -22.856  0.00  0.00    -0.022 C 
ATOM      2  C   UNL     1      31.096  -7.654 -23.723  0.00  0.00    -0.015 C 
ATOM      3  C   UNL     1      33.039  -7.019 -22.254  0.00  0.00    -0.015 C 
ATOM      4  C   UNL     1      30.208  -6.641 -22.993  0.00  0.00    -0.002 C 
ATOM      5  C   UNL     1      32.155  -5.997 -21.535  0.00  0.00    -0.002 C 
ATOM      6  C   UNL     1      31.030  -5.491 -22.426  0.00  0.00    -0.000 C 
ENDROOT
BRANCH   1   7
ATOM      7  N   UNL     1      31.639  -8.977 -21.765  0.00  0.00    +0.392 N 
ATOM      8  C   UNL     1      31.278 -10.328 -22.217  0.00  0.00    -0.077 C 
ATOM      9  C   UNL     1      32.537  -9.027 -20.603  0.00  0.00    -0.077 C 
ATOM     10  C   UNL     1      30.587 -11.115 -21.102  0.00  0.00    -0.023 C 
ATOM     11  C   UNL     1      31.887  -9.772 -19.435  0.00  0.00    -0.023 C 
ATOM     12  C   UNL     1      31.450 -11.173 -19.847  0.00  0.00    -0.004 C 
ATOM     13  H   UNL     1      30.782  -8.501 -21.481  0.00  0.00    -0.079 HD
ENDBRANCH   1   7
BRANCH   1  14
ATOM     14  C   UNL     1      33.220  -9.138 -23.636  0.00  0.00    -0.040 C 
ATOM     15  C   UNL     1      34.501  -8.692 -23.942  0.00  0.00    -0.006 C 
ATOM     16  C   UNL     1      32.801 -10.405 -24.029  0.00  0.00    -0.006 C 
ATOM     17  C   UNL     1      35.373  -9.521 -24.647  0.00  0.00    -0.000 C 
ATOM     18  C   UNL     1      33.672 -11.235 -24.735  0.00  0.00    -0.000 C 
ATOM     19  C   UNL     1      34.959 -10.793 -25.042  0.00  0.00    -0.000 C 
ENDBRANCH   1  14
TORSDOF 2
ENDMDL
MODEL 3
REMARK VINA RESULT:      -8.0      0.792      4.398
REMARK  Name = 6468
REMARK  2 active torsions:
REMARK  status: ('A' for Active; 'I' for Inactive)
REMARK    1  A    between atoms: C_1  and  N_7
REMARK    2  A    between atoms: C_1  and  C_14
REMARK                            x       y       z     vdW  Elec       q    Type
REMARK                         _______ _______ _______ _____ _____    ______ ____
ROOT
ATOM      1  C   UNL     1      31.919  -8.315 -22.664  0.00  0.00    -0.022 C 
ATOM      2  C   UNL     1      32.502  -6.939 -22.235  0.00  0.00    -0.015 C 
ATOM      3  C   UNL     1      30.540  -8.064 -23.340  0.00  0.00    -0.015 C 
ATOM      4  C   UNL     1      32.544  -5.900 -23.359  0.00  0.00    -0.002 C 
ATOM      5  C   UNL     1      30.574  -7.017 -24.456  0.00  0.00    -0.002 C 
ATOM      6  C   UNL     1      31.168  -5.699 -23.981  0.00  0.00    -0.000 C 
ENDROOT
BRANCH   1   7
ATOM      7  N   UNL     1      32.838  -8.872 -23.659  0.00  0.00    +0.392 N 
ATOM      8  C   UNL     1      34.204  -8.385 -23.425  0.00  0.00    -0.077 C 
ATOM      9  C   UNL     1      32.787 -10.340 -23.640  0.00  0.00    -0.077 C 
ATOM     10  C   UNL     1      35.169  -8.918 -24.485  0.00  0.00    -0.023 C 
ATOM     11  C   UNL     1      33.705 -10.938 -24.708  0.00  0.00    -0.023 C 
ATOM     12  C   UNL     1      35.137 -10.441 -24.548  0.00  0.00    -0.004 C 
ATOM     13  H   UNL     1      32.547  -8.558 -24.585  0.00  0.00    -0.079 HD
ENDBRANCH   1   7
BRANCH   1  14
ATOM     14  C   UNL     1      31.760  -9.311 -21.498  0.00  0.00    -0.040 C 
ATOM     15  C   UNL     1      31.091 -10.513 -21.704  0.00  0.00    -0.006 C 
ATOM     16  C   UNL     1      32.284  -9.000 -20.248  0.00  0.00    -0.006 C 
ATOM     17  C   UNL     1      30.946 -11.415 -20.650  0.00  0.00    -0.000 C 
ATOM     18  C   UNL     1      32.139  -9.901 -19.193  0.00  0.00    -0.000 C 
ATOM     19  C   UNL     1      31.471 -11.109 -19.394  0.00  0.00    -0.000 C 
ENDBRANCH   1  14
TORSDOF 2
ENDMDL
MODEL 4
REMARK VINA RESULT:      -7.8      7.438     10.416
REMARK  Name = 6468
REMARK  2 active torsions:
REMARK  status: ('A' for Active; 'I' for Inactive)
REMARK    1  A    between atoms: C_1  and  N_7
REMARK    2  A    between atoms: C_1  and  C_14
REMARK                            x       y       z     vdW  Elec       q    Type
REMARK                         _______ _______ _______ _____ _____    ______ ____
ROOT
ATOM      1  C   UNL     1      34.176 -17.384 -21.289  0.00  0.00    -0.022 C 
ATOM      2  C   UNL     1      35.011 -16.144 -20.861  0.00  0.00    -0.015 C 
ATOM      3  C   UNL     1      32.762 -17.255 -20.652  0.00  0.00    -0.015 C 
ATOM      4  C   UNL     1      34.326 -14.802 -21.141  0.00  0.00    -0.002 C 
ATOM      5  C   UNL     1      32.078 -15.912 -20.918  0.00  0.00    -0.002 C 
ATOM      6  C   UNL     1      32.949 -14.737 -20.494  0.00  0.00    -0.000 C 
ENDROOT
BRANCH   1   7
ATOM      7  N   UNL     1      34.045 -17.323 -22.746  0.00  0.00    +0.392 N 
ATOM      8  C   UNL     1      34.912 -16.272 -23.296  0.00  0.00    -0.077 C 
ATOM      9  C   UNL     1      34.350 -18.631 -23.344  0.00  0.00    -0.077 C 
ATOM     10  C   UNL     1      34.750 -16.163 -24.813  0.00  0.00    -0.023 C 
ATOM     11  C   UNL     1      34.170 -18.599 -24.862  0.00  0.00    -0.023 C 
ATOM     12  C   UNL     1      35.014 -17.499 -25.497  0.00  0.00    -0.004 C 
ATOM     13  H   UNL     1      33.080 -17.088 -22.978  0.00  0.00    -0.079 HD
ENDBRANCH   1   7
BRANCH   1  14
ATOM     14  C   UNL     1      34.814 -18.728 -20.886  0.00  0.00    -0.040 C 
ATOM     15  C   UNL     1      34.000 -19.800 -20.534  0.00  0.00    -0.006 C 
ATOM     16  C   UNL     1      36.199 -18.860 -20.875  0.00  0.00    -0.006 C 
ATOM     17  C   UNL     1      34.576 -21.016 -20.169  0.00  0.00    -0.000 C 
ATOM     18  C   UNL     1      36.775 -20.077 -20.510  0.00  0.00    -0.000 C 
ATOM     19  C   UNL     1      35.964 -21.155 -20.158  0.00  0.00    -0.000 C 
ENDBRANCH   1  14
TORSDOF 2
ENDMDL
MODEL 5
REMARK VINA RESULT:      -7.5      0.947      4.253
REMARK  Name = 6468
REMARK  2 active torsions:
REMARK  status: ('A' for Active; 'I' for Inactive)
REMARK    1  A    between atoms: C_1  and  N_7
REMARK    2  A    between atoms: C_1  and  C_14
REMARK                            x       y       z     vdW  Elec       q    Type
REMARK                         _______ _______ _______ _____ _____    ______ ____
ROOT
ATOM      1  C   UNL     1      32.253  -9.648 -22.138  0.00  0.00    -0.022 C 
ATOM      2  C   UNL     1      32.864  -9.432 -20.725  0.00  0.00    -0.015 C 
ATOM      3  C   UNL     1      31.337 -10.905 -22.079  0.00  0.00    -0.015 C 
ATOM      4  C   UNL     1      31.830  -9.392 -19.596  0.00  0.00    -0.002 C 
ATOM      5  C   UNL     1      30.310 -10.877 -20.945  0.00  0.00    -0.002 C 
ATOM      6  C   UNL     1      30.965 -10.646 -19.590  0.00  0.00    -0.000 C 
ENDROOT
BRANCH   1   7
ATOM      7  N   UNL     1      31.425  -8.475 -22.425  0.00  0.00    +0.392 N 
ATOM      8  C   UNL     1      31.955  -7.292 -21.734  0.00  0.00    -0.077 C 
ATOM      9  C   UNL     1      31.340  -8.250 -23.875  0.00  0.00    -0.077 C 
ATOM     10  C   UNL     1      31.073  -6.067 -21.984  0.00  0.00    -0.023 C 
ATOM     11  C   UNL     1      30.438  -7.056 -24.195  0.00  0.00    -0.023 C 
ATOM     12  C   UNL     1      30.908  -5.797 -23.475  0.00  0.00    -0.004 C 
ATOM     13  H   UNL     1      30.482  -8.647 -22.077  0.00  0.00    -0.079 HD
ENDBRANCH   1   7
BRANCH   1  14
ATOM     14  C   UNL     1      33.307  -9.817 -23.250  0.00  0.00    -0.040 C 
ATOM     15  C   UNL     1      33.350 -10.997 -23.986  0.00  0.00    -0.006 C 
ATOM     16  C   UNL     1      34.210  -8.791 -23.507  0.00  0.00    -0.006 C 
ATOM     17  C   UNL     1      34.305 -11.150 -24.992  0.00  0.00    -0.000 C 
ATOM     18  C   UNL     1      35.165  -8.944 -24.513  0.00  0.00    -0.000 C 
ATOM     19  C   UNL     1      35.211 -10.123 -25.256  0.00  0.00    -0.000 C 
ENDBRANCH   1  14
TORSDOF 2
ENDMDL
MODEL 6
REMARK VINA RESULT:      -7.0      7.377      9.544
REMARK  Name = 6468
REMARK  2 active torsions:
REMARK  status: ('A' for Active; 'I' for Inactive)
REMARK    1  A    between atoms: C_1  and  N_7
REMARK    2  A    between atoms: C_1  and  C_14
REMARK                            x       y       z     vdW  Elec       q    Type
REMARK                         _______ _______ _______ _____ _____    ______ ____
ROOT
ATOM      1  C   UNL     1      34.752 -18.117 -21.281  0.00  0.00    -0.022 C 
ATOM      2  C   UNL     1      33.920 -19.362 -20.864  0.00  0.00    -0.015 C 
ATOM      3  C   UNL     1      36.113 -18.173 -20.527  0.00  0.00    -0.015 C 
ATOM      4  C   UNL     1      34.662 -20.693 -21.025  0.00  0.00    -0.002 C 
ATOM      5  C   UNL     1      36.852 -19.505 -20.674  0.00  0.00    -0.002 C 
ATOM      6  C   UNL     1      35.983 -20.687 -20.267  0.00  0.00    -0.000 C 
ENDROOT
BRANCH   1   7
ATOM      7  N   UNL     1      35.004 -18.238 -22.717  0.00  0.00    +0.392 N 
ATOM      8  C   UNL     1      34.181 -19.310 -23.294  0.00  0.00    -0.077 C 
ATOM      9  C   UNL     1      34.756 -16.956 -23.392  0.00  0.00    -0.077 C 
ATOM     10  C   UNL     1      34.467 -19.482 -24.787  0.00  0.00    -0.023 C 
ATOM     11  C   UNL     1      35.061 -17.051 -24.888  0.00  0.00    -0.023 C 
ATOM     12  C   UNL     1      34.267 -18.175 -25.545  0.00  0.00    -0.004 C 
ATOM     13  H   UNL     1      35.984 -18.484 -22.859  0.00  0.00    -0.079 HD
ENDBRANCH   1   7
BRANCH   1  14
ATOM     14  C   UNL     1      34.047 -16.777 -20.994  0.00  0.00    -0.040 C 
ATOM     15  C   UNL     1      34.802 -15.616 -20.857  0.00  0.00    -0.006 C 
ATOM     16  C   UNL     1      32.662 -16.737 -20.871  0.00  0.00    -0.006 C 
ATOM     17  C   UNL     1      34.164 -14.403 -20.597  0.00  0.00    -0.000 C 
ATOM     18  C   UNL     1      32.024 -15.524 -20.611  0.00  0.00    -0.000 C 
ATOM     19  C   UNL     1      32.775 -14.357 -20.475  0.00  0.00    -0.000 C 
ENDBRANCH   1  14
TORSDOF 2
ENDMDL
MODEL 7
REMARK VINA RESULT:      -6.9     15.627     18.115
REMARK  Name = 6468
REMARK  2 active torsions:
REMARK  status: ('A' for Active; 'I' for Inactive)
REMARK    1  A    between atoms: C_1  and  N_7
REMARK    2  A    between atoms: C_1  and  C_14
REMARK                            x       y       z     vdW  Elec       q    Type
REMARK                         _______ _______ _______ _____ _____    ______ ____
ROOT
ATOM      1  C   UNL     1      36.428 -23.769 -13.684  0.00  0.00    -0.022 C 
ATOM      2  C   UNL     1      35.118 -24.302 -13.040  0.00  0.00    -0.015 C 
ATOM      3  C   UNL     1      37.035 -22.701 -12.729  0.00  0.00    -0.015 C 
ATOM      4  C   UNL     1      35.283 -24.787 -11.597  0.00  0.00    -0.002 C 
ATOM      5  C   UNL     1      37.191 -23.176 -11.282  0.00  0.00    -0.002 C 
ATOM      6  C   UNL     1      35.881 -23.701 -10.711  0.00  0.00    -0.000 C 
ENDROOT
BRANCH   1   7
ATOM      7  N   UNL     1      37.349 -24.903 -13.771  0.00  0.00    +0.392 N 
ATOM      8  C   UNL     1      37.039 -25.727 -14.946  0.00  0.00    -0.077 C 
ATOM      9  C   UNL     1      38.741 -24.433 -13.804  0.00  0.00    -0.077 C 
ATOM     10  C   UNL     1      37.962 -26.945 -15.024  0.00  0.00    -0.023 C 
ATOM     11  C   UNL     1      39.720 -25.607 -13.844  0.00  0.00    -0.023 C 
ATOM     12  C   UNL     1      39.429 -26.531 -15.022  0.00  0.00    -0.004 C 
ATOM     13  H   UNL     1      37.233 -25.483 -12.940  0.00  0.00    -0.079 HD
ENDBRANCH   1   7
BRANCH   1  14
ATOM     14  C   UNL     1      36.226 -23.163 -15.088  0.00  0.00    -0.040 C 
ATOM     15  C   UNL     1      37.248 -22.422 -15.673  0.00  0.00    -0.006 C 
ATOM     16  C   UNL     1      35.023 -23.361 -15.759  0.00  0.00    -0.006 C 
ATOM     17  C   UNL     1      37.065 -21.874 -16.943  0.00  0.00    -0.000 C 
ATOM     18  C   UNL     1      34.841 -22.813 -17.028  0.00  0.00    -0.000 C 
ATOM     19  C   UNL     1      35.862 -22.070 -17.621  0.00  0.00    -0.000 C 
ENDBRANCH   1  14
TORSDOF 2
ENDMDL
MODEL 8
REMARK VINA RESULT:      -6.8     14.854     17.346
REMARK  Name = 6468
REMARK  2 active torsions:
REMARK  status: ('A' for Active; 'I' for Inactive)
REMARK    1  A    between atoms: C_1  and  N_7
REMARK    2  A    between atoms: C_1  and  C_14
REMARK                            x       y       z     vdW  Elec       q    Type
REMARK                         _______ _______ _______ _____ _____    ______ ____
ROOT
ATOM      1  C   UNL     1      35.985 -23.446 -15.239  0.00  0.00    -0.022 C 
ATOM      2  C   UNL     1      34.672 -23.925 -14.558  0.00  0.00    -0.015 C 
ATOM      3  C   UNL     1      36.692 -22.451 -14.274  0.00  0.00    -0.015 C 
ATOM      4  C   UNL     1      34.867 -24.472 -13.141  0.00  0.00    -0.002 C 
ATOM      5  C   UNL     1      36.878 -22.987 -12.852  0.00  0.00    -0.002 C 
ATOM      6  C   UNL     1      35.564 -23.457 -12.245  0.00  0.00    -0.000 C 
ENDROOT
BRANCH   1   7
ATOM      7  N   UNL     1      36.832 -24.627 -15.404  0.00  0.00    +0.392 N 
ATOM      8  C   UNL     1      38.063 -24.490 -14.613  0.00  0.00    -0.077 C 
ATOM      9  C   UNL     1      36.096 -25.844 -15.034  0.00  0.00    -0.077 C 
ATOM     10  C   UNL     1      38.983 -25.695 -14.812  0.00  0.00    -0.023 C 
ATOM     11  C   UNL     1      36.952 -27.094 -15.247  0.00  0.00    -0.023 C 
ATOM     12  C   UNL     1      38.268 -27.001 -14.483  0.00  0.00    -0.004 C 
ATOM     13  H   UNL     1      37.097 -24.706 -16.386  0.00  0.00    -0.079 HD
ENDBRANCH   1   7
BRANCH   1  14
ATOM     14  C   UNL     1      35.762 -22.778 -16.611  0.00  0.00    -0.040 C 
ATOM     15  C   UNL     1      36.785 -22.035 -17.191  0.00  0.00    -0.006 C 
ATOM     16  C   UNL     1      34.539 -22.921 -17.258  0.00  0.00    -0.006 C 
ATOM     17  C   UNL     1      36.584 -21.430 -18.431  0.00  0.00    -0.000 C 
ATOM     18  C   UNL     1      34.338 -22.317 -18.499  0.00  0.00    -0.000 C 
ATOM     19  C   UNL     1      35.361 -21.572 -19.086  0.00  0.00    -0.000 C 
ENDBRANCH   1  14
TORSDOF 2
ENDMDL
MODEL 9
REMARK VINA RESULT:      -6.6     14.378     17.038
REMARK  Name = 6468
REMARK  2 active torsions:
REMARK  status: ('A' for Active; 'I' for Inactive)
REMARK    1  A    between atoms: C_1  and  N_7
REMARK    2  A    between atoms: C_1  and  C_14
REMARK                            x       y       z     vdW  Elec       q    Type
REMARK                         _______ _______ _______ _____ _____    ______ ____
ROOT
ATOM      1  C   UNL     1      34.739 -24.055 -14.999  0.00  0.00    -0.022 C 
ATOM      2  C   UNL     1      35.305 -25.496 -14.858  0.00  0.00    -0.015 C 
ATOM      3  C   UNL     1      35.593 -23.111 -14.104  0.00  0.00    -0.015 C 
ATOM      4  C   UNL     1      36.812 -25.602 -15.109  0.00  0.00    -0.002 C 
ATOM      5  C   UNL     1      37.101 -23.223 -14.341  0.00  0.00    -0.002 C 
ATOM      6  C   UNL     1      37.593 -24.657 -14.206  0.00  0.00    -0.000 C 
ENDROOT
BRANCH   1   7
ATOM      7  N   UNL     1      34.916 -23.665 -16.399  0.00  0.00    +0.392 N 
ATOM      8  C   UNL     1      33.614 -23.553 -17.070  0.00  0.00    -0.077 C 
ATOM      9  C   UNL     1      35.671 -22.408 -16.491  0.00  0.00    -0.077 C 
ATOM     10  C   UNL     1      33.784 -23.195 -18.547  0.00  0.00    -0.023 C 
ATOM     11  C   UNL     1      35.909 -22.012 -17.949  0.00  0.00    -0.023 C 
ATOM     12  C   UNL     1      34.596 -21.916 -18.718  0.00  0.00    -0.004 C 
ATOM     13  H   UNL     1      35.453 -24.391 -16.875  0.00  0.00    -0.079 HD
ENDBRANCH   1   7
BRANCH   1  14
ATOM     14  C   UNL     1      33.249 -23.935 -14.618  0.00  0.00    -0.040 C 
ATOM     15  C   UNL     1      32.584 -25.032 -14.081  0.00  0.00    -0.006 C 
ATOM     16  C   UNL     1      32.581 -22.730 -14.815  0.00  0.00    -0.006 C 
ATOM     17  C   UNL     1      31.237 -24.923 -13.736  0.00  0.00    -0.000 C 
ATOM     18  C   UNL     1      31.234 -22.622 -14.470  0.00  0.00    -0.000 C 
ATOM     19  C   UNL     1      30.562 -23.718 -13.930  0.00  0.00    -0.000 C 
ENDBRANCH   1  14
TORSDOF 2
ENDMDL
