MODEL 1
REMARK VINA RESULT:      -7.9      0.000      0.000
REMARK  Name = 448582
REMARK  8 active torsions:
REMARK  status: ('A' for Active; 'I' for Inactive)
REMARK    1  A    between atoms: CA_1  and  C_2
REMARK    2  A    between atoms: CA_1  and  N_9
REMARK    3  A    between atoms: CA_1  and  C_19
REMARK    4  A    between atoms: C_10  and  C_12
REMARK    5  A    between atoms: C_12  and  C_13
REMARK    6  A    between atoms: C_13  and  C_15
REMARK    7  A    between atoms: C_15  and  O_16
REMARK    8  A    between atoms: C_19  and  O_20
REMARK                            x       y       z     vdW  Elec       q    Type
REMARK                         _______ _______ _______ _____ _____    ______ ____
ROOT
ATOM      1  CA  UNL     1      34.657 -24.584 -14.745  0.00  0.00    +0.194 C 
ENDROOT
BRANCH   1   2
ATOM      2  C   UNL     1      34.879 -23.666 -15.923  0.00  0.00    +0.006 C 
ATOM      3  C   UNL     1      36.065 -22.956 -16.017  0.00  0.00    -0.002 C 
ATOM      4  C   UNL     1      33.891 -23.550 -16.888  0.00  0.00    -0.002 C 
ATOM      5  C   UNL     1      36.270 -22.107 -17.105  0.00  0.00    -0.000 C 
ATOM      6  C   UNL     1      34.096 -22.701 -17.976  0.00  0.00    -0.000 C 
ATOM      7  C   UNL     1      35.285 -21.980 -18.084  0.00  0.00    -0.000 C 
ENDBRANCH   1   2
BRANCH   1   9
ATOM      8  O   UNL     1      36.258 -26.740 -15.822  0.00  0.00    -0.275 OA
ATOM      9  N   UNL     1      35.907 -25.089 -14.226  0.00  0.00    -0.293 N 
ATOM     10  C   UNL     1      36.606 -26.133 -14.814  0.00  0.00    +0.224 C 
ATOM     11  H   UNL     1      36.281 -24.673 -13.415  0.00  0.00    +0.150 HD
BRANCH  10  12
ATOM     12  C   UNL     1      37.881 -26.450 -14.053  0.00  0.00    +0.097 C 
BRANCH  12  13
ATOM     13  C   UNL     1      38.962 -25.394 -14.260  0.00  0.00    +0.119 C 
BRANCH  13  15
ATOM     14  O   UNL     1      41.115 -26.515 -14.073  0.00  0.00    -0.250 OA
ATOM     15  C   UNL     1      40.251 -25.998 -14.768  0.00  0.00    +0.314 C 
BRANCH  15  16
ATOM     16  O   UNL     1      40.346 -25.902 -16.119  0.00  0.00    -0.480 OA
ATOM     17  H   UNL     1      41.003 -25.356 -16.505  0.00  0.00    +0.295 HD
ENDBRANCH  15  16
ENDBRANCH  13  15
ENDBRANCH  12  13
ENDBRANCH  10  12
ENDBRANCH   1   9
BRANCH   1  19
ATOM     18  OXT UNL     1      32.649 -23.622 -13.780  0.00  0.00    -0.248 OA
ATOM     19  C   UNL     1      33.830 -23.927 -13.654  0.00  0.00    +0.336 C 
BRANCH  19  20
ATOM     20  O   UNL     1      34.543 -23.660 -12.534  0.00  0.00    -0.479 OA
ATOM     21  H   UNL     1      35.324 -24.142 -12.350  0.00  0.00    +0.295 HD
ENDBRANCH  19  20
ENDBRANCH   1  19
TORSDOF 8
ENDMDL
MODEL 2
REMARK VINA RESULT:      -7.8      8.295     11.241
REMARK  Name = 448582
REMARK  8 active torsions:
REMARK  status: ('A' for Active; 'I' for Inactive)
REMARK    1  A    between atoms: CA_1  and  C_2
REMARK    2  A    between atoms: CA_1  and  N_9
REMARK    3  A    between atoms: CA_1  and  C_19
REMARK    4  A    between atoms: C_10  and  C_12
REMARK    5  A    between atoms: C_12  and  C_13
REMARK    6  A    between atoms: C_13  and  C_15
REMARK    7  A    between atoms: C_15  and  O_16
REMARK    8  A    between atoms: C_19  and  O_20
REMARK                            x       y       z     vdW  Elec       q    Type
REMARK                         _______ _______ _______ _____ _____    ______ ____
ROOT
ATOM      1  CA  UNL     1      34.247 -18.603 -21.971  0.00  0.00    +0.194 C 
ENDROOT
BRANCH   1   2
ATOM      2  C   UNL     1      34.385 -19.740 -20.987  0.00  0.00    +0.006 C 
ATOM      3  C   UNL     1      35.649 -20.189 -20.640  0.00  0.00    -0.002 C 
ATOM      4  C   UNL     1      33.244 -20.314 -20.449  0.00  0.00    -0.002 C 
ATOM      5  C   UNL     1      35.777 -21.239 -19.731  0.00  0.00    -0.000 C 
ATOM      6  C   UNL     1      33.371 -21.363 -19.540  0.00  0.00    -0.000 C 
ATOM      7  C   UNL     1      34.637 -21.826 -19.181  0.00  0.00    -0.000 C 
ENDBRANCH   1   2
BRANCH   1   9
ATOM      8  O   UNL     1      33.798 -16.002 -23.155  0.00  0.00    -0.275 OA
ATOM      9  N   UNL     1      34.299 -17.321 -21.309  0.00  0.00    -0.293 N 
ATOM     10  C   UNL     1      34.067 -16.120 -21.963  0.00  0.00    +0.224 C 
ATOM     11  H   UNL     1      34.507 -17.297 -20.347  0.00  0.00    +0.150 HD
BRANCH  10  12
ATOM     12  C   UNL     1      34.189 -14.937 -21.019  0.00  0.00    +0.097 C 
BRANCH  12  13
ATOM     13  C   UNL     1      32.851 -14.547 -20.398  0.00  0.00    +0.119 C 
BRANCH  13  15
ATOM     14  O   UNL     1      31.980 -12.278 -20.538  0.00  0.00    -0.250 OA
ATOM     15  C   UNL     1      32.242 -13.343 -21.080  0.00  0.00    +0.314 C 
BRANCH  15  16
ATOM     16  O   UNL     1      32.014 -13.580 -22.397  0.00  0.00    -0.480 OA
ATOM     17  H   UNL     1      32.475 -13.088 -23.048  0.00  0.00    +0.295 HD
ENDBRANCH  15  16
ENDBRANCH  13  15
ENDBRANCH  12  13
ENDBRANCH  10  12
ENDBRANCH   1   9
BRANCH   1  19
ATOM     18  OXT UNL     1      35.141 -19.395 -24.085  0.00  0.00    -0.248 OA
ATOM     19  C   UNL     1      35.270 -18.688 -23.091  0.00  0.00    +0.336 C 
BRANCH  19  20
ATOM     20  O   UNL     1      36.376 -17.940 -22.860  0.00  0.00    -0.479 OA
ATOM     21  H   UNL     1      36.632 -17.742 -21.981  0.00  0.00    +0.295 HD
ENDBRANCH  19  20
ENDBRANCH   1  19
TORSDOF 8
ENDMDL
MODEL 3
REMARK VINA RESULT:      -7.8      2.730      6.002
REMARK  Name = 448582
REMARK  8 active torsions:
REMARK  status: ('A' for Active; 'I' for Inactive)
REMARK    1  A    between atoms: CA_1  and  C_2
REMARK    2  A    between atoms: CA_1  and  N_9
REMARK    3  A    between atoms: CA_1  and  C_19
REMARK    4  A    between atoms: C_10  and  C_12
REMARK    5  A    between atoms: C_12  and  C_13
REMARK    6  A    between atoms: C_13  and  C_15
REMARK    7  A    between atoms: C_15  and  O_16
REMARK    8  A    between atoms: C_19  and  O_20
REMARK                            x       y       z     vdW  Elec       q    Type
REMARK                         _______ _______ _______ _____ _____    ______ ____
ROOT
ATOM      1  CA  UNL     1      34.446 -23.540 -15.217  0.00  0.00    +0.194 C 
ENDROOT
BRANCH   1   2
ATOM      2  C   UNL     1      35.015 -22.893 -16.456  0.00  0.00    +0.006 C 
ATOM      3  C   UNL     1      36.297 -22.368 -16.421  0.00  0.00    -0.002 C 
ATOM      4  C   UNL     1      34.245 -22.835 -17.607  0.00  0.00    -0.002 C 
ATOM      5  C   UNL     1      36.823 -21.769 -17.566  0.00  0.00    -0.000 C 
ATOM      6  C   UNL     1      34.771 -22.237 -18.751  0.00  0.00    -0.000 C 
ATOM      7  C   UNL     1      36.060 -21.704 -18.731  0.00  0.00    -0.000 C 
ENDBRANCH   1   2
BRANCH   1   9
ATOM      8  O   UNL     1      32.456 -23.607 -13.118  0.00  0.00    -0.275 OA
ATOM      9  N   UNL     1      33.034 -23.806 -15.360  0.00  0.00    -0.293 N 
ATOM     10  C   UNL     1      32.152 -23.816 -14.289  0.00  0.00    +0.224 C 
ATOM     11  H   UNL     1      32.679 -23.988 -16.260  0.00  0.00    +0.150 HD
BRANCH  10  12
ATOM     12  C   UNL     1      30.734 -24.125 -14.736  0.00  0.00    +0.097 C 
BRANCH  12  13
ATOM     13  C   UNL     1      29.919 -22.863 -15.001  0.00  0.00    +0.119 C 
BRANCH  13  15
ATOM     14  O   UNL     1      30.881 -22.535 -17.213  0.00  0.00    -0.250 OA
ATOM     15  C   UNL     1      29.913 -22.491 -16.466  0.00  0.00    +0.314 C 
BRANCH  15  16
ATOM     16  O   UNL     1      28.680 -22.093 -16.872  0.00  0.00    -0.480 OA
ATOM     17  H   UNL     1      28.381 -21.226 -16.678  0.00  0.00    +0.295 HD
ENDBRANCH  15  16
ENDBRANCH  13  15
ENDBRANCH  12  13
ENDBRANCH  10  12
ENDBRANCH   1   9
BRANCH   1  19
ATOM     18  OXT UNL     1      35.702 -25.576 -15.631  0.00  0.00    -0.248 OA
ATOM     19  C   UNL     1      35.208 -24.795 -14.825  0.00  0.00    +0.336 C 
BRANCH  19  20
ATOM     20  O   UNL     1      35.244 -24.999 -13.486  0.00  0.00    -0.479 OA
ATOM     21  H   UNL     1      35.981 -24.707 -12.988  0.00  0.00    +0.295 HD
ENDBRANCH  19  20
ENDBRANCH   1  19
TORSDOF 8
ENDMDL
MODEL 4
REMARK VINA RESULT:      -7.7      8.251     10.945
REMARK  Name = 448582
REMARK  8 active torsions:
REMARK  status: ('A' for Active; 'I' for Inactive)
REMARK    1  A    between atoms: CA_1  and  C_2
REMARK    2  A    between atoms: CA_1  and  N_9
REMARK    3  A    between atoms: CA_1  and  C_19
REMARK    4  A    between atoms: C_10  and  C_12
REMARK    5  A    between atoms: C_12  and  C_13
REMARK    6  A    between atoms: C_13  and  C_15
REMARK    7  A    between atoms: C_15  and  O_16
REMARK    8  A    between atoms: C_19  and  O_20
REMARK                            x       y       z     vdW  Elec       q    Type
REMARK                         _______ _______ _______ _____ _____    ______ ____
ROOT
ATOM      1  CA  UNL     1      34.203 -18.621 -22.163  0.00  0.00    +0.194 C 
ENDROOT
BRANCH   1   2
ATOM      2  C   UNL     1      34.419 -19.699 -21.129  0.00  0.00    +0.006 C 
ATOM      3  C   UNL     1      35.710 -20.028 -20.749  0.00  0.00    -0.002 C 
ATOM      4  C   UNL     1      33.320 -20.341 -20.578  0.00  0.00    -0.002 C 
ATOM      5  C   UNL     1      35.909 -21.024 -19.793  0.00  0.00    -0.000 C 
ATOM      6  C   UNL     1      33.519 -21.336 -19.622  0.00  0.00    -0.000 C 
ATOM      7  C   UNL     1      34.814 -21.678 -19.230  0.00  0.00    -0.000 C 
ENDBRANCH   1   2
BRANCH   1   9
ATOM      8  O   UNL     1      32.311 -16.848 -20.879  0.00  0.00    -0.275 OA
ATOM      9  N   UNL     1      34.465 -17.308 -21.622  0.00  0.00    -0.293 N 
ATOM     10  C   UNL     1      33.488 -16.528 -21.021  0.00  0.00    +0.224 C 
ATOM     11  H   UNL     1      35.380 -16.949 -21.681  0.00  0.00    +0.150 HD
BRANCH  10  12
ATOM     12  C   UNL     1      34.048 -15.199 -20.547  0.00  0.00    +0.097 C 
BRANCH  12  13
ATOM     13  C   UNL     1      33.634 -14.038 -21.445  0.00  0.00    +0.119 C 
BRANCH  13  15
ATOM     14  O   UNL     1      34.955 -15.038 -23.228  0.00  0.00    -0.250 OA
ATOM     15  C   UNL     1      34.331 -14.084 -22.785  0.00  0.00    +0.314 C 
BRANCH  15  16
ATOM     16  O   UNL     1      34.180 -12.917 -23.463  0.00  0.00    -0.480 OA
ATOM     17  H   UNL     1      33.327 -12.541 -23.566  0.00  0.00    +0.295 HD
ENDBRANCH  15  16
ENDBRANCH  13  15
ENDBRANCH  12  13
ENDBRANCH  10  12
ENDBRANCH   1   9
BRANCH   1  19
ATOM     18  OXT UNL     1      34.836 -19.825 -24.174  0.00  0.00    -0.248 OA
ATOM     19  C   UNL     1      35.011 -18.869 -23.426  0.00  0.00    +0.336 C 
BRANCH  19  20
ATOM     20  O   UNL     1      35.989 -17.952 -23.620  0.00  0.00    -0.479 OA
ATOM     21  H   UNL     1      36.494 -17.967 -24.409  0.00  0.00    +0.295 HD
ENDBRANCH  19  20
ENDBRANCH   1  19
TORSDOF 8
ENDMDL
MODEL 5
REMARK VINA RESULT:      -7.7      7.978     10.241
REMARK  Name = 448582
REMARK  8 active torsions:
REMARK  status: ('A' for Active; 'I' for Inactive)
REMARK    1  A    between atoms: CA_1  and  C_2
REMARK    2  A    between atoms: CA_1  and  N_9
REMARK    3  A    between atoms: CA_1  and  C_19
REMARK    4  A    between atoms: C_10  and  C_12
REMARK    5  A    between atoms: C_12  and  C_13
REMARK    6  A    between atoms: C_13  and  C_15
REMARK    7  A    between atoms: C_15  and  O_16
REMARK    8  A    between atoms: C_19  and  O_20
REMARK                            x       y       z     vdW  Elec       q    Type
REMARK                         _______ _______ _______ _____ _____    ______ ____
ROOT
ATOM      1  CA  UNL     1      34.610 -16.962 -22.318  0.00  0.00    +0.194 C 
ENDROOT
BRANCH   1   2
ATOM      2  C   UNL     1      33.790 -15.741 -21.975  0.00  0.00    +0.006 C 
ATOM      3  C   UNL     1      33.292 -14.948 -22.996  0.00  0.00    -0.002 C 
ATOM      4  C   UNL     1      33.550 -15.437 -20.644  0.00  0.00    -0.002 C 
ATOM      5  C   UNL     1      32.535 -13.820 -22.679  0.00  0.00    -0.000 C 
ATOM      6  C   UNL     1      32.792 -14.310 -20.328  0.00  0.00    -0.000 C 
ATOM      7  C   UNL     1      32.285 -13.502 -21.345  0.00  0.00    -0.000 C 
ENDBRANCH   1   2
BRANCH   1   9
ATOM      8  O   UNL     1      35.891 -18.904 -20.598  0.00  0.00    -0.275 OA
ATOM      9  N   UNL     1      34.026 -18.163 -21.769  0.00  0.00    -0.293 N 
ATOM     10  C   UNL     1      34.722 -19.039 -20.948  0.00  0.00    +0.224 C 
ATOM     11  H   UNL     1      33.088 -18.371 -21.986  0.00  0.00    +0.150 HD
BRANCH  10  12
ATOM     12  C   UNL     1      33.859 -20.212 -20.523  0.00  0.00    +0.097 C 
BRANCH  12  13
ATOM     13  C   UNL     1      34.630 -21.232 -19.691  0.00  0.00    +0.119 C 
BRANCH  13  15
ATOM     14  O   UNL     1      34.060 -23.590 -19.492  0.00  0.00    -0.250 OA
ATOM     15  C   UNL     1      33.770 -22.416 -19.310  0.00  0.00    +0.314 C 
BRANCH  15  16
ATOM     16  O   UNL     1      32.611 -22.020 -18.724  0.00  0.00    -0.480 OA
ATOM     17  H   UNL     1      31.864 -22.586 -18.734  0.00  0.00    +0.295 HD
ENDBRANCH  15  16
ENDBRANCH  13  15
ENDBRANCH  12  13
ENDBRANCH  10  12
ENDBRANCH   1   9
BRANCH   1  19
ATOM     18  OXT UNL     1      34.354 -17.979 -24.507  0.00  0.00    -0.248 OA
ATOM     19  C   UNL     1      34.842 -17.094 -23.813  0.00  0.00    +0.336 C 
BRANCH  19  20
ATOM     20  O   UNL     1      35.692 -16.161 -24.304  0.00  0.00    -0.479 OA
ATOM     21  H   UNL     1      35.865 -16.122 -25.224  0.00  0.00    +0.295 HD
ENDBRANCH  19  20
ENDBRANCH   1  19
TORSDOF 8
ENDMDL
MODEL 6
REMARK VINA RESULT:      -7.6      9.158     11.804
REMARK  Name = 448582
REMARK  8 active torsions:
REMARK  status: ('A' for Active; 'I' for Inactive)
REMARK    1  A    between atoms: CA_1  and  C_2
REMARK    2  A    between atoms: CA_1  and  N_9
REMARK    3  A    between atoms: CA_1  and  C_19
REMARK    4  A    between atoms: C_10  and  C_12
REMARK    5  A    between atoms: C_12  and  C_13
REMARK    6  A    between atoms: C_13  and  C_15
REMARK    7  A    between atoms: C_15  and  O_16
REMARK    8  A    between atoms: C_19  and  O_20
REMARK                            x       y       z     vdW  Elec       q    Type
REMARK                         _______ _______ _______ _____ _____    ______ ____
ROOT
ATOM      1  CA  UNL     1      35.003 -17.588 -21.612  0.00  0.00    +0.194 C 
ENDROOT
BRANCH   1   2
ATOM      2  C   UNL     1      34.742 -18.937 -20.985  0.00  0.00    +0.006 C 
ATOM      3  C   UNL     1      35.814 -19.718 -20.585  0.00  0.00    -0.002 C 
ATOM      4  C   UNL     1      33.435 -19.368 -20.820  0.00  0.00    -0.002 C 
ATOM      5  C   UNL     1      35.574 -20.965 -20.006  0.00  0.00    -0.000 C 
ATOM      6  C   UNL     1      33.195 -20.613 -20.240  0.00  0.00    -0.000 C 
ATOM      7  C   UNL     1      34.265 -21.411 -19.833  0.00  0.00    -0.000 C 
ENDBRANCH   1   2
BRANCH   1   9
ATOM      8  O   UNL     1      35.280 -15.390 -23.472  0.00  0.00    -0.275 OA
ATOM      9  N   UNL     1      34.770 -17.614 -23.038  0.00  0.00    -0.293 N 
ATOM     10  C   UNL     1      34.930 -16.503 -23.853  0.00  0.00    +0.224 C 
ATOM     11  H   UNL     1      34.484 -18.461 -23.451  0.00  0.00    +0.150 HD
BRANCH  10  12
ATOM     12  C   UNL     1      34.615 -16.824 -25.302  0.00  0.00    +0.097 C 
BRANCH  12  13
ATOM     13  C   UNL     1      33.255 -16.287 -25.736  0.00  0.00    +0.119 C 
BRANCH  13  15
ATOM     14  O   UNL     1      33.662 -14.505 -27.343  0.00  0.00    -0.250 OA
ATOM     15  C   UNL     1      33.339 -14.857 -26.217  0.00  0.00    +0.314 C 
BRANCH  15  16
ATOM     16  O   UNL     1      33.005 -13.982 -25.234  0.00  0.00    -0.480 OA
ATOM     17  H   UNL     1      33.632 -13.355 -24.932  0.00  0.00    +0.295 HD
ENDBRANCH  15  16
ENDBRANCH  13  15
ENDBRANCH  12  13
ENDBRANCH  10  12
ENDBRANCH   1   9
BRANCH   1  19
ATOM     18  OXT UNL     1      32.991 -16.353 -21.044  0.00  0.00    -0.248 OA
ATOM     19  C   UNL     1      34.207 -16.482 -20.942  0.00  0.00    +0.336 C 
BRANCH  19  20
ATOM     20  O   UNL     1      34.983 -15.609 -20.256  0.00  0.00    -0.479 OA
ATOM     21  H   UNL     1      35.900 -15.555 -20.438  0.00  0.00    +0.295 HD
ENDBRANCH  19  20
ENDBRANCH   1  19
TORSDOF 8
ENDMDL
MODEL 7
REMARK VINA RESULT:      -7.5      2.203      2.722
REMARK  Name = 448582
REMARK  8 active torsions:
REMARK  status: ('A' for Active; 'I' for Inactive)
REMARK    1  A    between atoms: CA_1  and  C_2
REMARK    2  A    between atoms: CA_1  and  N_9
REMARK    3  A    between atoms: CA_1  and  C_19
REMARK    4  A    between atoms: C_10  and  C_12
REMARK    5  A    between atoms: C_12  and  C_13
REMARK    6  A    between atoms: C_13  and  C_15
REMARK    7  A    between atoms: C_15  and  O_16
REMARK    8  A    between atoms: C_19  and  O_20
REMARK                            x       y       z     vdW  Elec       q    Type
REMARK                         _______ _______ _______ _____ _____    ______ ____
ROOT
ATOM      1  CA  UNL     1      34.210 -23.827 -16.079  0.00  0.00    +0.194 C 
ENDROOT
BRANCH   1   2
ATOM      2  C   UNL     1      34.673 -22.955 -17.222  0.00  0.00    +0.006 C 
ATOM      3  C   UNL     1      35.940 -22.396 -17.179  0.00  0.00    -0.002 C 
ATOM      4  C   UNL     1      33.822 -22.731 -18.293  0.00  0.00    -0.002 C 
ATOM      5  C   UNL     1      36.368 -21.590 -18.234  0.00  0.00    -0.000 C 
ATOM      6  C   UNL     1      34.251 -21.926 -19.348  0.00  0.00    -0.000 C 
ATOM      7  C   UNL     1      35.523 -21.356 -19.319  0.00  0.00    -0.000 C 
ENDBRANCH   1   2
BRANCH   1   9
ATOM      8  O   UNL     1      35.836 -26.170 -15.594  0.00  0.00    -0.275 OA
ATOM      9  N   UNL     1      35.242 -23.983 -15.081  0.00  0.00    -0.293 N 
ATOM     10  C   UNL     1      35.973 -25.151 -14.922  0.00  0.00    +0.224 C 
ATOM     11  H   UNL     1      35.436 -23.224 -14.484  0.00  0.00    +0.150 HD
BRANCH  10  12
ATOM     12  C   UNL     1      36.985 -25.028 -13.798  0.00  0.00    +0.097 C 
BRANCH  12  13
ATOM     13  C   UNL     1      37.022 -23.627 -13.197  0.00  0.00    +0.119 C 
BRANCH  13  15
ATOM     14  O   UNL     1      36.927 -24.133 -10.818  0.00  0.00    -0.250 OA
ATOM     15  C   UNL     1      37.516 -23.637 -11.769  0.00  0.00    +0.314 C 
BRANCH  15  16
ATOM     16  O   UNL     1      38.719 -23.018 -11.655  0.00  0.00    -0.480 OA
ATOM     17  H   UNL     1      39.476 -23.510 -11.401  0.00  0.00    +0.295 HD
ENDBRANCH  15  16
ENDBRANCH  13  15
ENDBRANCH  12  13
ENDBRANCH  10  12
ENDBRANCH   1   9
BRANCH   1  19
ATOM     18  OXT UNL     1      31.814 -23.447 -15.987  0.00  0.00    -0.248 OA
ATOM     19  C   UNL     1      32.916 -23.324 -15.463  0.00  0.00    +0.336 C 
BRANCH  19  20
ATOM     20  O   UNL     1      33.104 -22.670 -14.291  0.00  0.00    -0.479 OA
ATOM     21  H   UNL     1      33.322 -23.151 -13.517  0.00  0.00    +0.295 HD
ENDBRANCH  19  20
ENDBRANCH   1  19
TORSDOF 8
ENDMDL
MODEL 8
REMARK VINA RESULT:      -7.4      2.773      4.194
REMARK  Name = 448582
REMARK  8 active torsions:
REMARK  status: ('A' for Active; 'I' for Inactive)
REMARK    1  A    between atoms: CA_1  and  C_2
REMARK    2  A    between atoms: CA_1  and  N_9
REMARK    3  A    between atoms: CA_1  and  C_19
REMARK    4  A    between atoms: C_10  and  C_12
REMARK    5  A    between atoms: C_12  and  C_13
REMARK    6  A    between atoms: C_13  and  C_15
REMARK    7  A    between atoms: C_15  and  O_16
REMARK    8  A    between atoms: C_19  and  O_20
REMARK                            x       y       z     vdW  Elec       q    Type
REMARK                         _______ _______ _______ _____ _____    ______ ____
ROOT
ATOM      1  CA  UNL     1      33.788 -23.026 -16.359  0.00  0.00    +0.194 C 
ENDROOT
BRANCH   1   2
ATOM      2  C   UNL     1      32.456 -23.444 -15.784  0.00  0.00    +0.006 C 
ATOM      3  C   UNL     1      31.288 -23.002 -16.384  0.00  0.00    -0.002 C 
ATOM      4  C   UNL     1      32.427 -24.262 -14.665  0.00  0.00    -0.002 C 
ATOM      5  C   UNL     1      30.057 -23.387 -15.852  0.00  0.00    -0.000 C 
ATOM      6  C   UNL     1      31.197 -24.648 -14.134  0.00  0.00    -0.000 C 
ATOM      7  C   UNL     1      30.012 -24.210 -14.727  0.00  0.00    -0.000 C 
ENDBRANCH   1   2
BRANCH   1   9
ATOM      8  O   UNL     1      36.554 -22.194 -16.186  0.00  0.00    -0.275 OA
ATOM      9  N   UNL     1      34.879 -23.743 -15.743  0.00  0.00    -0.293 N 
ATOM     10  C   UNL     1      36.180 -23.262 -15.708  0.00  0.00    +0.224 C 
ATOM     11  H   UNL     1      34.692 -24.616 -15.326  0.00  0.00    +0.150 HD
BRANCH  10  12
ATOM     12  C   UNL     1      37.114 -24.226 -14.998  0.00  0.00    +0.097 C 
BRANCH  12  13
ATOM     13  C   UNL     1      36.445 -25.560 -14.683  0.00  0.00    +0.119 C 
BRANCH  13  15
ATOM     14  O   UNL     1      38.276 -27.164 -14.649  0.00  0.00    -0.250 OA
ATOM     15  C   UNL     1      37.261 -26.732 -15.178  0.00  0.00    +0.314 C 
BRANCH  15  16
ATOM     16  O   UNL     1      36.727 -27.268 -16.305  0.00  0.00    -0.480 OA
ATOM     17  H   UNL     1      37.056 -27.016 -17.146  0.00  0.00    +0.295 HD
ENDBRANCH  15  16
ENDBRANCH  13  15
ENDBRANCH  12  13
ENDBRANCH  10  12
ENDBRANCH   1   9
BRANCH   1  19
ATOM     18  OXT UNL     1      33.540 -24.185 -18.478  0.00  0.00    -0.248 OA
ATOM     19  C   UNL     1      33.825 -23.158 -17.872  0.00  0.00    +0.336 C 
BRANCH  19  20
ATOM     20  O   UNL     1      34.258 -22.034 -18.494  0.00  0.00    -0.479 OA
ATOM     21  H   UNL     1      35.026 -22.062 -19.029  0.00  0.00    +0.295 HD
ENDBRANCH  19  20
ENDBRANCH   1  19
TORSDOF 8
ENDMDL
MODEL 9
REMARK VINA RESULT:      -7.3     14.563     16.914
REMARK  Name = 448582
REMARK  8 active torsions:
REMARK  status: ('A' for Active; 'I' for Inactive)
REMARK    1  A    between atoms: CA_1  and  C_2
REMARK    2  A    between atoms: CA_1  and  N_9
REMARK    3  A    between atoms: CA_1  and  C_19
REMARK    4  A    between atoms: C_10  and  C_12
REMARK    5  A    between atoms: C_12  and  C_13
REMARK    6  A    between atoms: C_13  and  C_15
REMARK    7  A    between atoms: C_15  and  O_16
REMARK    8  A    between atoms: C_19  and  O_20
REMARK                            x       y       z     vdW  Elec       q    Type
REMARK                         _______ _______ _______ _____ _____    ______ ____
ROOT
ATOM      1  CA  UNL     1      32.040  -8.948 -21.507  0.00  0.00    +0.194 C 
ENDROOT
BRANCH   1   2
ATOM      2  C   UNL     1      32.684  -8.109 -22.585  0.00  0.00    +0.006 C 
ATOM      3  C   UNL     1      34.035  -8.263 -22.850  0.00  0.00    -0.002 C 
ATOM      4  C   UNL     1      31.910  -7.201 -23.291  0.00  0.00    -0.002 C 
ATOM      5  C   UNL     1      34.630  -7.488 -23.846  0.00  0.00    -0.000 C 
ATOM      6  C   UNL     1      32.505  -6.427 -24.287  0.00  0.00    -0.000 C 
ATOM      7  C   UNL     1      33.864  -6.571 -24.564  0.00  0.00    -0.000 C 
ENDBRANCH   1   2
BRANCH   1   9
ATOM      8  O   UNL     1      30.346 -11.207 -20.876  0.00  0.00    -0.275 OA
ATOM      9  N   UNL     1      32.355 -10.348 -21.667  0.00  0.00    -0.293 N 
ATOM     10  C   UNL     1      31.474 -11.367 -21.335  0.00  0.00    +0.224 C 
ATOM     11  H   UNL     1      33.238 -10.592 -22.029  0.00  0.00    +0.150 HD
BRANCH  10  12
ATOM     12  C   UNL     1      32.073 -12.734 -21.607  0.00  0.00    +0.097 C 
BRANCH  12  13
ATOM     13  C   UNL     1      32.244 -13.010 -23.098  0.00  0.00    +0.119 C 
BRANCH  13  15
ATOM     14  O   UNL     1      34.360 -14.145 -23.498  0.00  0.00    -0.250 OA
ATOM     15  C   UNL     1      33.700 -13.115 -23.489  0.00  0.00    +0.314 C 
BRANCH  15  16
ATOM     16  O   UNL     1      34.208 -11.906 -23.843  0.00  0.00    -0.480 OA
ATOM     17  H   UNL     1      35.136 -11.783 -23.888  0.00  0.00    +0.295 HD
ENDBRANCH  15  16
ENDBRANCH  13  15
ENDBRANCH  12  13
ENDBRANCH  10  12
ENDBRANCH   1   9
BRANCH   1  19
ATOM     18  OXT UNL     1      32.552  -7.277 -19.822  0.00  0.00    -0.248 OA
ATOM     19  C   UNL     1      32.393  -8.457 -20.113  0.00  0.00    +0.336 C 
BRANCH  19  20
ATOM     20  O   UNL     1      32.568  -9.464 -19.224  0.00  0.00    -0.479 OA
ATOM     21  H   UNL     1      33.337  -9.997 -19.266  0.00  0.00    +0.295 HD
ENDBRANCH  19  20
ENDBRANCH   1  19
TORSDOF 8
ENDMDL
