MODEL 1
REMARK VINA RESULT:      -9.1      0.000      0.000
REMARK  Name = 5280453
REMARK  9 active torsions:
REMARK  status: ('A' for Active; 'I' for Inactive)
REMARK    1  A    between atoms: C_2  and  C_24
REMARK    2  A    between atoms: C_11  and  C_12
REMARK    3  A    between atoms: C_16  and  O_20
REMARK    4  A    between atoms: C_17  and  O_22
REMARK    5  A    between atoms: C_24  and  C_26
REMARK    6  A    between atoms: C_26  and  C_27
REMARK    7  A    between atoms: C_27  and  C_28
REMARK    8  A    between atoms: C_28  and  C_29
REMARK    9  A    between atoms: C_29  and  O_32
REMARK                            x       y       z     vdW  Elec       q    Type
REMARK                         _______ _______ _______ _____ _____    ______ ____
ROOT
ATOM      1  C   UNL     1      33.861 -15.838 -22.773  0.00  0.00    +0.003 C 
ATOM      2  C   UNL     1      33.550 -17.205 -22.116  0.00  0.00    +0.000 C 
ATOM      3  C   UNL     1      32.608 -15.048 -22.320  0.00  0.00    +0.018 C 
ATOM      4  C   UNL     1      32.987 -16.831 -20.725  0.00  0.00    +0.000 C 
ATOM      5  C   UNL     1      32.508 -15.372 -20.829  0.00  0.00    +0.004 C 
ATOM      6  C   UNL     1      33.889 -15.867 -24.315  0.00  0.00    +0.001 C 
ATOM      7  C   UNL     1      32.634 -13.636 -22.841  0.00  0.00    -0.045 C 
ATOM      8  C   UNL     1      35.188 -15.241 -22.239  0.00  0.00    +0.000 C 
ATOM      9  C   UNL     1      33.864 -14.449 -24.911  0.00  0.00    +0.004 C 
ATOM     10  C   UNL     1      32.731 -13.573 -24.351  0.00  0.00    +0.022 C 
ATOM     11  C   UNL     1      32.573 -12.533 -22.081  0.00  0.00    -0.009 C 
ENDROOT
BRANCH  11  12
ATOM     12  C   UNL     1      32.593 -11.197 -22.624  0.00  0.00    -0.005 C 
ATOM     13  C   UNL     1      32.031 -10.145 -22.010  0.00  0.00    -0.021 C 
ATOM     14  C   UNL     1      32.108  -8.754 -22.587  0.00  0.00    +0.055 C 
ATOM     15  C   UNL     1      31.339 -10.248 -20.727  0.00  0.00    +0.000 C 
ATOM     16  C   UNL     1      32.586  -7.727 -21.556  0.00  0.00    +0.118 C 
ATOM     17  C   UNL     1      31.720  -9.214 -19.695  0.00  0.00    +0.135 C 
ATOM     18  C   UNL     1      31.738  -7.799 -20.282  0.00  0.00    +0.063 C 
ATOM     19  C   UNL     1      30.385 -11.164 -20.490  0.00  0.00    -0.003 C 
BRANCH  16  20
ATOM     20  O   UNL     1      32.476  -6.427 -22.127  0.00  0.00    -0.384 OA
ATOM     21  H   UNL     1      31.560  -6.115 -22.050  0.00  0.00    +0.210 HD
ENDBRANCH  16  20
BRANCH  17  22
ATOM     22  O   UNL     1      33.015  -9.540 -19.191  0.00  0.00    -0.380 OA
ATOM     23  H   UNL     1      33.344 -10.338 -19.635  0.00  0.00    +0.211 HD
ENDBRANCH  17  22
ENDBRANCH  11  12
BRANCH   2  24
ATOM     24  C   UNL     1      34.701 -18.199 -22.041  0.00  0.00    +0.000 C 
ATOM     25  C   UNL     1      34.719 -19.103 -23.276  0.00  0.00    +0.000 C 
BRANCH  24  26
ATOM     26  C   UNL     1      34.701 -19.019 -20.733  0.00  0.00    +0.000 C 
BRANCH  26  27
ATOM     27  C   UNL     1      34.485 -20.527 -20.906  0.00  0.00    +0.002 C 
BRANCH  27  28
ATOM     28  C   UNL     1      33.508 -21.062 -19.854  0.00  0.00    +0.027 C 
BRANCH  28  29
ATOM     29  C   UNL     1      34.019 -22.253 -19.016  0.00  0.00    +0.088 C 
ATOM     30  C   UNL     1      35.417 -22.002 -18.448  0.00  0.00    +0.029 C 
ATOM     31  C   UNL     1      33.052 -22.638 -17.895  0.00  0.00    +0.029 C 
BRANCH  29  32
ATOM     32  O   UNL     1      34.132 -23.377 -19.898  0.00  0.00    -0.387 OA
ATOM     33  H   UNL     1      35.064 -23.635 -19.975  0.00  0.00    +0.210 HD
ENDBRANCH  29  32
ENDBRANCH  28  29
ENDBRANCH  27  28
ENDBRANCH  26  27
ENDBRANCH  24  26
ENDBRANCH   2  24
TORSDOF 9
ENDMDL
MODEL 2
REMARK VINA RESULT:      -8.4      2.791      5.321
REMARK  Name = 5280453
REMARK  9 active torsions:
REMARK  status: ('A' for Active; 'I' for Inactive)
REMARK    1  A    between atoms: C_2  and  C_24
REMARK    2  A    between atoms: C_11  and  C_12
REMARK    3  A    between atoms: C_16  and  O_20
REMARK    4  A    between atoms: C_17  and  O_22
REMARK    5  A    between atoms: C_24  and  C_26
REMARK    6  A    between atoms: C_26  and  C_27
REMARK    7  A    between atoms: C_27  and  C_28
REMARK    8  A    between atoms: C_28  and  C_29
REMARK    9  A    between atoms: C_29  and  O_32
REMARK                            x       y       z     vdW  Elec       q    Type
REMARK                         _______ _______ _______ _____ _____    ______ ____
ROOT
ATOM      1  C   UNL     1      32.308 -12.030 -22.251  0.00  0.00    +0.003 C 
ATOM      2  C   UNL     1      33.309 -13.171 -22.556  0.00  0.00    +0.000 C 
ATOM      3  C   UNL     1      33.077 -10.841 -22.878  0.00  0.00    +0.018 C 
ATOM      4  C   UNL     1      33.790 -12.870 -23.994  0.00  0.00    +0.000 C 
ATOM      5  C   UNL     1      33.499 -11.380 -24.246  0.00  0.00    +0.004 C 
ATOM      6  C   UNL     1      32.109 -11.745 -20.748  0.00  0.00    +0.001 C 
ATOM      7  C   UNL     1      32.319  -9.552 -22.716  0.00  0.00    -0.045 C 
ATOM      8  C   UNL     1      30.932 -12.289 -22.917  0.00  0.00    +0.000 C 
ATOM      9  C   UNL     1      31.383 -10.408 -20.514  0.00  0.00    +0.004 C 
ATOM     10  C   UNL     1      32.021  -9.228 -21.266  0.00  0.00    +0.022 C 
ATOM     11  C   UNL     1      31.939  -8.750 -23.721  0.00  0.00    -0.009 C 
ENDROOT
BRANCH  11  12
ATOM     12  C   UNL     1      31.220  -7.516 -23.518  0.00  0.00    -0.005 C 
ATOM     13  C   UNL     1      31.724  -6.311 -23.826  0.00  0.00    -0.021 C 
ATOM     14  C   UNL     1      30.926  -5.045 -23.641  0.00  0.00    +0.055 C 
ATOM     15  C   UNL     1      33.056  -6.128 -24.398  0.00  0.00    +0.000 C 
ATOM     16  C   UNL     1      30.931  -4.169 -24.897  0.00  0.00    +0.118 C 
ATOM     17  C   UNL     1      33.132  -5.215 -25.599  0.00  0.00    +0.135 C 
ATOM     18  C   UNL     1      32.364  -3.908 -25.374  0.00  0.00    +0.063 C 
ATOM     19  C   UNL     1      34.156  -6.686 -23.866  0.00  0.00    -0.003 C 
BRANCH  16  20
ATOM     20  O   UNL     1      30.300  -2.931 -24.589  0.00  0.00    -0.384 OA
ATOM     21  H   UNL     1      30.471  -2.702 -23.661  0.00  0.00    +0.210 HD
ENDBRANCH  16  20
BRANCH  17  22
ATOM     22  O   UNL     1      32.582  -5.906 -26.722  0.00  0.00    -0.380 OA
ATOM     23  H   UNL     1      33.141  -5.754 -27.500  0.00  0.00    +0.211 HD
ENDBRANCH  17  22
ENDBRANCH  11  12
BRANCH   2  24
ATOM     24  C   UNL     1      32.788 -14.592 -22.390  0.00  0.00    +0.000 C 
ATOM     25  C   UNL     1      32.760 -14.991 -20.913  0.00  0.00    +0.000 C 
BRANCH  24  26
ATOM     26  C   UNL     1      33.565 -15.618 -23.243  0.00  0.00    +0.000 C 
BRANCH  26  27
ATOM     27  C   UNL     1      34.991 -15.920 -22.766  0.00  0.00    +0.002 C 
BRANCH  27  28
ATOM     28  C   UNL     1      35.259 -17.429 -22.770  0.00  0.00    +0.027 C 
BRANCH  28  29
ATOM     29  C   UNL     1      35.294 -18.101 -21.381  0.00  0.00    +0.088 C 
ATOM     30  C   UNL     1      34.021 -18.897 -21.091  0.00  0.00    +0.029 C 
ATOM     31  C   UNL     1      36.528 -18.986 -21.190  0.00  0.00    +0.029 C 
BRANCH  29  32
ATOM     32  O   UNL     1      35.353 -17.055 -20.403  0.00  0.00    -0.387 OA
ATOM     33  H   UNL     1      36.054 -16.428 -20.641  0.00  0.00    +0.210 HD
ENDBRANCH  29  32
ENDBRANCH  28  29
ENDBRANCH  27  28
ENDBRANCH  26  27
ENDBRANCH  24  26
ENDBRANCH   2  24
TORSDOF 9
ENDMDL
MODEL 3
REMARK VINA RESULT:      -8.0      3.889     11.675
REMARK  Name = 5280453
REMARK  9 active torsions:
REMARK  status: ('A' for Active; 'I' for Inactive)
REMARK    1  A    between atoms: C_2  and  C_24
REMARK    2  A    between atoms: C_11  and  C_12
REMARK    3  A    between atoms: C_16  and  O_20
REMARK    4  A    between atoms: C_17  and  O_22
REMARK    5  A    between atoms: C_24  and  C_26
REMARK    6  A    between atoms: C_26  and  C_27
REMARK    7  A    between atoms: C_27  and  C_28
REMARK    8  A    between atoms: C_28  and  C_29
REMARK    9  A    between atoms: C_29  and  O_32
REMARK                            x       y       z     vdW  Elec       q    Type
REMARK                         _______ _______ _______ _____ _____    ______ ____
ROOT
ATOM      1  C   UNL     1      32.081  -7.884 -22.021  0.00  0.00    +0.003 C 
ATOM      2  C   UNL     1      31.390  -6.852 -22.946  0.00  0.00    +0.000 C 
ATOM      3  C   UNL     1      31.080  -9.058 -22.157  0.00  0.00    +0.018 C 
ATOM      4  C   UNL     1      30.912  -7.693 -24.152  0.00  0.00    +0.000 C 
ATOM      5  C   UNL     1      30.854  -9.153 -23.667  0.00  0.00    +0.004 C 
ATOM      6  C   UNL     1      32.144  -7.465 -20.538  0.00  0.00    +0.001 C 
ATOM      7  C   UNL     1      31.506 -10.239 -21.328  0.00  0.00    -0.045 C 
ATOM      8  C   UNL     1      33.505  -8.232 -22.524  0.00  0.00    +0.000 C 
ATOM      9  C   UNL     1      32.525  -8.646 -19.629  0.00  0.00    +0.004 C 
ATOM     10  C   UNL     1      31.659  -9.896 -19.860  0.00  0.00    +0.022 C 
ATOM     11  C   UNL     1      31.727 -11.473 -21.801  0.00  0.00    -0.009 C 
ENDROOT
BRANCH  11  12
ATOM     12  C   UNL     1      32.127 -12.580 -20.967  0.00  0.00    -0.005 C 
ATOM     13  C   UNL     1      32.643 -13.719 -21.453  0.00  0.00    -0.021 C 
ATOM     14  C   UNL     1      33.091 -14.838 -20.548  0.00  0.00    +0.055 C 
ATOM     15  C   UNL     1      32.852 -13.953 -22.880  0.00  0.00    +0.000 C 
ATOM     16  C   UNL     1      34.504 -15.323 -20.882  0.00  0.00    +0.118 C 
ATOM     17  C   UNL     1      34.207 -14.500 -23.262  0.00  0.00    +0.135 C 
ATOM     18  C   UNL     1      34.622 -15.674 -22.369  0.00  0.00    +0.063 C 
ATOM     19  C   UNL     1      31.889 -13.751 -23.795  0.00  0.00    -0.003 C 
BRANCH  16  20
ATOM     20  O   UNL     1      34.785 -16.478 -20.098  0.00  0.00    -0.384 OA
ATOM     21  H   UNL     1      35.488 -16.272 -19.460  0.00  0.00    +0.210 HD
ENDBRANCH  16  20
BRANCH  17  22
ATOM     22  O   UNL     1      35.164 -13.447 -23.143  0.00  0.00    -0.380 OA
ATOM     23  H   UNL     1      35.467 -13.183 -24.027  0.00  0.00    +0.211 HD
ENDBRANCH  17  22
ENDBRANCH  11  12
BRANCH   2  24
ATOM     24  C   UNL     1      32.223  -5.646 -23.358  0.00  0.00    +0.000 C 
ATOM     25  C   UNL     1      31.423  -4.352 -23.194  0.00  0.00    +0.000 C 
BRANCH  24  26
ATOM     26  C   UNL     1      32.807  -5.779 -24.781  0.00  0.00    +0.000 C 
BRANCH  26  27
ATOM     27  C   UNL     1      32.422  -4.658 -25.754  0.00  0.00    +0.002 C 
BRANCH  27  28
ATOM     28  C   UNL     1      33.417  -4.579 -26.917  0.00  0.00    +0.027 C 
BRANCH  28  29
ATOM     29  C   UNL     1      32.980  -3.700 -28.107  0.00  0.00    +0.088 C 
ATOM     30  C   UNL     1      32.662  -4.528 -29.353  0.00  0.00    +0.029 C 
ATOM     31  C   UNL     1      31.801  -2.789 -27.760  0.00  0.00    +0.029 C 
BRANCH  29  32
ATOM     32  O   UNL     1      34.092  -2.860 -28.448  0.00  0.00    -0.387 OA
ATOM     33  H   UNL     1      33.767  -2.048 -28.866  0.00  0.00    +0.210 HD
ENDBRANCH  29  32
ENDBRANCH  28  29
ENDBRANCH  27  28
ENDBRANCH  26  27
ENDBRANCH  24  26
ENDBRANCH   2  24
TORSDOF 9
ENDMDL
MODEL 4
REMARK VINA RESULT:      -7.3      3.623     11.399
REMARK  Name = 5280453
REMARK  9 active torsions:
REMARK  status: ('A' for Active; 'I' for Inactive)
REMARK    1  A    between atoms: C_2  and  C_24
REMARK    2  A    between atoms: C_11  and  C_12
REMARK    3  A    between atoms: C_16  and  O_20
REMARK    4  A    between atoms: C_17  and  O_22
REMARK    5  A    between atoms: C_24  and  C_26
REMARK    6  A    between atoms: C_26  and  C_27
REMARK    7  A    between atoms: C_27  and  C_28
REMARK    8  A    between atoms: C_28  and  C_29
REMARK    9  A    between atoms: C_29  and  O_32
REMARK                            x       y       z     vdW  Elec       q    Type
REMARK                         _______ _______ _______ _____ _____    ______ ____
ROOT
ATOM      1  C   UNL     1      32.339  -9.618 -22.746  0.00  0.00    +0.003 C 
ATOM      2  C   UNL     1      32.582  -8.520 -23.810  0.00  0.00    +0.000 C 
ATOM      3  C   UNL     1      32.893 -10.843 -23.513  0.00  0.00    +0.018 C 
ATOM      4  C   UNL     1      33.978  -8.860 -24.384  0.00  0.00    +0.000 C 
ATOM      5  C   UNL     1      34.233 -10.342 -24.055  0.00  0.00    +0.004 C 
ATOM      6  C   UNL     1      30.852  -9.873 -22.426  0.00  0.00    +0.001 C 
ATOM      7  C   UNL     1      32.772 -12.102 -22.696  0.00  0.00    -0.045 C 
ATOM      8  C   UNL     1      33.108  -9.317 -21.434  0.00  0.00    +0.000 C 
ATOM      9  C   UNL     1      30.656 -11.178 -21.634  0.00  0.00    +0.004 C 
ATOM     10  C   UNL     1      31.345 -12.392 -22.280  0.00  0.00    +0.022 C 
ATOM     11  C   UNL     1      33.792 -12.904 -22.361  0.00  0.00    -0.009 C 
ENDROOT
BRANCH  11  12
ATOM     12  C   UNL     1      33.629 -14.106 -21.582  0.00  0.00    -0.005 C 
ATOM     13  C   UNL     1      33.620 -15.336 -22.119  0.00  0.00    -0.021 C 
ATOM     14  C   UNL     1      33.490 -16.574 -21.269  0.00  0.00    +0.055 C 
ATOM     15  C   UNL     1      33.775 -15.580 -23.552  0.00  0.00    +0.000 C 
ATOM     16  C   UNL     1      34.565 -17.615 -21.594  0.00  0.00    +0.118 C 
ATOM     17  C   UNL     1      34.773 -16.649 -23.929  0.00  0.00    +0.135 C 
ATOM     18  C   UNL     1      34.591 -17.921 -23.095  0.00  0.00    +0.063 C 
ATOM     19  C   UNL     1      33.042 -14.940 -24.478  0.00  0.00    -0.003 C 
BRANCH  16  20
ATOM     20  O   UNL     1      34.276 -18.806 -20.870  0.00  0.00    -0.384 OA
ATOM     21  H   UNL     1      34.527 -19.578 -21.404  0.00  0.00    +0.210 HD
ENDBRANCH  16  20
BRANCH  17  22
ATOM     22  O   UNL     1      36.086 -16.126 -23.725  0.00  0.00    -0.380 OA
ATOM     23  H   UNL     1      36.334 -16.229 -22.792  0.00  0.00    +0.211 HD
ENDBRANCH  17  22
ENDBRANCH  11  12
BRANCH   2  24
ATOM     24  C   UNL     1      32.474  -7.078 -23.333  0.00  0.00    +0.000 C 
ATOM     25  C   UNL     1      31.009  -6.638 -23.267  0.00  0.00    +0.000 C 
BRANCH  24  26
ATOM     26  C   UNL     1      33.325  -6.103 -24.174  0.00  0.00    +0.000 C 
BRANCH  26  27
ATOM     27  C   UNL     1      32.570  -5.372 -25.292  0.00  0.00    +0.002 C 
BRANCH  27  28
ATOM     28  C   UNL     1      33.471  -5.170 -26.516  0.00  0.00    +0.027 C 
BRANCH  28  29
ATOM     29  C   UNL     1      33.129  -3.950 -27.398  0.00  0.00    +0.088 C 
ATOM     30  C   UNL     1      32.871  -4.343 -28.853  0.00  0.00    +0.029 C 
ATOM     31  C   UNL     1      31.951  -3.142 -26.849  0.00  0.00    +0.029 C 
BRANCH  29  32
ATOM     32  O   UNL     1      34.278  -3.093 -27.404  0.00  0.00    -0.387 OA
ATOM     33  H   UNL     1      34.422  -2.751 -28.299  0.00  0.00    +0.210 HD
ENDBRANCH  29  32
ENDBRANCH  28  29
ENDBRANCH  27  28
ENDBRANCH  26  27
ENDBRANCH  24  26
ENDBRANCH   2  24
TORSDOF 9
ENDMDL
MODEL 5
REMARK VINA RESULT:      -6.6      3.836     11.489
REMARK  Name = 5280453
REMARK  9 active torsions:
REMARK  status: ('A' for Active; 'I' for Inactive)
REMARK    1  A    between atoms: C_2  and  C_24
REMARK    2  A    between atoms: C_11  and  C_12
REMARK    3  A    between atoms: C_16  and  O_20
REMARK    4  A    between atoms: C_17  and  O_22
REMARK    5  A    between atoms: C_24  and  C_26
REMARK    6  A    between atoms: C_26  and  C_27
REMARK    7  A    between atoms: C_27  and  C_28
REMARK    8  A    between atoms: C_28  and  C_29
REMARK    9  A    between atoms: C_29  and  O_32
REMARK                            x       y       z     vdW  Elec       q    Type
REMARK                         _______ _______ _______ _____ _____    ______ ____
ROOT
ATOM      1  C   UNL     1      32.855  -7.779 -23.159  0.00  0.00    +0.003 C 
ATOM      2  C   UNL     1      32.517  -6.864 -21.957  0.00  0.00    +0.000 C 
ATOM      3  C   UNL     1      33.217  -9.078 -22.396  0.00  0.00    +0.018 C 
ATOM      4  C   UNL     1      31.718  -7.782 -21.002  0.00  0.00    +0.000 C 
ATOM      5  C   UNL     1      32.071  -9.228 -21.395  0.00  0.00    +0.004 C 
ATOM      6  C   UNL     1      34.087  -7.330 -23.971  0.00  0.00    +0.001 C 
ATOM      7  C   UNL     1      33.612 -10.178 -23.344  0.00  0.00    -0.045 C 
ATOM      8  C   UNL     1      31.639  -7.945 -24.106  0.00  0.00    +0.000 C 
ATOM      9  C   UNL     1      34.573  -8.435 -24.926  0.00  0.00    +0.004 C 
ATOM     10  C   UNL     1      34.777  -9.792 -24.232  0.00  0.00    +0.022 C 
ATOM     11  C   UNL     1      33.024 -11.380 -23.417  0.00  0.00    -0.009 C 
ENDROOT
BRANCH  11  12
ATOM     12  C   UNL     1      33.441 -12.409 -24.338  0.00  0.00    -0.005 C 
ATOM     13  C   UNL     1      33.930 -13.595 -23.943  0.00  0.00    -0.021 C 
ATOM     14  C   UNL     1      34.316 -14.664 -24.933  0.00  0.00    +0.055 C 
ATOM     15  C   UNL     1      34.090 -13.962 -22.538  0.00  0.00    +0.000 C 
ATOM     16  C   UNL     1      33.699 -16.022 -24.587  0.00  0.00    +0.118 C 
ATOM     17  C   UNL     1      33.562 -15.324 -22.154  0.00  0.00    +0.135 C 
ATOM     18  C   UNL     1      34.011 -16.410 -23.138  0.00  0.00    +0.063 C 
ATOM     19  C   UNL     1      34.714 -13.171 -21.649  0.00  0.00    -0.003 C 
BRANCH  16  20
ATOM     20  O   UNL     1      34.238 -17.003 -25.468  0.00  0.00    -0.384 OA
ATOM     21  H   UNL     1      33.988 -16.790 -26.382  0.00  0.00    +0.210 HD
ENDBRANCH  16  20
BRANCH  17  22
ATOM     22  O   UNL     1      32.136 -15.260 -22.129  0.00  0.00    -0.380 OA
ATOM     23  H   UNL     1      31.849 -14.712 -21.381  0.00  0.00    +0.211 HD
ENDBRANCH  17  22
ENDBRANCH  11  12
BRANCH   2  24
ATOM     24  C   UNL     1      31.788  -5.566 -22.277  0.00  0.00    +0.000 C 
ATOM     25  C   UNL     1      30.519  -5.434 -21.432  0.00  0.00    +0.000 C 
BRANCH  24  26
ATOM     26  C   UNL     1      31.491  -5.401 -23.783  0.00  0.00    +0.000 C 
BRANCH  26  27
ATOM     27  C   UNL     1      31.931  -4.064 -24.393  0.00  0.00    +0.002 C 
BRANCH  27  28
ATOM     28  C   UNL     1      31.534  -3.984 -25.871  0.00  0.00    +0.027 C 
BRANCH  28  29
ATOM     29  C   UNL     1      32.702  -3.812 -26.865  0.00  0.00    +0.088 C 
ATOM     30  C   UNL     1      33.754  -4.912 -26.717  0.00  0.00    +0.029 C 
ATOM     31  C   UNL     1      32.228  -3.724 -28.317  0.00  0.00    +0.029 C 
BRANCH  29  32
ATOM     32  O   UNL     1      33.355  -2.576 -26.546  0.00  0.00    -0.387 OA
ATOM     33  H   UNL     1      33.030  -1.877 -27.134  0.00  0.00    +0.210 HD
ENDBRANCH  29  32
ENDBRANCH  28  29
ENDBRANCH  27  28
ENDBRANCH  26  27
ENDBRANCH  24  26
ENDBRANCH   2  24
TORSDOF 9
ENDMDL
MODEL 6
REMARK VINA RESULT:      -6.5      4.797      7.722
REMARK  Name = 5280453
REMARK  9 active torsions:
REMARK  status: ('A' for Active; 'I' for Inactive)
REMARK    1  A    between atoms: C_2  and  C_24
REMARK    2  A    between atoms: C_11  and  C_12
REMARK    3  A    between atoms: C_16  and  O_20
REMARK    4  A    between atoms: C_17  and  O_22
REMARK    5  A    between atoms: C_24  and  C_26
REMARK    6  A    between atoms: C_26  and  C_27
REMARK    7  A    between atoms: C_27  and  C_28
REMARK    8  A    between atoms: C_28  and  C_29
REMARK    9  A    between atoms: C_29  and  O_32
REMARK                            x       y       z     vdW  Elec       q    Type
REMARK                         _______ _______ _______ _____ _____    ______ ____
ROOT
ATOM      1  C   UNL     1      34.635 -21.665 -19.157  0.00  0.00    +0.003 C 
ATOM      2  C   UNL     1      35.417 -21.792 -17.827  0.00  0.00    +0.000 C 
ATOM      3  C   UNL     1      35.223 -20.328 -19.672  0.00  0.00    +0.018 C 
ATOM      4  C   UNL     1      36.851 -21.344 -18.193  0.00  0.00    +0.000 C 
ATOM      5  C   UNL     1      36.730 -20.510 -19.481  0.00  0.00    +0.004 C 
ATOM      6  C   UNL     1      33.112 -21.495 -18.985  0.00  0.00    +0.001 C 
ATOM      7  C   UNL     1      34.617 -19.934 -20.992  0.00  0.00    -0.045 C 
ATOM      8  C   UNL     1      34.921 -22.862 -20.100  0.00  0.00    +0.000 C 
ATOM      9  C   UNL     1      32.438 -21.041 -20.292  0.00  0.00    +0.004 C 
ATOM     10  C   UNL     1      33.109 -19.811 -20.927  0.00  0.00    +0.022 C 
ATOM     11  C   UNL     1      35.306 -19.704 -22.118  0.00  0.00    -0.009 C 
ENDROOT
BRANCH  11  12
ATOM     12  C   UNL     1      34.683 -19.321 -23.361  0.00  0.00    -0.005 C 
ATOM     13  C   UNL     1      34.194 -18.093 -23.591  0.00  0.00    -0.021 C 
ATOM     14  C   UNL     1      33.588 -17.714 -24.918  0.00  0.00    +0.055 C 
ATOM     15  C   UNL     1      34.243 -17.019 -22.601  0.00  0.00    +0.000 C 
ATOM     16  C   UNL     1      34.170 -16.409 -25.469  0.00  0.00    +0.118 C 
ATOM     17  C   UNL     1      34.742 -15.686 -23.107  0.00  0.00    +0.135 C 
ATOM     18  C   UNL     1      34.075 -15.288 -24.428  0.00  0.00    +0.063 C 
ATOM     19  C   UNL     1      33.821 -17.180 -21.336  0.00  0.00    -0.003 C 
BRANCH  16  20
ATOM     20  O   UNL     1      33.436 -16.040 -26.632  0.00  0.00    -0.384 OA
ATOM     21  H   UNL     1      33.575 -15.097 -26.817  0.00  0.00    +0.210 HD
ENDBRANCH  16  20
BRANCH  17  22
ATOM     22  O   UNL     1      36.155 -15.779 -23.294  0.00  0.00    -0.380 OA
ATOM     23  H   UNL     1      36.346 -15.999 -24.219  0.00  0.00    +0.211 HD
ENDBRANCH  17  22
ENDBRANCH  11  12
BRANCH   2  24
ATOM     24  C   UNL     1      35.378 -23.153 -17.145  0.00  0.00    +0.000 C 
ATOM     25  C   UNL     1      33.982 -23.439 -16.586  0.00  0.00    +0.000 C 
BRANCH  24  26
ATOM     26  C   UNL     1      36.469 -23.314 -16.065  0.00  0.00    +0.000 C 
BRANCH  26  27
ATOM     27  C   UNL     1      36.070 -24.167 -14.854  0.00  0.00    +0.002 C 
BRANCH  27  28
ATOM     28  C   UNL     1      36.566 -25.608 -15.017  0.00  0.00    +0.027 C 
BRANCH  28  29
ATOM     29  C   UNL     1      37.756 -26.006 -14.119  0.00  0.00    +0.088 C 
ATOM     30  C   UNL     1      38.935 -25.042 -14.260  0.00  0.00    +0.029 C 
ATOM     31  C   UNL     1      37.359 -26.149 -12.648  0.00  0.00    +0.029 C 
BRANCH  29  32
ATOM     32  O   UNL     1      38.220 -27.286 -14.569  0.00  0.00    -0.387 OA
ATOM     33  H   UNL     1      38.990 -27.167 -15.146  0.00  0.00    +0.210 HD
ENDBRANCH  29  32
ENDBRANCH  28  29
ENDBRANCH  27  28
ENDBRANCH  26  27
ENDBRANCH  24  26
ENDBRANCH   2  24
TORSDOF 9
ENDMDL
MODEL 7
REMARK VINA RESULT:      -6.2      2.202      3.485
REMARK  Name = 5280453
REMARK  9 active torsions:
REMARK  status: ('A' for Active; 'I' for Inactive)
REMARK    1  A    between atoms: C_2  and  C_24
REMARK    2  A    between atoms: C_11  and  C_12
REMARK    3  A    between atoms: C_16  and  O_20
REMARK    4  A    between atoms: C_17  and  O_22
REMARK    5  A    between atoms: C_24  and  C_26
REMARK    6  A    between atoms: C_26  and  C_27
REMARK    7  A    between atoms: C_27  and  C_28
REMARK    8  A    between atoms: C_28  and  C_29
REMARK    9  A    between atoms: C_29  and  O_32
REMARK                            x       y       z     vdW  Elec       q    Type
REMARK                         _______ _______ _______ _____ _____    ______ ____
ROOT
ATOM      1  C   UNL     1      33.264 -13.431 -22.900  0.00  0.00    +0.003 C 
ATOM      2  C   UNL     1      32.628 -14.522 -22.004  0.00  0.00    +0.000 C 
ATOM      3  C   UNL     1      32.267 -12.274 -22.638  0.00  0.00    +0.018 C 
ATOM      4  C   UNL     1      32.212 -13.758 -20.725  0.00  0.00    +0.000 C 
ATOM      5  C   UNL     1      32.123 -12.272 -21.116  0.00  0.00    +0.004 C 
ATOM      6  C   UNL     1      33.248 -13.758 -24.406  0.00  0.00    +0.001 C 
ATOM      7  C   UNL     1      32.643 -11.041 -23.416  0.00  0.00    -0.045 C 
ATOM      8  C   UNL     1      34.712 -13.103 -22.454  0.00  0.00    +0.000 C 
ATOM      9  C   UNL     1      33.575 -12.520 -25.261  0.00  0.00    +0.004 C 
ATOM     10  C   UNL     1      32.718 -11.293 -24.908  0.00  0.00    +0.022 C 
ATOM     11  C   UNL     1      32.885  -9.837 -22.880  0.00  0.00    -0.009 C 
ENDROOT
BRANCH  11  12
ATOM     12  C   UNL     1      33.235  -8.679 -23.666  0.00  0.00    -0.005 C 
ATOM     13  C   UNL     1      32.389  -7.663 -23.896  0.00  0.00    -0.021 C 
ATOM     14  C   UNL     1      32.803  -6.447 -24.686  0.00  0.00    +0.055 C 
ATOM     15  C   UNL     1      31.024  -7.629 -23.374  0.00  0.00    +0.000 C 
ATOM     16  C   UNL     1      32.464  -5.143 -23.960  0.00  0.00    +0.118 C 
ATOM     17  C   UNL     1      30.611  -6.338 -22.708  0.00  0.00    +0.135 C 
ATOM     18  C   UNL     1      30.987  -5.114 -23.550  0.00  0.00    +0.063 C 
ATOM     19  C   UNL     1      30.168  -8.654 -23.519  0.00  0.00    -0.003 C 
BRANCH  16  20
ATOM     20  O   UNL     1      32.735  -4.053 -24.836  0.00  0.00    -0.384 OA
ATOM     21  H   UNL     1      31.924  -3.809 -25.310  0.00  0.00    +0.210 HD
ENDBRANCH  16  20
BRANCH  17  22
ATOM     22  O   UNL     1      31.258  -6.262 -21.437  0.00  0.00    -0.380 OA
ATOM     23  H   UNL     1      30.595  -6.323 -20.732  0.00  0.00    +0.211 HD
ENDBRANCH  17  22
ENDBRANCH  11  12
BRANCH   2  24
ATOM     24  C   UNL     1      33.487 -15.744 -21.712  0.00  0.00    +0.000 C 
ATOM     25  C   UNL     1      34.491 -15.447 -20.595  0.00  0.00    +0.000 C 
BRANCH  24  26
ATOM     26  C   UNL     1      34.182 -16.304 -22.971  0.00  0.00    +0.000 C 
BRANCH  26  27
ATOM     27  C   UNL     1      35.386 -17.216 -22.703  0.00  0.00    +0.002 C 
BRANCH  27  28
ATOM     28  C   UNL     1      34.958 -18.687 -22.669  0.00  0.00    +0.027 C 
BRANCH  28  29
ATOM     29  C   UNL     1      34.878 -19.324 -21.266  0.00  0.00    +0.088 C 
ATOM     30  C   UNL     1      33.439 -19.430 -20.761  0.00  0.00    +0.029 C 
ATOM     31  C   UNL     1      35.566 -20.689 -21.202  0.00  0.00    +0.029 C 
BRANCH  29  32
ATOM     32  O   UNL     1      35.564 -18.449 -20.361  0.00  0.00    -0.387 OA
ATOM     33  H   UNL     1      35.036 -17.648 -20.221  0.00  0.00    +0.210 HD
ENDBRANCH  29  32
ENDBRANCH  28  29
ENDBRANCH  27  28
ENDBRANCH  26  27
ENDBRANCH  24  26
ENDBRANCH   2  24
TORSDOF 9
ENDMDL
MODEL 8
REMARK VINA RESULT:      -6.1      2.884      6.073
REMARK  Name = 5280453
REMARK  9 active torsions:
REMARK  status: ('A' for Active; 'I' for Inactive)
REMARK    1  A    between atoms: C_2  and  C_24
REMARK    2  A    between atoms: C_11  and  C_12
REMARK    3  A    between atoms: C_16  and  O_20
REMARK    4  A    between atoms: C_17  and  O_22
REMARK    5  A    between atoms: C_24  and  C_26
REMARK    6  A    between atoms: C_26  and  C_27
REMARK    7  A    between atoms: C_27  and  C_28
REMARK    8  A    between atoms: C_28  and  C_29
REMARK    9  A    between atoms: C_29  and  O_32
REMARK                            x       y       z     vdW  Elec       q    Type
REMARK                         _______ _______ _______ _____ _____    ______ ____
ROOT
ATOM      1  C   UNL     1      32.555 -10.092 -22.256  0.00  0.00    +0.003 C 
ATOM      2  C   UNL     1      32.878 -11.605 -22.204  0.00  0.00    +0.000 C 
ATOM      3  C   UNL     1      33.652  -9.632 -23.249  0.00  0.00    +0.018 C 
ATOM      4  C   UNL     1      33.189 -11.971 -23.674  0.00  0.00    +0.000 C 
ATOM      5  C   UNL     1      33.551 -10.653 -24.382  0.00  0.00    +0.004 C 
ATOM      6  C   UNL     1      32.764  -9.352 -20.920  0.00  0.00    +0.001 C 
ATOM      7  C   UNL     1      33.584  -8.148 -23.490  0.00  0.00    -0.045 C 
ATOM      8  C   UNL     1      31.116  -9.837 -22.773  0.00  0.00    +0.000 C 
ATOM      9  C   UNL     1      32.757  -7.824 -21.108  0.00  0.00    +0.004 C 
ATOM     10  C   UNL     1      33.712  -7.343 -22.213  0.00  0.00    +0.022 C 
ATOM     11  C   UNL     1      33.434  -7.568 -24.689  0.00  0.00    -0.009 C 
ENDROOT
BRANCH  11  12
ATOM     12  C   UNL     1      33.382  -6.139 -24.874  0.00  0.00    -0.005 C 
ATOM     13  C   UNL     1      32.312  -5.394 -24.557  0.00  0.00    -0.021 C 
ATOM     14  C   UNL     1      32.308  -3.895 -24.724  0.00  0.00    +0.055 C 
ATOM     15  C   UNL     1      31.088  -5.959 -23.992  0.00  0.00    +0.000 C 
ATOM     16  C   UNL     1      31.835  -3.173 -23.460  0.00  0.00    +0.118 C 
ATOM     17  C   UNL     1      30.535  -5.242 -22.783  0.00  0.00    +0.135 C 
ATOM     18  C   UNL     1      30.485  -3.725 -22.990  0.00  0.00    +0.063 C 
ATOM     19  C   UNL     1      30.457  -7.012 -24.538  0.00  0.00    -0.003 C 
BRANCH  16  20
ATOM     20  O   UNL     1      31.706  -1.786 -23.751  0.00  0.00    -0.384 OA
ATOM     21  H   UNL     1      32.442  -1.504 -24.319  0.00  0.00    +0.210 HD
ENDBRANCH  16  20
BRANCH  17  22
ATOM     22  O   UNL     1      31.369  -5.545 -21.663  0.00  0.00    -0.380 OA
ATOM     23  H   UNL     1      32.216  -5.081 -21.756  0.00  0.00    +0.211 HD
ENDBRANCH  17  22
ENDBRANCH  11  12
BRANCH   2  24
ATOM     24  C   UNL     1      31.819 -12.504 -21.581  0.00  0.00    +0.000 C 
ATOM     25  C   UNL     1      30.737 -11.669 -20.891  0.00  0.00    +0.000 C 
BRANCH  24  26
ATOM     26  C   UNL     1      32.415 -13.564 -20.631  0.00  0.00    +0.000 C 
BRANCH  26  27
ATOM     27  C   UNL     1      33.606 -14.350 -21.192  0.00  0.00    +0.002 C 
BRANCH  27  28
ATOM     28  C   UNL     1      33.221 -15.811 -21.453  0.00  0.00    +0.027 C 
BRANCH  28  29
ATOM     29  C   UNL     1      34.391 -16.818 -21.443  0.00  0.00    +0.088 C 
ATOM     30  C   UNL     1      33.918 -18.251 -21.197  0.00  0.00    +0.029 C 
ATOM     31  C   UNL     1      35.233 -16.748 -22.719  0.00  0.00    +0.029 C 
BRANCH  29  32
ATOM     32  O   UNL     1      35.241 -16.473 -20.342  0.00  0.00    -0.387 OA
ATOM     33  H   UNL     1      35.269 -17.210 -19.712  0.00  0.00    +0.210 HD
ENDBRANCH  29  32
ENDBRANCH  28  29
ENDBRANCH  27  28
ENDBRANCH  26  27
ENDBRANCH  24  26
ENDBRANCH   2  24
TORSDOF 9
ENDMDL
MODEL 9
REMARK VINA RESULT:      -6.1     10.308     12.687
REMARK  Name = 5280453
REMARK  9 active torsions:
REMARK  status: ('A' for Active; 'I' for Inactive)
REMARK    1  A    between atoms: C_2  and  C_24
REMARK    2  A    between atoms: C_11  and  C_12
REMARK    3  A    between atoms: C_16  and  O_20
REMARK    4  A    between atoms: C_17  and  O_22
REMARK    5  A    between atoms: C_24  and  C_26
REMARK    6  A    between atoms: C_26  and  C_27
REMARK    7  A    between atoms: C_27  and  C_28
REMARK    8  A    between atoms: C_28  and  C_29
REMARK    9  A    between atoms: C_29  and  O_32
REMARK                            x       y       z     vdW  Elec       q    Type
REMARK                         _______ _______ _______ _____ _____    ______ ____
ROOT
ATOM      1  C   UNL     1      36.681 -23.780 -15.476  0.00  0.00    +0.003 C 
ATOM      2  C   UNL     1      37.680 -24.939 -15.236  0.00  0.00    +0.000 C 
ATOM      3  C   UNL     1      35.460 -24.596 -15.971  0.00  0.00    +0.018 C 
ATOM      4  C   UNL     1      36.818 -26.045 -14.584  0.00  0.00    +0.000 C 
ATOM      5  C   UNL     1      35.356 -25.728 -14.949  0.00  0.00    +0.004 C 
ATOM      6  C   UNL     1      37.101 -22.802 -16.593  0.00  0.00    +0.001 C 
ATOM      7  C   UNL     1      34.300 -23.697 -16.303  0.00  0.00    -0.045 C 
ATOM      8  C   UNL     1      36.402 -22.992 -14.171  0.00  0.00    +0.000 C 
ATOM      9  C   UNL     1      35.937 -21.887 -17.014  0.00  0.00    +0.004 C 
ATOM     10  C   UNL     1      34.647 -22.656 -17.347  0.00  0.00    +0.022 C 
ATOM     11  C   UNL     1      33.078 -23.783 -15.758  0.00  0.00    -0.009 C 
ENDROOT
BRANCH  11  12
ATOM     12  C   UNL     1      31.991 -22.904 -16.112  0.00  0.00    -0.005 C 
ATOM     13  C   UNL     1      30.711 -23.302 -16.165  0.00  0.00    -0.021 C 
ATOM     14  C   UNL     1      29.594 -22.344 -16.497  0.00  0.00    +0.055 C 
ATOM     15  C   UNL     1      30.289 -24.669 -15.871  0.00  0.00    +0.000 C 
ATOM     16  C   UNL     1      28.447 -22.421 -15.486  0.00  0.00    +0.118 C 
ATOM     17  C   UNL     1      29.113 -24.803 -14.933  0.00  0.00    +0.135 C 
ATOM     18  C   UNL     1      27.964 -23.865 -15.317  0.00  0.00    +0.063 C 
ATOM     19  C   UNL     1      30.867 -25.743 -16.436  0.00  0.00    -0.003 C 
BRANCH  16  20
ATOM     20  O   UNL     1      27.373 -21.613 -15.957  0.00  0.00    -0.384 OA
ATOM     21  H   UNL     1      27.306 -21.693 -16.922  0.00  0.00    +0.210 HD
ENDBRANCH  16  20
BRANCH  17  22
ATOM     22  O   UNL     1      29.559 -24.498 -13.611  0.00  0.00    -0.380 OA
ATOM     23  H   UNL     1      28.955 -23.856 -13.205  0.00  0.00    +0.211 HD
ENDBRANCH  17  22
ENDBRANCH  11  12
BRANCH   2  24
ATOM     24  C   UNL     1      38.925 -24.603 -14.426  0.00  0.00    +0.000 C 
ATOM     25  C   UNL     1      40.192 -24.885 -15.238  0.00  0.00    +0.000 C 
BRANCH  24  26
ATOM     26  C   UNL     1      38.956 -25.311 -13.054  0.00  0.00    +0.000 C 
BRANCH  26  27
ATOM     27  C   UNL     1      38.274 -24.551 -11.910  0.00  0.00    +0.002 C 
BRANCH  27  28
ATOM     28  C   UNL     1      36.999 -25.273 -11.460  0.00  0.00    +0.027 C 
BRANCH  28  29
ATOM     29  C   UNL     1      35.867 -24.361 -10.941  0.00  0.00    +0.088 C 
ATOM     30  C   UNL     1      36.377 -22.976 -10.543  0.00  0.00    +0.029 C 
ATOM     31  C   UNL     1      34.712 -24.236 -11.936  0.00  0.00    +0.029 C 
BRANCH  29  32
ATOM     32  O   UNL     1      35.349 -24.964  -9.748  0.00  0.00    -0.387 OA
ATOM     33  H   UNL     1      35.277 -24.293  -9.051  0.00  0.00    +0.210 HD
ENDBRANCH  29  32
ENDBRANCH  28  29
ENDBRANCH  27  28
ENDBRANCH  26  27
ENDBRANCH  24  26
ENDBRANCH   2  24
TORSDOF 9
ENDMDL
