MODEL 1
REMARK VINA RESULT:     -12.0      0.000      0.000
REMARK  Name = 24178120
REMARK  2 active torsions:
REMARK  status: ('A' for Active; 'I' for Inactive)
REMARK    1  A    between atoms: N_2  and  C_16
REMARK    2  A    between atoms: C_4  and  O_22
REMARK                            x       y       z     vdW  Elec       q    Type
REMARK                         _______ _______ _______ _____ _____    ______ ____
ROOT
ATOM      1  O   UNL     1      33.484 -15.189 -25.464  0.00  0.00    -0.288 OA
ATOM      2  N   UNL     1      34.500 -18.594 -22.547  0.00  0.00    -0.264 N 
ATOM      3  N   UNL     1      33.580 -16.537 -21.614  0.00  0.00    -0.392 NA
ATOM      4  C   UNL     1      34.561 -16.633 -23.864  0.00  0.00    +0.204 C 
ATOM      5  C   UNL     1      34.553 -17.856 -24.776  0.00  0.00    +0.065 C 
ATOM      6  C   UNL     1      35.020 -18.995 -23.860  0.00  0.00    +0.101 C 
ATOM      7  C   UNL     1      34.150 -17.247 -22.535  0.00  0.00    +0.195 C 
ATOM      8  C   UNL     1      33.699 -15.480 -24.295  0.00  0.00    +0.207 C 
ATOM      9  C   UNL     1      33.188 -14.657 -23.182  0.00  0.00    +0.063 C 
ATOM     10  C   UNL     1      33.208 -15.206 -21.889  0.00  0.00    +0.117 C 
ATOM     11  C   UNL     1      32.729 -13.358 -23.416  0.00  0.00    +0.005 C 
ATOM     12  C   UNL     1      32.758 -14.411 -20.828  0.00  0.00    +0.081 C 
ATOM     13  C   UNL     1      32.307 -13.109 -21.052  0.00  0.00    -0.037 C 
ATOM     14  C   UNL     1      32.289 -12.585 -22.344  0.00  0.00    -0.008 C 
ATOM     15  C   UNL     1      31.835 -12.278 -19.907  0.00  0.00    +0.027 C 
ENDROOT
BRANCH   2  16
ATOM     16  C   UNL     1      34.426 -19.476 -21.497  0.00  0.00    +0.053 C 
ATOM     17  C   UNL     1      33.183 -19.849 -20.985  0.00  0.00    +0.015 C 
ATOM     18  C   UNL     1      35.595 -19.998 -20.940  0.00  0.00    +0.015 C 
ATOM     19  C   UNL     1      33.108 -20.745 -19.919  0.00  0.00    +0.001 C 
ATOM     20  C   UNL     1      35.519 -20.894 -19.873  0.00  0.00    +0.001 C 
ATOM     21  C   UNL     1      34.276 -21.267 -19.363  0.00  0.00    +0.000 C 
ENDBRANCH   2  16
BRANCH   4  22
ATOM     22  O   UNL     1      35.864 -16.095 -23.716  0.00  0.00    -0.372 OA
ATOM     23  H   UNL     1      35.933 -15.645 -22.861  0.00  0.00    +0.211 HD
ENDBRANCH   4  22
TORSDOF 2
ENDMDL
MODEL 2
REMARK VINA RESULT:     -10.1      6.827     10.323
REMARK  Name = 24178120
REMARK  2 active torsions:
REMARK  status: ('A' for Active; 'I' for Inactive)
REMARK    1  A    between atoms: N_2  and  C_16
REMARK    2  A    between atoms: C_4  and  O_22
REMARK                            x       y       z     vdW  Elec       q    Type
REMARK                         _______ _______ _______ _____ _____    ______ ____
ROOT
ATOM      1  O   UNL     1      34.414 -24.121 -12.752  0.00  0.00    -0.288 OA
ATOM      2  N   UNL     1      35.568 -22.592 -16.931  0.00  0.00    -0.264 N 
ATOM      3  N   UNL     1      33.231 -23.170 -16.540  0.00  0.00    -0.392 NA
ATOM      4  C   UNL     1      35.039 -23.951 -15.072  0.00  0.00    +0.204 C 
ATOM      5  C   UNL     1      36.336 -23.198 -14.796  0.00  0.00    +0.065 C 
ATOM      6  C   UNL     1      36.821 -22.786 -16.193  0.00  0.00    +0.101 C 
ATOM      7  C   UNL     1      34.497 -23.188 -16.271  0.00  0.00    +0.195 C 
ATOM      8  C   UNL     1      34.074 -24.050 -13.925  0.00  0.00    +0.207 C 
ATOM      9  C   UNL     1      32.657 -24.141 -14.332  0.00  0.00    +0.063 C 
ATOM     10  C   UNL     1      32.317 -23.750 -15.638  0.00  0.00    +0.117 C 
ATOM     11  C   UNL     1      31.698 -24.633 -13.444  0.00  0.00    +0.005 C 
ATOM     12  C   UNL     1      30.981 -23.873 -16.035  0.00  0.00    +0.081 C 
ATOM     13  C   UNL     1      30.016 -24.373 -15.157  0.00  0.00    -0.037 C 
ATOM     14  C   UNL     1      30.374 -24.749 -13.863  0.00  0.00    -0.008 C 
ATOM     15  C   UNL     1      28.599 -24.497 -15.602  0.00  0.00    +0.027 C 
ENDROOT
BRANCH   2  16
ATOM     16  C   UNL     1      35.529 -21.926 -18.132  0.00  0.00    +0.053 C 
ATOM     17  C   UNL     1      34.325 -21.804 -18.824  0.00  0.00    +0.015 C 
ATOM     18  C   UNL     1      36.696 -21.370 -18.659  0.00  0.00    +0.015 C 
ATOM     19  C   UNL     1      34.285 -21.127 -20.043  0.00  0.00    +0.001 C 
ATOM     20  C   UNL     1      36.656 -20.693 -19.878  0.00  0.00    +0.001 C 
ATOM     21  C   UNL     1      35.452 -20.573 -20.570  0.00  0.00    +0.000 C 
ENDBRANCH   2  16
BRANCH   4  22
ATOM     22  O   UNL     1      35.283 -25.289 -15.476  0.00  0.00    -0.372 OA
ATOM     23  H   UNL     1      34.503 -25.832 -15.283  0.00  0.00    +0.211 HD
ENDBRANCH   4  22
TORSDOF 2
ENDMDL
MODEL 3
REMARK VINA RESULT:      -9.2      4.215      6.772
REMARK  Name = 24178120
REMARK  2 active torsions:
REMARK  status: ('A' for Active; 'I' for Inactive)
REMARK    1  A    between atoms: N_2  and  C_16
REMARK    2  A    between atoms: C_4  and  O_22
REMARK                            x       y       z     vdW  Elec       q    Type
REMARK                         _______ _______ _______ _____ _____    ______ ____
ROOT
ATOM      1  O   UNL     1      31.929  -9.828 -19.363  0.00  0.00    -0.288 OA
ATOM      2  N   UNL     1      32.519 -13.262 -22.364  0.00  0.00    -0.264 N 
ATOM      3  N   UNL     1      32.780 -10.980 -23.184  0.00  0.00    -0.392 NA
ATOM      4  C   UNL     1      31.624 -11.492 -21.078  0.00  0.00    +0.204 C 
ATOM      5  C   UNL     1      31.940 -12.671 -20.165  0.00  0.00    +0.065 C 
ATOM      6  C   UNL     1      32.012 -13.866 -21.126  0.00  0.00    +0.101 C 
ATOM      7  C   UNL     1      32.382 -11.877 -22.340  0.00  0.00    +0.195 C 
ATOM      8  C   UNL     1      31.975 -10.131 -20.548  0.00  0.00    +0.207 C 
ATOM      9  C   UNL     1      32.304  -9.140 -21.592  0.00  0.00    +0.063 C 
ATOM     10  C   UNL     1      32.634  -9.613 -22.873  0.00  0.00    +0.117 C 
ATOM     11  C   UNL     1      32.253  -7.773 -21.310  0.00  0.00    +0.005 C 
ATOM     12  C   UNL     1      32.909  -8.673 -23.872  0.00  0.00    +0.081 C 
ATOM     13  C   UNL     1      32.852  -7.304 -23.602  0.00  0.00    -0.037 C 
ATOM     14  C   UNL     1      32.529  -6.856 -22.322  0.00  0.00    -0.008 C 
ATOM     15  C   UNL     1      33.146  -6.319 -24.682  0.00  0.00    +0.027 C 
ENDROOT
BRANCH   2  16
ATOM     16  C   UNL     1      33.021 -14.024 -23.390  0.00  0.00    +0.053 C 
ATOM     17  C   UNL     1      33.940 -15.039 -23.120  0.00  0.00    +0.015 C 
ATOM     18  C   UNL     1      32.613 -13.783 -24.702  0.00  0.00    +0.015 C 
ATOM     19  C   UNL     1      34.450 -15.813 -24.162  0.00  0.00    +0.001 C 
ATOM     20  C   UNL     1      33.124 -14.558 -25.744  0.00  0.00    +0.001 C 
ATOM     21  C   UNL     1      34.042 -15.572 -25.473  0.00  0.00    +0.000 C 
ENDBRANCH   2  16
BRANCH   4  22
ATOM     22  O   UNL     1      30.243 -11.428 -21.397  0.00  0.00    -0.372 OA
ATOM     23  H   UNL     1      29.981 -12.236 -21.864  0.00  0.00    +0.211 HD
ENDBRANCH   4  22
TORSDOF 2
ENDMDL
MODEL 4
REMARK VINA RESULT:      -9.1      5.128      7.531
REMARK  Name = 24178120
REMARK  2 active torsions:
REMARK  status: ('A' for Active; 'I' for Inactive)
REMARK    1  A    between atoms: N_2  and  C_16
REMARK    2  A    between atoms: C_4  and  O_22
REMARK                            x       y       z     vdW  Elec       q    Type
REMARK                         _______ _______ _______ _____ _____    ______ ____
ROOT
ATOM      1  O   UNL     1      32.140 -10.289 -18.938  0.00  0.00    -0.288 OA
ATOM      2  N   UNL     1      32.493 -12.538 -22.932  0.00  0.00    -0.264 N 
ATOM      3  N   UNL     1      32.365 -10.104 -23.008  0.00  0.00    -0.392 NA
ATOM      4  C   UNL     1      31.684 -11.392 -21.030  0.00  0.00    +0.204 C 
ATOM      5  C   UNL     1      32.284 -12.727 -20.600  0.00  0.00    +0.065 C 
ATOM      6  C   UNL     1      32.292 -13.554 -21.893  0.00  0.00    +0.101 C 
ATOM      7  C   UNL     1      32.225 -11.262 -22.446  0.00  0.00    +0.195 C 
ATOM      8  C   UNL     1      31.991 -10.214 -20.150  0.00  0.00    +0.207 C 
ATOM      9  C   UNL     1      32.016  -8.919 -20.858  0.00  0.00    +0.063 C 
ATOM     10  C   UNL     1      32.144  -8.932 -22.257  0.00  0.00    +0.117 C 
ATOM     11  C   UNL     1      31.884  -7.723 -20.149  0.00  0.00    +0.005 C 
ATOM     12  C   UNL     1      32.130  -7.705 -22.932  0.00  0.00    +0.081 C 
ATOM     13  C   UNL     1      31.989  -6.505 -22.231  0.00  0.00    -0.037 C 
ATOM     14  C   UNL     1      31.870  -6.515 -20.842  0.00  0.00    -0.008 C 
ATOM     15  C   UNL     1      31.974  -5.210 -22.970  0.00  0.00    +0.027 C 
ENDROOT
BRANCH   2  16
ATOM     16  C   UNL     1      32.866 -12.873 -24.211  0.00  0.00    +0.053 C 
ATOM     17  C   UNL     1      32.598 -14.150 -24.704  0.00  0.00    +0.015 C 
ATOM     18  C   UNL     1      33.514 -11.935 -25.016  0.00  0.00    +0.015 C 
ATOM     19  C   UNL     1      32.977 -14.490 -26.003  0.00  0.00    +0.001 C 
ATOM     20  C   UNL     1      33.893 -12.276 -26.315  0.00  0.00    +0.001 C 
ATOM     21  C   UNL     1      33.625 -13.552 -26.808  0.00  0.00    +0.000 C 
ENDBRANCH   2  16
BRANCH   4  22
ATOM     22  O   UNL     1      30.269 -11.450 -21.104  0.00  0.00    -0.372 OA
ATOM     23  H   UNL     1      29.910 -10.550 -21.150  0.00  0.00    +0.211 HD
ENDBRANCH   4  22
TORSDOF 2
ENDMDL
MODEL 5
REMARK VINA RESULT:      -9.0      5.909      8.845
REMARK  Name = 24178120
REMARK  2 active torsions:
REMARK  status: ('A' for Active; 'I' for Inactive)
REMARK    1  A    between atoms: N_2  and  C_16
REMARK    2  A    between atoms: C_4  and  O_22
REMARK                            x       y       z     vdW  Elec       q    Type
REMARK                         _______ _______ _______ _____ _____    ______ ____
ROOT
ATOM      1  O   UNL     1      31.851 -22.054 -18.266  0.00  0.00    -0.288 OA
ATOM      2  N   UNL     1      34.936 -23.911 -15.408  0.00  0.00    -0.264 N 
ATOM      3  N   UNL     1      35.768 -22.498 -17.213  0.00  0.00    -0.392 NA
ATOM      4  C   UNL     1      33.510 -23.466 -17.239  0.00  0.00    +0.204 C 
ATOM      5  C   UNL     1      32.669 -23.769 -16.004  0.00  0.00    +0.065 C 
ATOM      6  C   UNL     1      33.639 -24.513 -15.076  0.00  0.00    +0.101 C 
ATOM      7  C   UNL     1      34.879 -23.228 -16.619  0.00  0.00    +0.195 C 
ATOM      8  C   UNL     1      33.030 -22.338 -18.107  0.00  0.00    +0.207 C 
ATOM      9  C   UNL     1      34.105 -21.635 -18.836  0.00  0.00    +0.063 C 
ATOM     10  C   UNL     1      35.425 -21.797 -18.387  0.00  0.00    +0.117 C 
ATOM     11  C   UNL     1      33.806 -20.860 -19.959  0.00  0.00    +0.005 C 
ATOM     12  C   UNL     1      36.447 -21.161 -19.101  0.00  0.00    +0.081 C 
ATOM     13  C   UNL     1      36.159 -20.392 -20.230  0.00  0.00    -0.037 C 
ATOM     14  C   UNL     1      34.840 -20.239 -20.656  0.00  0.00    -0.008 C 
ATOM     15  C   UNL     1      37.263 -19.725 -20.978  0.00  0.00    +0.027 C 
ENDROOT
BRANCH   2  16
ATOM     16  C   UNL     1      36.035 -24.066 -14.599  0.00  0.00    +0.053 C 
ATOM     17  C   UNL     1      36.153 -23.313 -13.430  0.00  0.00    +0.015 C 
ATOM     18  C   UNL     1      37.034 -24.977 -14.946  0.00  0.00    +0.015 C 
ATOM     19  C   UNL     1      37.269 -23.471 -12.608  0.00  0.00    +0.001 C 
ATOM     20  C   UNL     1      38.150 -25.135 -14.123  0.00  0.00    +0.001 C 
ATOM     21  C   UNL     1      38.267 -24.382 -12.956  0.00  0.00    +0.000 C 
ENDBRANCH   2  16
BRANCH   4  22
ATOM     22  O   UNL     1      33.607 -24.590 -18.100  0.00  0.00    -0.372 OA
ATOM     23  H   UNL     1      32.747 -24.753 -18.515  0.00  0.00    +0.211 HD
ENDBRANCH   4  22
TORSDOF 2
ENDMDL
