MODEL 1
REMARK VINA RESULT:     -10.3      0.000      0.000
REMARK  Name = 5492457
REMARK  14 active torsions:
REMARK  status: ('A' for Active; 'I' for Inactive)
REMARK    1  A    between atoms: C_1  and  N_4
REMARK    2  A    between atoms: C_1  and  P_21
REMARK    3  A    between atoms: C_5  and  C_7
REMARK    4  A    between atoms: C_7  and  N_10
REMARK    5  A    between atoms: C_11  and  O_13
REMARK    6  A    between atoms: O_13  and  C_14
REMARK    7  A    between atoms: C_14  and  C_15
REMARK    8  A    between atoms: P_21  and  O_23
REMARK    9  A    between atoms: P_21  and  O_25
REMARK   10  A    between atoms: O_25  and  C_26
REMARK   11  A    between atoms: C_26  and  C_28
REMARK   12  A    between atoms: C_26  and  C_31
REMARK   13  A    between atoms: C_28  and  O_29
REMARK   14  A    between atoms: C_31  and  C_32
REMARK                            x       y       z     vdW  Elec       q    Type
REMARK                         _______ _______ _______ _____ _____    ______ ____
ROOT
ATOM      1  C   UNL     1      31.677 -11.625 -21.680  0.00  0.00    +0.177 C 
ATOM      2  C   UNL     1      31.588 -11.917 -20.189  0.00  0.00    +0.034 C 
ENDROOT
BRANCH   1   4
ATOM      3  O   UNL     1      31.856 -14.508 -21.624  0.00  0.00    -0.273 OA
ATOM      4  N   UNL     1      32.696 -12.455 -22.306  0.00  0.00    -0.295 N 
ATOM      5  C   UNL     1      32.696 -13.840 -22.222  0.00  0.00    +0.241 C 
ATOM      6  H   UNL     1      33.415 -12.013 -22.811  0.00  0.00    +0.150 HD
BRANCH   5   7
ATOM      7  C   UNL     1      33.844 -14.458 -23.009  0.00  0.00    +0.151 C 
ATOM      8  C   UNL     1      33.440 -14.704 -24.455  0.00  0.00    +0.031 C 
BRANCH   7  10
ATOM      9  O   UNL     1      34.986 -14.783 -20.358  0.00  0.00    -0.226 OA
ATOM     10  N   UNL     1      34.222 -15.683 -22.356  0.00  0.00    -0.264 N 
ATOM     11  C   UNL     1      34.762 -15.745 -21.085  0.00  0.00    +0.402 C 
ATOM     12  H   UNL     1      34.088 -16.528 -22.844  0.00  0.00    +0.153 HD
BRANCH  11  13
ATOM     13  O   UNL     1      35.013 -17.046 -20.749  0.00  0.00    -0.430 OA
BRANCH  13  14
ATOM     14  C   UNL     1      34.420 -18.034 -21.599  0.00  0.00    +0.237 C 
BRANCH  14  15
ATOM     15  C   UNL     1      34.382 -19.346 -20.870  0.00  0.00    +0.021 C 
ATOM     16  C   UNL     1      33.160 -19.890 -20.477  0.00  0.00    -0.001 C 
ATOM     17  C   UNL     1      35.569 -20.020 -20.585  0.00  0.00    -0.001 C 
ATOM     18  C   UNL     1      33.123 -21.109 -19.800  0.00  0.00    -0.000 C 
ATOM     19  C   UNL     1      35.533 -21.239 -19.907  0.00  0.00    -0.000 C 
ATOM     20  C   UNL     1      34.310 -21.783 -19.514  0.00  0.00    -0.000 C 
ENDBRANCH  14  15
ENDBRANCH  13  14
ENDBRANCH  11  13
ENDBRANCH   7  10
ENDBRANCH   5   7
ENDBRANCH   1   4
BRANCH   1  21
ATOM     21  P   UNL     1      32.113  -9.937 -22.094  0.00  0.00    +0.358 P 
ATOM     22  O   UNL     1      32.023  -8.977 -20.944  0.00  0.00    -0.256 OA
BRANCH  21  23
ATOM     23  O   UNL     1      31.135  -9.587 -23.334  0.00  0.00    -0.322 OA
ATOM     24  H   UNL     1      30.272  -9.303 -22.996  0.00  0.00    +0.220 HD
ENDBRANCH  21  23
BRANCH  21  25
ATOM     25  O   UNL     1      33.574 -10.066 -22.779  0.00  0.00    -0.284 OA
BRANCH  25  26
ATOM     26  C   UNL     1      33.819  -9.370 -23.988  0.00  0.00    +0.226 C 
BRANCH  26  28
ATOM     27  O   UNL     1      35.485  -9.815 -25.704  0.00  0.00    -0.248 OA
ATOM     28  C   UNL     1      34.731 -10.235 -24.836  0.00  0.00    +0.342 C 
BRANCH  28  29
ATOM     29  O   UNL     1      34.637 -11.550 -24.509  0.00  0.00    -0.479 OA
ATOM     30  H   UNL     1      35.109 -12.190 -25.004  0.00  0.00    +0.295 HD
ENDBRANCH  28  29
ENDBRANCH  26  28
BRANCH  26  31
ATOM     31  C   UNL     1      34.491  -8.035 -23.659  0.00  0.00    +0.068 C 
BRANCH  31  32
ATOM     32  C   UNL     1      33.862  -6.886 -24.410  0.00  0.00    -0.019 C 
ATOM     33  C   UNL     1      32.646  -6.355 -23.981  0.00  0.00    -0.004 C 
ATOM     34  C   UNL     1      34.498  -6.355 -25.532  0.00  0.00    -0.004 C 
ATOM     35  C   UNL     1      32.065  -5.294 -24.674  0.00  0.00    -0.000 C 
ATOM     36  C   UNL     1      33.918  -5.292 -26.225  0.00  0.00    -0.000 C 
ATOM     37  C   UNL     1      32.700  -4.762 -25.796  0.00  0.00    -0.000 C 
ENDBRANCH  31  32
ENDBRANCH  26  31
ENDBRANCH  25  26
ENDBRANCH  21  25
ENDBRANCH   1  21
TORSDOF 14
ENDMDL
MODEL 2
REMARK VINA RESULT:      -9.9      2.252     10.784
REMARK  Name = 5492457
REMARK  14 active torsions:
REMARK  status: ('A' for Active; 'I' for Inactive)
REMARK    1  A    between atoms: C_1  and  N_4
REMARK    2  A    between atoms: C_1  and  P_21
REMARK    3  A    between atoms: C_5  and  C_7
REMARK    4  A    between atoms: C_7  and  N_10
REMARK    5  A    between atoms: C_11  and  O_13
REMARK    6  A    between atoms: O_13  and  C_14
REMARK    7  A    between atoms: C_14  and  C_15
REMARK    8  A    between atoms: P_21  and  O_23
REMARK    9  A    between atoms: P_21  and  O_25
REMARK   10  A    between atoms: O_25  and  C_26
REMARK   11  A    between atoms: C_26  and  C_28
REMARK   12  A    between atoms: C_26  and  C_31
REMARK   13  A    between atoms: C_28  and  O_29
REMARK   14  A    between atoms: C_31  and  C_32
REMARK                            x       y       z     vdW  Elec       q    Type
REMARK                         _______ _______ _______ _____ _____    ______ ____
ROOT
ATOM      1  C   UNL     1      32.370 -13.708 -22.085  0.00  0.00    +0.177 C 
ATOM      2  C   UNL     1      32.979 -13.493 -23.463  0.00  0.00    +0.034 C 
ENDROOT
BRANCH   1   4
ATOM      3  O   UNL     1      30.680 -11.369 -22.221  0.00  0.00    -0.273 OA
ATOM      4  N   UNL     1      32.477 -12.499 -21.282  0.00  0.00    -0.295 N 
ATOM      5  C   UNL     1      31.612 -11.422 -21.422  0.00  0.00    +0.241 C 
ATOM      6  H   UNL     1      33.194 -12.443 -20.611  0.00  0.00    +0.150 HD
BRANCH   5   7
ATOM      7  C   UNL     1      31.917 -10.313 -20.425  0.00  0.00    +0.151 C 
ATOM      8  C   UNL     1      31.139 -10.517 -19.134  0.00  0.00    +0.031 C 
BRANCH   7  10
ATOM      9  O   UNL     1      33.108  -7.712 -19.917  0.00  0.00    -0.226 OA
ATOM     10  N   UNL     1      31.587  -9.056 -21.042  0.00  0.00    -0.264 N 
ATOM     11  C   UNL     1      32.209  -7.860 -20.739  0.00  0.00    +0.402 C 
ATOM     12  H   UNL     1      30.875  -9.048 -21.723  0.00  0.00    +0.153 HD
BRANCH  11  13
ATOM     13  O   UNL     1      31.674  -6.853 -21.492  0.00  0.00    -0.430 OA
BRANCH  13  14
ATOM     14  C   UNL     1      31.286  -7.209 -22.823  0.00  0.00    +0.237 C 
BRANCH  14  15
ATOM     15  C   UNL     1      32.357  -6.771 -23.779  0.00  0.00    +0.021 C 
ATOM     16  C   UNL     1      32.061  -5.847 -24.781  0.00  0.00    -0.001 C 
ATOM     17  C   UNL     1      33.647  -7.288 -23.666  0.00  0.00    -0.001 C 
ATOM     18  C   UNL     1      33.056  -5.439 -25.670  0.00  0.00    -0.000 C 
ATOM     19  C   UNL     1      34.642  -6.881 -24.555  0.00  0.00    -0.000 C 
ATOM     20  C   UNL     1      34.346  -5.956 -25.557  0.00  0.00    -0.000 C 
ENDBRANCH  14  15
ENDBRANCH  13  14
ENDBRANCH  11  13
ENDBRANCH   7  10
ENDBRANCH   5   7
ENDBRANCH   1   4
BRANCH   1  21
ATOM     21  P   UNL     1      33.144 -14.998 -21.112  0.00  0.00    +0.358 P 
ATOM     22  O   UNL     1      32.495 -15.240 -19.780  0.00  0.00    -0.256 OA
BRANCH  21  23
ATOM     23  O   UNL     1      34.691 -14.531 -21.025  0.00  0.00    -0.322 OA
ATOM     24  H   UNL     1      34.879 -13.901 -21.738  0.00  0.00    +0.220 HD
ENDBRANCH  21  23
BRANCH  21  25
ATOM     25  O   UNL     1      33.182 -16.273 -22.108  0.00  0.00    -0.284 OA
BRANCH  25  26
ATOM     26  C   UNL     1      34.252 -17.194 -21.990  0.00  0.00    +0.226 C 
BRANCH  26  28
ATOM     27  O   UNL     1      34.963 -18.092 -24.137  0.00  0.00    -0.248 OA
ATOM     28  C   UNL     1      35.002 -17.192 -23.308  0.00  0.00    +0.342 C 
BRANCH  28  29
ATOM     29  O   UNL     1      35.722 -16.053 -23.485  0.00  0.00    -0.479 OA
ATOM     30  H   UNL     1      36.654 -16.070 -23.399  0.00  0.00    +0.295 HD
ENDBRANCH  28  29
ENDBRANCH  26  28
BRANCH  26  31
ATOM     31  C   UNL     1      33.676 -18.581 -21.698  0.00  0.00    +0.068 C 
BRANCH  31  32
ATOM     32  C   UNL     1      34.652 -19.449 -20.939  0.00  0.00    -0.019 C 
ATOM     33  C   UNL     1      36.014 -19.152 -20.964  0.00  0.00    -0.004 C 
ATOM     34  C   UNL     1      34.190 -20.547 -20.214  0.00  0.00    -0.004 C 
ATOM     35  C   UNL     1      36.915 -19.953 -20.263  0.00  0.00    -0.000 C 
ATOM     36  C   UNL     1      35.091 -21.348 -19.512  0.00  0.00    -0.000 C 
ATOM     37  C   UNL     1      36.454 -21.051 -19.537  0.00  0.00    -0.000 C 
ENDBRANCH  31  32
ENDBRANCH  26  31
ENDBRANCH  25  26
ENDBRANCH  21  25
ENDBRANCH   1  21
TORSDOF 14
ENDMDL
MODEL 3
REMARK VINA RESULT:      -9.8      2.511      4.456
REMARK  Name = 5492457
REMARK  14 active torsions:
REMARK  status: ('A' for Active; 'I' for Inactive)
REMARK    1  A    between atoms: C_1  and  N_4
REMARK    2  A    between atoms: C_1  and  P_21
REMARK    3  A    between atoms: C_5  and  C_7
REMARK    4  A    between atoms: C_7  and  N_10
REMARK    5  A    between atoms: C_11  and  O_13
REMARK    6  A    between atoms: O_13  and  C_14
REMARK    7  A    between atoms: C_14  and  C_15
REMARK    8  A    between atoms: P_21  and  O_23
REMARK    9  A    between atoms: P_21  and  O_25
REMARK   10  A    between atoms: O_25  and  C_26
REMARK   11  A    between atoms: C_26  and  C_28
REMARK   12  A    between atoms: C_26  and  C_31
REMARK   13  A    between atoms: C_28  and  O_29
REMARK   14  A    between atoms: C_31  and  C_32
REMARK                            x       y       z     vdW  Elec       q    Type
REMARK                         _______ _______ _______ _____ _____    ______ ____
ROOT
ATOM      1  C   UNL     1      33.565 -15.305 -21.809  0.00  0.00    +0.177 C 
ATOM      2  C   UNL     1      34.190 -14.621 -20.601  0.00  0.00    +0.034 C 
ENDROOT
BRANCH   1   4
ATOM      3  O   UNL     1      33.412 -18.056 -20.939  0.00  0.00    -0.273 OA
ATOM      4  N   UNL     1      34.393 -16.415 -22.256  0.00  0.00    -0.295 N 
ATOM      5  C   UNL     1      34.243 -17.709 -21.776  0.00  0.00    +0.241 C 
ATOM      6  H   UNL     1      35.090 -16.240 -22.928  0.00  0.00    +0.150 HD
BRANCH   5   7
ATOM      7  C   UNL     1      35.202 -18.682 -22.449  0.00  0.00    +0.151 C 
ATOM      8  C   UNL     1      34.770 -18.967 -23.879  0.00  0.00    +0.031 C 
BRANCH   7  10
ATOM      9  O   UNL     1      37.024 -19.340 -20.284  0.00  0.00    -0.226 OA
ATOM     10  N   UNL     1      35.238 -19.886 -21.663  0.00  0.00    -0.264 N 
ATOM     11  C   UNL     1      36.145 -20.116 -20.646  0.00  0.00    +0.402 C 
ATOM     12  H   UNL     1      34.577 -20.588 -21.861  0.00  0.00    +0.153 HD
BRANCH  11  13
ATOM     13  O   UNL     1      35.922 -21.346 -20.093  0.00  0.00    -0.430 OA
BRANCH  13  14
ATOM     14  C   UNL     1      36.450 -21.544 -18.777  0.00  0.00    +0.237 C 
BRANCH  14  15
ATOM     15  C   UNL     1      35.406 -22.206 -17.926  0.00  0.00    +0.021 C 
ATOM     16  C   UNL     1      34.134 -22.450 -18.445  0.00  0.00    -0.001 C 
ATOM     17  C   UNL     1      35.707 -22.578 -16.616  0.00  0.00    -0.001 C 
ATOM     18  C   UNL     1      33.163 -23.065 -17.655  0.00  0.00    -0.000 C 
ATOM     19  C   UNL     1      34.736 -23.193 -15.825  0.00  0.00    -0.000 C 
ATOM     20  C   UNL     1      33.465 -23.436 -16.344  0.00  0.00    -0.000 C 
ENDBRANCH  14  15
ENDBRANCH  13  14
ENDBRANCH  11  13
ENDBRANCH   7  10
ENDBRANCH   5   7
ENDBRANCH   1   4
BRANCH   1  21
ATOM     21  P   UNL     1      33.357 -14.255 -23.245  0.00  0.00    +0.358 P 
ATOM     22  O   UNL     1      33.232 -15.000 -24.542  0.00  0.00    -0.256 OA
BRANCH  21  23
ATOM     23  O   UNL     1      34.626 -13.254 -23.170  0.00  0.00    -0.322 OA
ATOM     24  H   UNL     1      35.437 -13.770 -23.043  0.00  0.00    +0.220 HD
ENDBRANCH  21  23
BRANCH  21  25
ATOM     25  O   UNL     1      32.099 -13.311 -22.863  0.00  0.00    -0.284 OA
BRANCH  25  26
ATOM     26  C   UNL     1      32.354 -12.035 -22.303  0.00  0.00    +0.226 C 
BRANCH  26  28
ATOM     27  O   UNL     1      31.919 -12.096 -19.910  0.00  0.00    -0.248 OA
ATOM     28  C   UNL     1      31.511 -11.910 -21.050  0.00  0.00    +0.342 C 
BRANCH  28  29
ATOM     29  O   UNL     1      30.234 -11.541 -21.327  0.00  0.00    -0.479 OA
ATOM     30  H   UNL     1      29.909 -10.714 -21.031  0.00  0.00    +0.295 HD
ENDBRANCH  28  29
ENDBRANCH  26  28
BRANCH  26  31
ATOM     31  C   UNL     1      31.966 -10.964 -23.325  0.00  0.00    +0.068 C 
BRANCH  31  32
ATOM     32  C   UNL     1      32.945  -9.814 -23.338  0.00  0.00    -0.019 C 
ATOM     33  C   UNL     1      32.698  -8.679 -22.566  0.00  0.00    -0.004 C 
ATOM     34  C   UNL     1      34.096  -9.888 -24.121  0.00  0.00    -0.004 C 
ATOM     35  C   UNL     1      33.601  -7.617 -22.578  0.00  0.00    -0.000 C 
ATOM     36  C   UNL     1      35.001  -8.826 -24.132  0.00  0.00    -0.000 C 
ATOM     37  C   UNL     1      34.753  -7.690 -23.360  0.00  0.00    -0.000 C 
ENDBRANCH  31  32
ENDBRANCH  26  31
ENDBRANCH  25  26
ENDBRANCH  21  25
ENDBRANCH   1  21
TORSDOF 14
ENDMDL
MODEL 4
REMARK VINA RESULT:      -9.8      3.862      6.657
REMARK  Name = 5492457
REMARK  14 active torsions:
REMARK  status: ('A' for Active; 'I' for Inactive)
REMARK    1  A    between atoms: C_1  and  N_4
REMARK    2  A    between atoms: C_1  and  P_21
REMARK    3  A    between atoms: C_5  and  C_7
REMARK    4  A    between atoms: C_7  and  N_10
REMARK    5  A    between atoms: C_11  and  O_13
REMARK    6  A    between atoms: O_13  and  C_14
REMARK    7  A    between atoms: C_14  and  C_15
REMARK    8  A    between atoms: P_21  and  O_23
REMARK    9  A    between atoms: P_21  and  O_25
REMARK   10  A    between atoms: O_25  and  C_26
REMARK   11  A    between atoms: C_26  and  C_28
REMARK   12  A    between atoms: C_26  and  C_31
REMARK   13  A    between atoms: C_28  and  O_29
REMARK   14  A    between atoms: C_31  and  C_32
REMARK                            x       y       z     vdW  Elec       q    Type
REMARK                         _______ _______ _______ _____ _____    ______ ____
ROOT
ATOM      1  C   UNL     1      35.537 -17.563 -21.876  0.00  0.00    +0.177 C 
ATOM      2  C   UNL     1      36.067 -17.830 -23.277  0.00  0.00    +0.034 C 
ENDROOT
BRANCH   1   4
ATOM      3  O   UNL     1      36.289 -19.925 -20.392  0.00  0.00    -0.273 OA
ATOM      4  N   UNL     1      34.664 -18.643 -21.443  0.00  0.00    -0.295 N 
ATOM      5  C   UNL     1      35.121 -19.743 -20.730  0.00  0.00    +0.241 C 
ATOM      6  H   UNL     1      33.707 -18.591 -21.665  0.00  0.00    +0.150 HD
BRANCH   5   7
ATOM      7  C   UNL     1      33.991 -20.693 -20.361  0.00  0.00    +0.151 C 
ATOM      8  C   UNL     1      32.644 -19.990 -20.440  0.00  0.00    +0.031 C 
BRANCH   7  10
ATOM      9  O   UNL     1      33.979 -23.458 -19.468  0.00  0.00    -0.226 OA
ATOM     10  N   UNL     1      34.244 -21.193 -19.036  0.00  0.00    -0.264 N 
ATOM     11  C   UNL     1      34.218 -22.533 -18.698  0.00  0.00    +0.402 C 
ATOM     12  H   UNL     1      34.449 -20.541 -18.327  0.00  0.00    +0.153 HD
BRANCH  11  13
ATOM     13  O   UNL     1      34.499 -22.683 -17.370  0.00  0.00    -0.430 OA
BRANCH  13  14
ATOM     14  C   UNL     1      33.971 -23.861 -16.750  0.00  0.00    +0.237 C 
BRANCH  14  15
ATOM     15  C   UNL     1      32.728 -23.499 -15.990  0.00  0.00    +0.021 C 
ATOM     16  C   UNL     1      31.555 -23.193 -16.678  0.00  0.00    -0.001 C 
ATOM     17  C   UNL     1      32.747 -23.469 -14.596  0.00  0.00    -0.001 C 
ATOM     18  C   UNL     1      30.399 -22.856 -15.973  0.00  0.00    -0.000 C 
ATOM     19  C   UNL     1      31.592 -23.132 -13.890  0.00  0.00    -0.000 C 
ATOM     20  C   UNL     1      30.418 -22.826 -14.579  0.00  0.00    -0.000 C 
ENDBRANCH  14  15
ENDBRANCH  13  14
ENDBRANCH  11  13
ENDBRANCH   7  10
ENDBRANCH   5   7
ENDBRANCH   1   4
BRANCH   1  21
ATOM     21  P   UNL     1      34.566 -16.066 -21.711  0.00  0.00    +0.358 P 
ATOM     22  O   UNL     1      34.891 -15.250 -20.494  0.00  0.00    -0.256 OA
BRANCH  21  23
ATOM     23  O   UNL     1      33.039 -16.598 -21.769  0.00  0.00    -0.322 OA
ATOM     24  H   UNL     1      32.457 -15.880 -22.062  0.00  0.00    +0.220 HD
ENDBRANCH  21  23
BRANCH  21  25
ATOM     25  O   UNL     1      34.764 -15.310 -23.128  0.00  0.00    -0.284 OA
BRANCH  25  26
ATOM     26  C   UNL     1      33.631 -14.735 -23.754  0.00  0.00    +0.226 C 
BRANCH  26  28
ATOM     27  O   UNL     1      34.074 -16.400 -25.472  0.00  0.00    -0.248 OA
ATOM     28  C   UNL     1      33.476 -15.394 -25.111  0.00  0.00    +0.342 C 
BRANCH  28  29
ATOM     29  O   UNL     1      32.570 -14.751 -25.892  0.00  0.00    -0.479 OA
ATOM     30  H   UNL     1      32.409 -15.049 -26.765  0.00  0.00    +0.295 HD
ENDBRANCH  28  29
ENDBRANCH  26  28
BRANCH  26  31
ATOM     31  C   UNL     1      33.865 -13.231 -23.908  0.00  0.00    +0.068 C 
BRANCH  31  32
ATOM     32  C   UNL     1      32.955 -12.424 -23.013  0.00  0.00    -0.019 C 
ATOM     33  C   UNL     1      32.302 -13.040 -21.945  0.00  0.00    -0.004 C 
ATOM     34  C   UNL     1      32.768 -11.063 -23.254  0.00  0.00    -0.004 C 
ATOM     35  C   UNL     1      31.462 -12.295 -21.118  0.00  0.00    -0.000 C 
ATOM     36  C   UNL     1      31.928 -10.317 -22.426  0.00  0.00    -0.000 C 
ATOM     37  C   UNL     1      31.275 -10.934 -21.358  0.00  0.00    -0.000 C 
ENDBRANCH  31  32
ENDBRANCH  26  31
ENDBRANCH  25  26
ENDBRANCH  21  25
ENDBRANCH   1  21
TORSDOF 14
ENDMDL
MODEL 5
REMARK VINA RESULT:      -9.8      1.615      2.965
REMARK  Name = 5492457
REMARK  14 active torsions:
REMARK  status: ('A' for Active; 'I' for Inactive)
REMARK    1  A    between atoms: C_1  and  N_4
REMARK    2  A    between atoms: C_1  and  P_21
REMARK    3  A    between atoms: C_5  and  C_7
REMARK    4  A    between atoms: C_7  and  N_10
REMARK    5  A    between atoms: C_11  and  O_13
REMARK    6  A    between atoms: O_13  and  C_14
REMARK    7  A    between atoms: C_14  and  C_15
REMARK    8  A    between atoms: P_21  and  O_23
REMARK    9  A    between atoms: P_21  and  O_25
REMARK   10  A    between atoms: O_25  and  C_26
REMARK   11  A    between atoms: C_26  and  C_28
REMARK   12  A    between atoms: C_26  and  C_31
REMARK   13  A    between atoms: C_28  and  O_29
REMARK   14  A    between atoms: C_31  and  C_32
REMARK                            x       y       z     vdW  Elec       q    Type
REMARK                         _______ _______ _______ _____ _____    ______ ____
ROOT
ATOM      1  C   UNL     1      31.293 -10.667 -22.190  0.00  0.00    +0.177 C 
ATOM      2  C   UNL     1      30.827 -11.122 -20.815  0.00  0.00    +0.034 C 
ENDROOT
BRANCH   1   4
ATOM      3  O   UNL     1      32.261 -13.104 -20.979  0.00  0.00    -0.273 OA
ATOM      4  N   UNL     1      32.141 -11.677 -22.805  0.00  0.00    -0.295 N 
ATOM      5  C   UNL     1      32.556 -12.822 -22.138  0.00  0.00    +0.241 C 
ATOM      6  H   UNL     1      32.433 -11.543 -23.735  0.00  0.00    +0.150 HD
BRANCH   5   7
ATOM      7  C   UNL     1      33.390 -13.731 -23.030  0.00  0.00    +0.151 C 
ATOM      8  C   UNL     1      32.813 -13.788 -24.436  0.00  0.00    +0.031 C 
BRANCH   7  10
ATOM      9  O   UNL     1      35.405 -15.795 -23.371  0.00  0.00    -0.226 OA
ATOM     10  N   UNL     1      33.427 -15.035 -22.425  0.00  0.00    -0.264 N 
ATOM     11  C   UNL     1      34.430 -15.960 -22.644  0.00  0.00    +0.402 C 
ATOM     12  H   UNL     1      32.693 -15.284 -21.817  0.00  0.00    +0.153 HD
BRANCH  11  13
ATOM     13  O   UNL     1      34.180 -17.097 -21.929  0.00  0.00    -0.430 OA
BRANCH  13  14
ATOM     14  C   UNL     1      35.261 -18.032 -21.845  0.00  0.00    +0.237 C 
BRANCH  14  15
ATOM     15  C   UNL     1      34.809 -19.233 -21.067  0.00  0.00    +0.021 C 
ATOM     16  C   UNL     1      35.751 -20.096 -20.506  0.00  0.00    -0.001 C 
ATOM     17  C   UNL     1      33.447 -19.488 -20.905  0.00  0.00    -0.001 C 
ATOM     18  C   UNL     1      35.331 -21.212 -19.782  0.00  0.00    -0.000 C 
ATOM     19  C   UNL     1      33.028 -20.604 -20.182  0.00  0.00    -0.000 C 
ATOM     20  C   UNL     1      33.969 -21.467 -19.621  0.00  0.00    -0.000 C 
ENDBRANCH  14  15
ENDBRANCH  13  14
ENDBRANCH  11  13
ENDBRANCH   7  10
ENDBRANCH   5   7
ENDBRANCH   1   4
BRANCH   1  21
ATOM     21  P   UNL     1      32.263  -9.160 -22.197  0.00  0.00    +0.358 P 
ATOM     22  O   UNL     1      33.526  -9.242 -23.003  0.00  0.00    -0.256 OA
BRANCH  21  23
ATOM     23  O   UNL     1      32.493  -8.851 -20.625  0.00  0.00    -0.322 OA
ATOM     24  H   UNL     1      32.604  -9.685 -20.144  0.00  0.00    +0.220 HD
ENDBRANCH  21  23
BRANCH  21  25
ATOM     25  O   UNL     1      31.214  -8.020 -22.664  0.00  0.00    -0.284 OA
BRANCH  25  26
ATOM     26  C   UNL     1      31.697  -6.707 -22.892  0.00  0.00    +0.226 C 
BRANCH  26  28
ATOM     27  O   UNL     1      30.103  -5.139 -21.931  0.00  0.00    -0.248 OA
ATOM     28  C   UNL     1      31.117  -5.815 -21.812  0.00  0.00    +0.342 C 
BRANCH  28  29
ATOM     29  O   UNL     1      31.845  -5.860 -20.666  0.00  0.00    -0.479 OA
ATOM     30  H   UNL     1      31.949  -6.670 -20.209  0.00  0.00    +0.295 HD
ENDBRANCH  28  29
ENDBRANCH  26  28
BRANCH  26  31
ATOM     31  C   UNL     1      31.237  -6.248 -24.277  0.00  0.00    +0.068 C 
BRANCH  31  32
ATOM     32  C   UNL     1      32.393  -5.791 -25.133  0.00  0.00    -0.019 C 
ATOM     33  C   UNL     1      32.216  -4.750 -26.045  0.00  0.00    -0.004 C 
ATOM     34  C   UNL     1      33.637  -6.409 -25.013  0.00  0.00    -0.004 C 
ATOM     35  C   UNL     1      33.284  -4.327 -26.836  0.00  0.00    -0.000 C 
ATOM     36  C   UNL     1      34.706  -5.986 -25.804  0.00  0.00    -0.000 C 
ATOM     37  C   UNL     1      34.528  -4.945 -26.716  0.00  0.00    -0.000 C 
ENDBRANCH  31  32
ENDBRANCH  26  31
ENDBRANCH  25  26
ENDBRANCH  21  25
ENDBRANCH   1  21
TORSDOF 14
ENDMDL
MODEL 6
REMARK VINA RESULT:      -9.7      4.648      7.410
REMARK  Name = 5492457
REMARK  14 active torsions:
REMARK  status: ('A' for Active; 'I' for Inactive)
REMARK    1  A    between atoms: C_1  and  N_4
REMARK    2  A    between atoms: C_1  and  P_21
REMARK    3  A    between atoms: C_5  and  C_7
REMARK    4  A    between atoms: C_7  and  N_10
REMARK    5  A    between atoms: C_11  and  O_13
REMARK    6  A    between atoms: O_13  and  C_14
REMARK    7  A    between atoms: C_14  and  C_15
REMARK    8  A    between atoms: P_21  and  O_23
REMARK    9  A    between atoms: P_21  and  O_25
REMARK   10  A    between atoms: O_25  and  C_26
REMARK   11  A    between atoms: C_26  and  C_28
REMARK   12  A    between atoms: C_26  and  C_31
REMARK   13  A    between atoms: C_28  and  O_29
REMARK   14  A    between atoms: C_31  and  C_32
REMARK                            x       y       z     vdW  Elec       q    Type
REMARK                         _______ _______ _______ _____ _____    ______ ____
ROOT
ATOM      1  C   UNL     1      34.440 -17.536 -21.417  0.00  0.00    +0.177 C 
ATOM      2  C   UNL     1      34.842 -16.241 -20.726  0.00  0.00    +0.034 C 
ENDROOT
BRANCH   1   4
ATOM      3  O   UNL     1      33.089 -20.062 -21.038  0.00  0.00    -0.273 OA
ATOM      4  N   UNL     1      34.924 -18.688 -20.670  0.00  0.00    -0.295 N 
ATOM      5  C   UNL     1      34.198 -19.864 -20.545  0.00  0.00    +0.241 C 
ATOM      6  H   UNL     1      35.805 -18.630 -20.236  0.00  0.00    +0.150 HD
BRANCH   5   7
ATOM      7  C   UNL     1      34.957 -20.922 -19.757  0.00  0.00    +0.151 C 
ATOM      8  C   UNL     1      35.992 -21.612 -20.634  0.00  0.00    +0.031 C 
BRANCH   7  10
ATOM      9  O   UNL     1      35.258 -22.687 -17.468  0.00  0.00    -0.226 OA
ATOM     10  N   UNL     1      34.001 -21.863 -19.237  0.00  0.00    -0.264 N 
ATOM     11  C   UNL     1      34.229 -22.667 -18.136  0.00  0.00    +0.402 C 
ATOM     12  H   UNL     1      33.131 -21.937 -19.693  0.00  0.00    +0.153 HD
BRANCH  11  13
ATOM     13  O   UNL     1      33.133 -23.446 -17.895  0.00  0.00    -0.430 OA
BRANCH  13  14
ATOM     14  C   UNL     1      32.047 -22.803 -17.220  0.00  0.00    +0.237 C 
BRANCH  14  15
ATOM     15  C   UNL     1      31.740 -23.556 -15.958  0.00  0.00    +0.021 C 
ATOM     16  C   UNL     1      32.745 -23.780 -15.018  0.00  0.00    -0.001 C 
ATOM     17  C   UNL     1      30.449 -24.031 -15.727  0.00  0.00    -0.001 C 
ATOM     18  C   UNL     1      32.460 -24.479 -13.845  0.00  0.00    -0.000 C 
ATOM     19  C   UNL     1      30.165 -24.731 -14.554  0.00  0.00    -0.000 C 
ATOM     20  C   UNL     1      31.170 -24.955 -13.613  0.00  0.00    -0.000 C 
ENDBRANCH  14  15
ENDBRANCH  13  14
ENDBRANCH  11  13
ENDBRANCH   7  10
ENDBRANCH   5   7
ENDBRANCH   1   4
BRANCH   1  21
ATOM     21  P   UNL     1      35.086 -17.737 -23.076  0.00  0.00    +0.358 P 
ATOM     22  O   UNL     1      34.303 -18.689 -23.933  0.00  0.00    -0.256 OA
BRANCH  21  23
ATOM     23  O   UNL     1      36.626 -18.169 -22.834  0.00  0.00    -0.322 OA
ATOM     24  H   UNL     1      36.657 -19.068 -22.472  0.00  0.00    +0.220 HD
ENDBRANCH  21  23
BRANCH  21  25
ATOM     25  O   UNL     1      35.195 -16.224 -23.642  0.00  0.00    -0.284 OA
BRANCH  25  26
ATOM     26  C   UNL     1      34.024 -15.601 -24.140  0.00  0.00    +0.226 C 
BRANCH  26  28
ATOM     27  O   UNL     1      32.894 -15.753 -26.289  0.00  0.00    -0.248 OA
ATOM     28  C   UNL     1      33.846 -16.048 -25.577  0.00  0.00    +0.342 C 
BRANCH  28  29
ATOM     29  O   UNL     1      34.884 -16.810 -26.008  0.00  0.00    -0.479 OA
ATOM     30  H   UNL     1      35.239 -17.476 -25.454  0.00  0.00    +0.295 HD
ENDBRANCH  28  29
ENDBRANCH  26  28
BRANCH  26  31
ATOM     31  C   UNL     1      34.206 -14.083 -24.065  0.00  0.00    +0.068 C 
BRANCH  31  32
ATOM     32  C   UNL     1      33.298 -13.456 -23.035  0.00  0.00    -0.019 C 
ATOM     33  C   UNL     1      32.805 -12.166 -23.233  0.00  0.00    -0.004 C 
ATOM     34  C   UNL     1      32.952 -14.166 -21.885  0.00  0.00    -0.004 C 
ATOM     35  C   UNL     1      31.966 -11.587 -22.282  0.00  0.00    -0.000 C 
ATOM     36  C   UNL     1      32.111 -13.586 -20.934  0.00  0.00    -0.000 C 
ATOM     37  C   UNL     1      31.619 -12.296 -21.133  0.00  0.00    -0.000 C 
ENDBRANCH  31  32
ENDBRANCH  26  31
ENDBRANCH  25  26
ENDBRANCH  21  25
ENDBRANCH   1  21
TORSDOF 14
ENDMDL
MODEL 7
REMARK VINA RESULT:      -9.6      1.946      3.409
REMARK  Name = 5492457
REMARK  14 active torsions:
REMARK  status: ('A' for Active; 'I' for Inactive)
REMARK    1  A    between atoms: C_1  and  N_4
REMARK    2  A    between atoms: C_1  and  P_21
REMARK    3  A    between atoms: C_5  and  C_7
REMARK    4  A    between atoms: C_7  and  N_10
REMARK    5  A    between atoms: C_11  and  O_13
REMARK    6  A    between atoms: O_13  and  C_14
REMARK    7  A    between atoms: C_14  and  C_15
REMARK    8  A    between atoms: P_21  and  O_23
REMARK    9  A    between atoms: P_21  and  O_25
REMARK   10  A    between atoms: O_25  and  C_26
REMARK   11  A    between atoms: C_26  and  C_28
REMARK   12  A    between atoms: C_26  and  C_31
REMARK   13  A    between atoms: C_28  and  O_29
REMARK   14  A    between atoms: C_31  and  C_32
REMARK                            x       y       z     vdW  Elec       q    Type
REMARK                         _______ _______ _______ _____ _____    ______ ____
ROOT
ATOM      1  C   UNL     1      33.758 -12.151 -23.263  0.00  0.00    +0.177 C 
ATOM      2  C   UNL     1      33.694 -10.966 -24.216  0.00  0.00    +0.034 C 
ENDROOT
BRANCH   1   4
ATOM      3  O   UNL     1      34.906 -14.605 -22.260  0.00  0.00    -0.273 OA
ATOM      4  N   UNL     1      33.963 -13.390 -23.998  0.00  0.00    -0.295 N 
ATOM      5  C   UNL     1      34.525 -14.523 -23.426  0.00  0.00    +0.241 C 
ATOM      6  H   UNL     1      33.689 -13.427 -24.943  0.00  0.00    +0.150 HD
BRANCH   5   7
ATOM      7  C   UNL     1      34.575 -15.691 -24.402  0.00  0.00    +0.151 C 
ATOM      8  C   UNL     1      33.403 -15.637 -25.370  0.00  0.00    +0.031 C 
BRANCH   7  10
ATOM      9  O   UNL     1      34.661 -18.418 -25.400  0.00  0.00    -0.226 OA
ATOM     10  N   UNL     1      34.568 -16.909 -23.638  0.00  0.00    -0.264 N 
ATOM     11  C   UNL     1      34.612 -18.172 -24.199  0.00  0.00    +0.402 C 
ATOM     12  H   UNL     1      34.531 -16.840 -22.656  0.00  0.00    +0.153 HD
BRANCH  11  13
ATOM     13  O   UNL     1      34.593 -19.119 -23.214  0.00  0.00    -0.430 OA
BRANCH  13  14
ATOM     14  C   UNL     1      34.384 -18.632 -21.884  0.00  0.00    +0.237 C 
BRANCH  14  15
ATOM     15  C   UNL     1      34.457 -19.784 -20.924  0.00  0.00    +0.021 C 
ATOM     16  C   UNL     1      35.695 -20.319 -20.570  0.00  0.00    -0.001 C 
ATOM     17  C   UNL     1      33.286 -20.320 -20.388  0.00  0.00    -0.001 C 
ATOM     18  C   UNL     1      35.764 -21.389 -19.678  0.00  0.00    -0.000 C 
ATOM     19  C   UNL     1      33.355 -21.391 -19.496  0.00  0.00    -0.000 C 
ATOM     20  C   UNL     1      34.593 -21.925 -19.141  0.00  0.00    -0.000 C 
ENDBRANCH  14  15
ENDBRANCH  13  14
ENDBRANCH  11  13
ENDBRANCH   7  10
ENDBRANCH   5   7
ENDBRANCH   1   4
BRANCH   1  21
ATOM     21  P   UNL     1      32.281 -12.413 -22.285  0.00  0.00    +0.358 P 
ATOM     22  O   UNL     1      32.536 -12.989 -20.922  0.00  0.00    -0.256 OA
BRANCH  21  23
ATOM     23  O   UNL     1      31.355 -13.338 -23.237  0.00  0.00    -0.322 OA
ATOM     24  H   UNL     1      31.844 -14.138 -23.485  0.00  0.00    +0.220 HD
ENDBRANCH  21  23
BRANCH  21  25
ATOM     25  O   UNL     1      31.537 -10.976 -22.303  0.00  0.00    -0.284 OA
BRANCH  25  26
ATOM     26  C   UNL     1      32.091  -9.917 -21.542  0.00  0.00    +0.226 C 
BRANCH  26  28
ATOM     27  O   UNL     1      30.609 -10.651 -19.757  0.00  0.00    -0.248 OA
ATOM     28  C   UNL     1      31.651 -10.110 -20.104  0.00  0.00    +0.342 C 
BRANCH  28  29
ATOM     29  O   UNL     1      32.565  -9.629 -19.221  0.00  0.00    -0.479 OA
ATOM     30  H   UNL     1      32.285  -9.300 -18.390  0.00  0.00    +0.295 HD
ENDBRANCH  28  29
ENDBRANCH  26  28
BRANCH  26  31
ATOM     31  C   UNL     1      31.566  -8.590 -22.094  0.00  0.00    +0.068 C 
BRANCH  31  32
ATOM     32  C   UNL     1      32.595  -7.886 -22.945  0.00  0.00    -0.019 C 
ATOM     33  C   UNL     1      33.954  -8.095 -22.712  0.00  0.00    -0.004 C 
ATOM     34  C   UNL     1      32.187  -7.027 -23.965  0.00  0.00    -0.004 C 
ATOM     35  C   UNL     1      34.905  -7.445 -23.498  0.00  0.00    -0.000 C 
ATOM     36  C   UNL     1      33.138  -6.377 -24.752  0.00  0.00    -0.000 C 
ATOM     37  C   UNL     1      34.497  -6.586 -24.518  0.00  0.00    -0.000 C 
ENDBRANCH  31  32
ENDBRANCH  26  31
ENDBRANCH  25  26
ENDBRANCH  21  25
ENDBRANCH   1  21
TORSDOF 14
ENDMDL
MODEL 8
REMARK VINA RESULT:      -9.6      5.532      8.872
REMARK  Name = 5492457
REMARK  14 active torsions:
REMARK  status: ('A' for Active; 'I' for Inactive)
REMARK    1  A    between atoms: C_1  and  N_4
REMARK    2  A    between atoms: C_1  and  P_21
REMARK    3  A    between atoms: C_5  and  C_7
REMARK    4  A    between atoms: C_7  and  N_10
REMARK    5  A    between atoms: C_11  and  O_13
REMARK    6  A    between atoms: O_13  and  C_14
REMARK    7  A    between atoms: C_14  and  C_15
REMARK    8  A    between atoms: P_21  and  O_23
REMARK    9  A    between atoms: P_21  and  O_25
REMARK   10  A    between atoms: O_25  and  C_26
REMARK   11  A    between atoms: C_26  and  C_28
REMARK   12  A    between atoms: C_26  and  C_31
REMARK   13  A    between atoms: C_28  and  O_29
REMARK   14  A    between atoms: C_31  and  C_32
REMARK                            x       y       z     vdW  Elec       q    Type
REMARK                         _______ _______ _______ _____ _____    ______ ____
ROOT
ATOM      1  C   UNL     1      34.974 -20.159 -20.904  0.00  0.00    +0.177 C 
ATOM      2  C   UNL     1      33.504 -19.805 -21.070  0.00  0.00    +0.034 C 
ENDROOT
BRANCH   1   4
ATOM      3  O   UNL     1      34.882 -22.787 -19.708  0.00  0.00    -0.273 OA
ATOM      4  N   UNL     1      35.266 -20.505 -19.521  0.00  0.00    -0.295 N 
ATOM      5  C   UNL     1      35.194 -21.805 -19.038  0.00  0.00    +0.241 C 
ATOM      6  H   UNL     1      35.526 -19.786 -18.902  0.00  0.00    +0.150 HD
BRANCH   5   7
ATOM      7  C   UNL     1      35.598 -21.891 -17.573  0.00  0.00    +0.151 C 
ATOM      8  C   UNL     1      37.089 -22.163 -17.438  0.00  0.00    +0.031 C 
BRANCH   7  10
ATOM      9  O   UNL     1      35.453 -22.573 -14.753  0.00  0.00    -0.226 OA
ATOM     10  N   UNL     1      34.819 -22.931 -16.957  0.00  0.00    -0.264 N 
ATOM     11  C   UNL     1      34.809 -23.187 -15.598  0.00  0.00    +0.402 C 
ATOM     12  H   UNL     1      34.257 -23.494 -17.537  0.00  0.00    +0.153 HD
BRANCH  11  13
ATOM     13  O   UNL     1      33.971 -24.232 -15.327  0.00  0.00    -0.430 OA
BRANCH  13  14
ATOM     14  C   UNL     1      33.071 -24.042 -14.230  0.00  0.00    +0.237 C 
BRANCH  14  15
ATOM     15  C   UNL     1      31.661 -24.098 -14.740  0.00  0.00    +0.021 C 
ATOM     16  C   UNL     1      30.811 -25.125 -14.329  0.00  0.00    -0.001 C 
ATOM     17  C   UNL     1      31.199 -23.124 -15.626  0.00  0.00    -0.001 C 
ATOM     18  C   UNL     1      29.500 -25.179 -14.803  0.00  0.00    -0.000 C 
ATOM     19  C   UNL     1      29.888 -23.177 -16.099  0.00  0.00    -0.000 C 
ATOM     20  C   UNL     1      29.039 -24.204 -15.688  0.00  0.00    -0.000 C 
ENDBRANCH  14  15
ENDBRANCH  13  14
ENDBRANCH  11  13
ENDBRANCH   7  10
ENDBRANCH   5   7
ENDBRANCH   1   4
BRANCH   1  21
ATOM     21  P   UNL     1      36.118 -18.843 -21.319  0.00  0.00    +0.358 P 
ATOM     22  O   UNL     1      37.537 -19.106 -20.909  0.00  0.00    -0.256 OA
BRANCH  21  23
ATOM     23  O   UNL     1      35.456 -17.536 -20.632  0.00  0.00    -0.322 OA
ATOM     24  H   UNL     1      36.114 -17.098 -20.069  0.00  0.00    +0.220 HD
ENDBRANCH  21  23
BRANCH  21  25
ATOM     25  O   UNL     1      35.885 -18.605 -22.903  0.00  0.00    -0.284 OA
BRANCH  25  26
ATOM     26  C   UNL     1      34.813 -17.774 -23.313  0.00  0.00    +0.226 C 
BRANCH  26  28
ATOM     27  O   UNL     1      33.847 -17.552 -25.535  0.00  0.00    -0.248 OA
ATOM     28  C   UNL     1      34.355 -18.259 -24.674  0.00  0.00    +0.342 C 
BRANCH  28  29
ATOM     29  O   UNL     1      34.591 -19.585 -24.850  0.00  0.00    -0.479 OA
ATOM     30  H   UNL     1      35.468 -19.896 -24.952  0.00  0.00    +0.295 HD
ENDBRANCH  28  29
ENDBRANCH  26  28
BRANCH  26  31
ATOM     31  C   UNL     1      35.315 -16.330 -23.395  0.00  0.00    +0.068 C 
BRANCH  31  32
ATOM     32  C   UNL     1      34.264 -15.341 -22.950  0.00  0.00    -0.019 C 
ATOM     33  C   UNL     1      33.439 -15.642 -21.866  0.00  0.00    -0.004 C 
ATOM     34  C   UNL     1      34.119 -14.128 -23.622  0.00  0.00    -0.004 C 
ATOM     35  C   UNL     1      32.468 -14.729 -21.455  0.00  0.00    -0.000 C 
ATOM     36  C   UNL     1      33.149 -13.214 -23.210  0.00  0.00    -0.000 C 
ATOM     37  C   UNL     1      32.323 -13.515 -22.126  0.00  0.00    -0.000 C 
ENDBRANCH  31  32
ENDBRANCH  26  31
ENDBRANCH  25  26
ENDBRANCH  21  25
ENDBRANCH   1  21
TORSDOF 14
ENDMDL
MODEL 9
REMARK VINA RESULT:      -9.6      2.094     11.228
REMARK  Name = 5492457
REMARK  14 active torsions:
REMARK  status: ('A' for Active; 'I' for Inactive)
REMARK    1  A    between atoms: C_1  and  N_4
REMARK    2  A    between atoms: C_1  and  P_21
REMARK    3  A    between atoms: C_5  and  C_7
REMARK    4  A    between atoms: C_7  and  N_10
REMARK    5  A    between atoms: C_11  and  O_13
REMARK    6  A    between atoms: O_13  and  C_14
REMARK    7  A    between atoms: C_14  and  C_15
REMARK    8  A    between atoms: P_21  and  O_23
REMARK    9  A    between atoms: P_21  and  O_25
REMARK   10  A    between atoms: O_25  and  C_26
REMARK   11  A    between atoms: C_26  and  C_28
REMARK   12  A    between atoms: C_26  and  C_31
REMARK   13  A    between atoms: C_28  and  O_29
REMARK   14  A    between atoms: C_31  and  C_32
REMARK                            x       y       z     vdW  Elec       q    Type
REMARK                         _______ _______ _______ _____ _____    ______ ____
ROOT
ATOM      1  C   UNL     1      32.905 -15.134 -20.770  0.00  0.00    +0.177 C 
ATOM      2  C   UNL     1      31.659 -15.988 -20.586  0.00  0.00    +0.034 C 
ENDROOT
BRANCH   1   4
ATOM      3  O   UNL     1      31.982 -12.399 -20.648  0.00  0.00    -0.273 OA
ATOM      4  N   UNL     1      32.737 -14.213 -21.884  0.00  0.00    -0.295 N 
ATOM      5  C   UNL     1      32.285 -12.910 -21.724  0.00  0.00    +0.241 C 
ATOM      6  H   UNL     1      32.953 -14.528 -22.791  0.00  0.00    +0.150 HD
BRANCH   5   7
ATOM      7  C   UNL     1      32.251 -12.152 -23.043  0.00  0.00    +0.151 C 
ATOM      8  C   UNL     1      33.168 -12.804 -24.067  0.00  0.00    +0.031 C 
BRANCH   7  10
ATOM      9  O   UNL     1      30.519  -9.863 -22.594  0.00  0.00    -0.226 OA
ATOM     10  N   UNL     1      32.638 -10.791 -22.785  0.00  0.00    -0.264 N 
ATOM     11  C   UNL     1      31.741  -9.758 -22.581  0.00  0.00    +0.402 C 
ATOM     12  H   UNL     1      33.599 -10.582 -22.750  0.00  0.00    +0.153 HD
BRANCH  11  13
ATOM     13  O   UNL     1      32.418  -8.592 -22.361  0.00  0.00    -0.430 OA
BRANCH  13  14
ATOM     14  C   UNL     1      33.623  -8.418 -23.114  0.00  0.00    +0.237 C 
BRANCH  14  15
ATOM     15  C   UNL     1      33.445  -7.267 -24.062  0.00  0.00    +0.021 C 
ATOM     16  C   UNL     1      34.520  -6.827 -24.833  0.00  0.00    -0.001 C 
ATOM     17  C   UNL     1      32.204  -6.639 -24.171  0.00  0.00    -0.001 C 
ATOM     18  C   UNL     1      34.355  -5.758 -25.714  0.00  0.00    -0.000 C 
ATOM     19  C   UNL     1      32.039  -5.571 -25.052  0.00  0.00    -0.000 C 
ATOM     20  C   UNL     1      33.114  -5.130 -25.823  0.00  0.00    -0.000 C 
ENDBRANCH  14  15
ENDBRANCH  13  14
ENDBRANCH  11  13
ENDBRANCH   7  10
ENDBRANCH   5   7
ENDBRANCH   1   4
BRANCH   1  21
ATOM     21  P   UNL     1      34.401 -16.052 -21.131  0.00  0.00    +0.358 P 
ATOM     22  O   UNL     1      35.322 -16.218 -19.958  0.00  0.00    -0.256 OA
BRANCH  21  23
ATOM     23  O   UNL     1      35.047 -15.248 -22.378  0.00  0.00    -0.322 OA
ATOM     24  H   UNL     1      34.484 -15.357 -23.160  0.00  0.00    +0.220 HD
ENDBRANCH  21  23
BRANCH  21  25
ATOM     25  O   UNL     1      33.868 -17.428 -21.795  0.00  0.00    -0.284 OA
BRANCH  25  26
ATOM     26  C   UNL     1      34.702 -18.572 -21.746  0.00  0.00    +0.226 C 
BRANCH  26  28
ATOM     27  O   UNL     1      34.918 -19.084 -24.115  0.00  0.00    -0.248 OA
ATOM     28  C   UNL     1      35.420 -18.670 -23.078  0.00  0.00    +0.342 C 
BRANCH  28  29
ATOM     29  O   UNL     1      36.700 -18.222 -23.003  0.00  0.00    -0.479 OA
ATOM     30  H   UNL     1      36.969 -17.693 -22.278  0.00  0.00    +0.295 HD
ENDBRANCH  28  29
ENDBRANCH  26  28
BRANCH  26  31
ATOM     31  C   UNL     1      33.829 -19.807 -21.511  0.00  0.00    +0.068 C 
BRANCH  31  32
ATOM     32  C   UNL     1      34.343 -20.653 -20.371  0.00  0.00    -0.019 C 
ATOM     33  C   UNL     1      35.704 -20.654 -20.062  0.00  0.00    -0.004 C 
ATOM     34  C   UNL     1      33.459 -21.433 -19.627  0.00  0.00    -0.004 C 
ATOM     35  C   UNL     1      36.179 -21.436 -19.010  0.00  0.00    -0.000 C 
ATOM     36  C   UNL     1      33.934 -22.214 -18.573  0.00  0.00    -0.000 C 
ATOM     37  C   UNL     1      35.295 -22.215 -18.265  0.00  0.00    -0.000 C 
ENDBRANCH  31  32
ENDBRANCH  26  31
ENDBRANCH  25  26
ENDBRANCH  21  25
ENDBRANCH   1  21
TORSDOF 14
ENDMDL
