MODEL 1
REMARK VINA RESULT:      -9.7      0.000      0.000
REMARK  Name = 5494439
REMARK  13 active torsions:
REMARK  status: ('A' for Active; 'I' for Inactive)
REMARK    1  A    between atoms: C_3  and  C_10
REMARK    2  A    between atoms: C_7  and  C_24
REMARK    3  A    between atoms: N_9  and  C_12
REMARK    4  A    between atoms: C_12  and  C_13
REMARK    5  A    between atoms: C_13  and  C_14
REMARK    6  A    between atoms: C_14  and  C_15
REMARK    7  A    between atoms: C_15  and  N_16
REMARK    8  A    between atoms: N_16  and  C_19
REMARK    9  A    between atoms: C_24  and  N_26
REMARK   10  A    between atoms: C_24  and  C_38
REMARK   11  A    between atoms: C_27  and  C_29
REMARK   12  A    between atoms: C_34  and  N_37
REMARK   13  A    between atoms: C_38  and  C_39
REMARK                            x       y       z     vdW  Elec       q    Type
REMARK                         _______ _______ _______ _____ _____    ______ ____
ROOT
ATOM      1  O   UNL     1      35.215 -15.994 -21.307  0.00  0.00    -0.273 OA
ATOM      2  N   UNL     1      34.339 -15.288 -23.330  0.00  0.00    -0.272 N 
ATOM      3  C   UNL     1      34.067 -13.916 -22.923  0.00  0.00    +0.152 C 
ATOM      4  C   UNL     1      33.823 -13.167 -24.229  0.00  0.00    +0.031 C 
ATOM      5  C   UNL     1      33.262 -14.242 -25.156  0.00  0.00    +0.024 C 
ATOM      6  C   UNL     1      34.022 -15.492 -24.741  0.00  0.00    +0.094 C 
ATOM      7  C   UNL     1      34.964 -16.202 -22.496  0.00  0.00    +0.244 C 
ENDROOT
BRANCH   3  10
ATOM      8  O   UNL     1      32.162 -14.960 -21.933  0.00  0.00    -0.273 OA
ATOM      9  N   UNL     1      32.583 -12.717 -21.477  0.00  0.00    -0.303 N 
ATOM     10  C   UNL     1      32.841 -13.944 -22.061  0.00  0.00    +0.241 C 
ATOM     11  H   UNL     1      33.204 -11.973 -21.654  0.00  0.00    +0.149 HD
BRANCH   9  12
ATOM     12  C   UNL     1      31.447 -12.473 -20.617  0.00  0.00    +0.090 C 
BRANCH  12  13
ATOM     13  C   UNL     1      30.913 -11.049 -20.749  0.00  0.00    +0.023 C 
BRANCH  13  14
ATOM     14  C   UNL     1      31.212 -10.435 -22.122  0.00  0.00    +0.028 C 
BRANCH  14  15
ATOM     15  C   UNL     1      32.264  -9.333 -22.048  0.00  0.00    +0.129 C 
BRANCH  15  16
ATOM     16  N   UNL     1      31.622  -8.052 -21.751  0.00  0.00    -0.240 NA
BRANCH  16  19
ATOM     17  N   UNL     1      32.051  -5.943 -20.891  0.00  0.00    -0.370 N 
ATOM     18  N   UNL     1      32.957  -7.717 -19.783  0.00  0.00    -0.370 N 
ATOM     19  C   UNL     1      32.187  -7.310 -20.850  0.00  0.00    +0.189 C 
ATOM     20  H   UNL     1      31.522  -5.522 -21.607  0.00  0.00    +0.159 HD
ATOM     21  H   UNL     1      32.481  -5.384 -20.204  0.00  0.00    +0.159 HD
ATOM     22  H   UNL     1      33.133  -8.674 -19.639  0.00  0.00    +0.159 HD
ATOM     23  H   UNL     1      33.332  -7.049 -19.165  0.00  0.00    +0.159 HD
ENDBRANCH  16  19
ENDBRANCH  15  16
ENDBRANCH  14  15
ENDBRANCH  13  14
ENDBRANCH  12  13
ENDBRANCH   9  12
ENDBRANCH   3  10
BRANCH   7  24
ATOM     24  C   UNL     1      35.327 -17.519 -23.131  0.00  0.00    +0.149 C 
BRANCH  24  26
ATOM     25  O   UNL     1      36.958 -19.082 -21.360  0.00  0.00    -0.270 OA
ATOM     26  N   UNL     1      34.871 -18.488 -22.179  0.00  0.00    -0.295 N 
ATOM     27  C   UNL     1      35.737 -19.203 -21.356  0.00  0.00    +0.246 C 
ATOM     28  H   UNL     1      33.903 -18.655 -22.103  0.00  0.00    +0.150 HD
BRANCH  27  29
ATOM     29  C   UNL     1      35.108 -20.190 -20.440  0.00  0.00    +0.053 C 
ATOM     30  C   UNL     1      35.907 -21.014 -19.647  0.00  0.00    +0.006 C 
ATOM     31  C   UNL     1      33.719 -20.293 -20.373  0.00  0.00    +0.006 C 
ATOM     32  C   UNL     1      35.316 -21.940 -18.788  0.00  0.00    +0.024 C 
ATOM     33  C   UNL     1      33.128 -21.219 -19.514  0.00  0.00    +0.024 C 
ATOM     34  C   UNL     1      33.926 -22.043 -18.722  0.00  0.00    +0.143 C 
BRANCH  34  37
ATOM     35  O   UNL     1      34.039 -23.886 -17.340  0.00  0.00    -0.126 OA
ATOM     36  O   UNL     1      32.098 -22.892 -17.602  0.00  0.00    -0.126 OA
ATOM     37  N   UNL     1      33.325 -22.986 -17.846  0.00  0.00    +0.058 N 
ENDBRANCH  34  37
ENDBRANCH  27  29
ENDBRANCH  24  26
BRANCH  24  38
ATOM     38  C   UNL     1      34.657 -17.651 -24.493  0.00  0.00    +0.029 C 
BRANCH  38  39
ATOM     39  C   UNL     1      34.000 -19.024 -24.744  0.00  0.00    +0.002 C 
ATOM     40  C   UNL     1      32.900 -18.886 -25.802  0.00  0.00    +0.000 C 
ATOM     41  C   UNL     1      35.011 -20.082 -25.189  0.00  0.00    +0.000 C 
ENDBRANCH  38  39
ENDBRANCH  24  38
ENDBRANCH   7  24
TORSDOF 13
ENDMDL
MODEL 2
REMARK VINA RESULT:      -9.5      2.457      4.562
REMARK  Name = 5494439
REMARK  13 active torsions:
REMARK  status: ('A' for Active; 'I' for Inactive)
REMARK    1  A    between atoms: C_3  and  C_10
REMARK    2  A    between atoms: C_7  and  C_24
REMARK    3  A    between atoms: N_9  and  C_12
REMARK    4  A    between atoms: C_12  and  C_13
REMARK    5  A    between atoms: C_13  and  C_14
REMARK    6  A    between atoms: C_14  and  C_15
REMARK    7  A    between atoms: C_15  and  N_16
REMARK    8  A    between atoms: N_16  and  C_19
REMARK    9  A    between atoms: C_24  and  N_26
REMARK   10  A    between atoms: C_24  and  C_38
REMARK   11  A    between atoms: C_27  and  C_29
REMARK   12  A    between atoms: C_34  and  N_37
REMARK   13  A    between atoms: C_38  and  C_39
REMARK                            x       y       z     vdW  Elec       q    Type
REMARK                         _______ _______ _______ _____ _____    ______ ____
ROOT
ATOM      1  O   UNL     1      32.965 -12.791 -22.861  0.00  0.00    -0.273 OA
ATOM      2  N   UNL     1      34.071 -11.438 -24.379  0.00  0.00    -0.272 N 
ATOM      3  C   UNL     1      34.104 -10.244 -23.544  0.00  0.00    +0.152 C 
ATOM      4  C   UNL     1      35.123  -9.331 -24.216  0.00  0.00    +0.031 C 
ATOM      5  C   UNL     1      35.034  -9.722 -25.689  0.00  0.00    +0.024 C 
ATOM      6  C   UNL     1      34.780 -11.221 -25.638  0.00  0.00    +0.094 C 
ATOM      7  C   UNL     1      33.560 -12.645 -23.931  0.00  0.00    +0.244 C 
ENDROOT
BRANCH   3  10
ATOM      8  O   UNL     1      31.720 -10.350 -23.498  0.00  0.00    -0.273 OA
ATOM      9  N   UNL     1      32.753  -8.273 -23.684  0.00  0.00    -0.303 N 
ATOM     10  C   UNL     1      32.728  -9.651 -23.564  0.00  0.00    +0.241 C 
ATOM     11  H   UNL     1      33.627  -7.822 -23.727  0.00  0.00    +0.149 HD
BRANCH   9  12
ATOM     12  C   UNL     1      31.558  -7.462 -23.748  0.00  0.00    +0.090 C 
BRANCH  12  13
ATOM     13  C   UNL     1      31.238  -6.790 -22.416  0.00  0.00    +0.023 C 
BRANCH  13  14
ATOM     14  C   UNL     1      32.468  -6.673 -21.508  0.00  0.00    +0.028 C 
BRANCH  14  15
ATOM     15  C   UNL     1      32.365  -7.563 -20.273  0.00  0.00    +0.129 C 
BRANCH  15  16
ATOM     16  N   UNL     1      31.537  -8.733 -20.571  0.00  0.00    -0.240 NA
BRANCH  16  19
ATOM     17  N   UNL     1      32.564  -9.839 -18.812  0.00  0.00    -0.370 N 
ATOM     18  N   UNL     1      31.628 -11.129 -20.442  0.00  0.00    -0.370 N 
ATOM     19  C   UNL     1      31.875  -9.847 -20.002  0.00  0.00    +0.189 C 
ATOM     20  H   UNL     1      32.804  -8.983 -18.388  0.00  0.00    +0.159 HD
ATOM     21  H   UNL     1      32.818 -10.688 -18.384  0.00  0.00    +0.159 HD
ATOM     22  H   UNL     1      31.141 -11.275 -21.284  0.00  0.00    +0.159 HD
ATOM     23  H   UNL     1      31.940 -11.899 -19.913  0.00  0.00    +0.159 HD
ENDBRANCH  16  19
ENDBRANCH  15  16
ENDBRANCH  14  15
ENDBRANCH  13  14
ENDBRANCH  12  13
ENDBRANCH   9  12
ENDBRANCH   3  10
BRANCH   7  24
ATOM     24  C   UNL     1      33.761 -13.819 -24.854  0.00  0.00    +0.149 C 
BRANCH  24  26
ATOM     25  O   UNL     1      34.667 -16.442 -25.589  0.00  0.00    -0.270 OA
ATOM     26  N   UNL     1      34.075 -14.897 -23.964  0.00  0.00    -0.295 N 
ATOM     27  C   UNL     1      34.510 -16.142 -24.409  0.00  0.00    +0.246 C 
ATOM     28  H   UNL     1      33.979 -14.751 -22.994  0.00  0.00    +0.150 HD
BRANCH  27  29
ATOM     29  C   UNL     1      34.770 -17.162 -23.360  0.00  0.00    +0.053 C 
ATOM     30  C   UNL     1      34.762 -18.518 -23.688  0.00  0.00    +0.006 C 
ATOM     31  C   UNL     1      35.019 -16.764 -22.047  0.00  0.00    +0.006 C 
ATOM     32  C   UNL     1      35.005 -19.475 -22.703  0.00  0.00    +0.024 C 
ATOM     33  C   UNL     1      35.263 -17.720 -21.062  0.00  0.00    +0.024 C 
ATOM     34  C   UNL     1      35.255 -19.076 -21.389  0.00  0.00    +0.143 C 
BRANCH  34  37
ATOM     35  O   UNL     1      36.634 -20.087 -19.842  0.00  0.00    -0.126 OA
ATOM     36  O   UNL     1      34.587 -20.847 -20.073  0.00  0.00    -0.126 OA
ATOM     37  N   UNL     1      35.504 -20.050 -20.387  0.00  0.00    +0.058 N 
ENDBRANCH  34  37
ENDBRANCH  27  29
ENDBRANCH  24  26
BRANCH  24  38
ATOM     38  C   UNL     1      32.503 -14.065 -25.678  0.00  0.00    +0.029 C 
BRANCH  38  39
ATOM     39  C   UNL     1      32.667 -13.777 -27.184  0.00  0.00    +0.002 C 
ATOM     40  C   UNL     1      31.919 -12.491 -27.550  0.00  0.00    +0.000 C 
ATOM     41  C   UNL     1      34.134 -13.655 -27.599  0.00  0.00    +0.000 C 
ENDBRANCH  38  39
ENDBRANCH  24  38
ENDBRANCH   7  24
TORSDOF 13
ENDMDL
MODEL 3
REMARK VINA RESULT:      -9.4      2.784     10.265
REMARK  Name = 5494439
REMARK  13 active torsions:
REMARK  status: ('A' for Active; 'I' for Inactive)
REMARK    1  A    between atoms: C_3  and  C_10
REMARK    2  A    between atoms: C_7  and  C_24
REMARK    3  A    between atoms: N_9  and  C_12
REMARK    4  A    between atoms: C_12  and  C_13
REMARK    5  A    between atoms: C_13  and  C_14
REMARK    6  A    between atoms: C_14  and  C_15
REMARK    7  A    between atoms: C_15  and  N_16
REMARK    8  A    between atoms: N_16  and  C_19
REMARK    9  A    between atoms: C_24  and  N_26
REMARK   10  A    between atoms: C_24  and  C_38
REMARK   11  A    between atoms: C_27  and  C_29
REMARK   12  A    between atoms: C_34  and  N_37
REMARK   13  A    between atoms: C_38  and  C_39
REMARK                            x       y       z     vdW  Elec       q    Type
REMARK                         _______ _______ _______ _____ _____    ______ ____
ROOT
ATOM      1  O   UNL     1      35.369 -14.890 -23.990  0.00  0.00    -0.273 OA
ATOM      2  N   UNL     1      33.712 -15.014 -22.378  0.00  0.00    -0.272 N 
ATOM      3  C   UNL     1      34.515 -15.688 -21.366  0.00  0.00    +0.152 C 
ATOM      4  C   UNL     1      33.716 -15.536 -20.075  0.00  0.00    +0.031 C 
ATOM      5  C   UNL     1      32.270 -15.462 -20.559  0.00  0.00    +0.024 C 
ATOM      6  C   UNL     1      32.379 -14.699 -21.870  0.00  0.00    +0.094 C 
ATOM      7  C   UNL     1      34.237 -14.604 -23.593  0.00  0.00    +0.244 C 
ENDROOT
BRANCH   3  10
ATOM      8  O   UNL     1      34.163 -17.535 -22.836  0.00  0.00    -0.273 OA
ATOM      9  N   UNL     1      35.303 -17.886 -20.838  0.00  0.00    -0.303 N 
ATOM     10  C   UNL     1      34.635 -17.123 -21.780  0.00  0.00    +0.241 C 
ATOM     11  H   UNL     1      35.639 -17.440 -20.026  0.00  0.00    +0.149 HD
BRANCH   9  12
ATOM     12  C   UNL     1      35.533 -19.305 -20.987  0.00  0.00    +0.090 C 
BRANCH  12  13
ATOM     13  C   UNL     1      36.748 -19.784 -20.199  0.00  0.00    +0.023 C 
BRANCH  13  14
ATOM     14  C   UNL     1      36.710 -21.291 -19.920  0.00  0.00    +0.028 C 
BRANCH  14  15
ATOM     15  C   UNL     1      35.793 -21.643 -18.754  0.00  0.00    +0.129 C 
BRANCH  15  16
ATOM     16  N   UNL     1      34.701 -22.499 -19.220  0.00  0.00    -0.240 NA
BRANCH  16  19
ATOM     17  N   UNL     1      32.689 -22.705 -18.089  0.00  0.00    -0.370 N 
ATOM     18  N   UNL     1      32.855 -21.012 -19.606  0.00  0.00    -0.370 N 
ATOM     19  C   UNL     1      33.495 -22.075 -19.008  0.00  0.00    +0.189 C 
ATOM     20  H   UNL     1      33.028 -23.483 -17.588  0.00  0.00    +0.159 HD
ATOM     21  H   UNL     1      31.774 -22.378 -17.930  0.00  0.00    +0.159 HD
ATOM     22  H   UNL     1      33.323 -20.475 -20.286  0.00  0.00    +0.159 HD
ATOM     23  H   UNL     1      31.930 -20.790 -19.355  0.00  0.00    +0.159 HD
ENDBRANCH  16  19
ENDBRANCH  15  16
ENDBRANCH  14  15
ENDBRANCH  13  14
ENDBRANCH  12  13
ENDBRANCH   9  12
ENDBRANCH   3  10
BRANCH   7  24
ATOM     24  C   UNL     1      33.320 -13.769 -24.449  0.00  0.00    +0.149 C 
BRANCH  24  26
ATOM     25  O   UNL     1      33.806 -11.059 -25.264  0.00  0.00    -0.270 OA
ATOM     26  N   UNL     1      33.111 -12.589 -23.664  0.00  0.00    -0.295 N 
ATOM     27  C   UNL     1      33.374 -11.308 -24.142  0.00  0.00    +0.246 C 
ATOM     28  H   UNL     1      32.765 -12.687 -22.747  0.00  0.00    +0.150 HD
BRANCH  27  29
ATOM     29  C   UNL     1      33.129 -10.189 -23.195  0.00  0.00    +0.053 C 
ATOM     30  C   UNL     1      33.819  -8.986 -23.342  0.00  0.00    +0.006 C 
ATOM     31  C   UNL     1      32.208 -10.343 -22.159  0.00  0.00    +0.006 C 
ATOM     32  C   UNL     1      33.589  -7.937 -22.452  0.00  0.00    +0.024 C 
ATOM     33  C   UNL     1      31.977  -9.293 -21.269  0.00  0.00    +0.024 C 
ATOM     34  C   UNL     1      32.667  -8.091 -21.416  0.00  0.00    +0.143 C 
BRANCH  34  37
ATOM     35  O   UNL     1      33.014  -7.028 -19.399  0.00  0.00    -0.126 OA
ATOM     36  O   UNL     1      31.649  -6.102 -20.848  0.00  0.00    -0.126 OA
ATOM     37  N   UNL     1      32.432  -7.022 -20.511  0.00  0.00    +0.058 N 
ENDBRANCH  34  37
ENDBRANCH  27  29
ENDBRANCH  24  26
BRANCH  24  38
ATOM     38  C   UNL     1      33.969 -13.488 -25.799  0.00  0.00    +0.029 C 
BRANCH  38  39
ATOM     39  C   UNL     1      33.217 -14.096 -27.001  0.00  0.00    +0.002 C 
ATOM     40  C   UNL     1      32.643 -15.462 -26.614  0.00  0.00    +0.000 C 
ATOM     41  C   UNL     1      32.093 -13.189 -27.505  0.00  0.00    +0.000 C 
ENDBRANCH  38  39
ENDBRANCH  24  38
ENDBRANCH   7  24
TORSDOF 13
ENDMDL
MODEL 4
REMARK VINA RESULT:      -9.4      4.358     12.007
REMARK  Name = 5494439
REMARK  13 active torsions:
REMARK  status: ('A' for Active; 'I' for Inactive)
REMARK    1  A    between atoms: C_3  and  C_10
REMARK    2  A    between atoms: C_7  and  C_24
REMARK    3  A    between atoms: N_9  and  C_12
REMARK    4  A    between atoms: C_12  and  C_13
REMARK    5  A    between atoms: C_13  and  C_14
REMARK    6  A    between atoms: C_14  and  C_15
REMARK    7  A    between atoms: C_15  and  N_16
REMARK    8  A    between atoms: N_16  and  C_19
REMARK    9  A    between atoms: C_24  and  N_26
REMARK   10  A    between atoms: C_24  and  C_38
REMARK   11  A    between atoms: C_27  and  C_29
REMARK   12  A    between atoms: C_34  and  N_37
REMARK   13  A    between atoms: C_38  and  C_39
REMARK                            x       y       z     vdW  Elec       q    Type
REMARK                         _______ _______ _______ _____ _____    ______ ____
ROOT
ATOM      1  O   UNL     1      31.336 -11.469 -23.137  0.00  0.00    -0.273 OA
ATOM      2  N   UNL     1      33.379 -10.757 -23.960  0.00  0.00    -0.272 N 
ATOM      3  C   UNL     1      33.380 -11.596 -25.151  0.00  0.00    +0.152 C 
ATOM      4  C   UNL     1      34.476 -11.011 -26.035  0.00  0.00    +0.031 C 
ATOM      5  C   UNL     1      35.456 -10.407 -25.033  0.00  0.00    +0.024 C 
ATOM      6  C   UNL     1      34.550  -9.884 -23.930  0.00  0.00    +0.094 C 
ATOM      7  C   UNL     1      32.309 -10.714 -23.081  0.00  0.00    +0.244 C 
ENDROOT
BRANCH   3  10
ATOM      8  O   UNL     1      33.707 -13.935 -25.496  0.00  0.00    -0.273 OA
ATOM      9  N   UNL     1      33.972 -13.063 -23.354  0.00  0.00    -0.303 N 
ATOM     10  C   UNL     1      33.706 -12.991 -24.711  0.00  0.00    +0.241 C 
ATOM     11  H   UNL     1      33.942 -12.232 -22.826  0.00  0.00    +0.149 HD
BRANCH   9  12
ATOM     12  C   UNL     1      34.293 -14.298 -22.676  0.00  0.00    +0.090 C 
BRANCH  12  13
ATOM     13  C   UNL     1      33.047 -15.038 -22.196  0.00  0.00    +0.023 C 
BRANCH  13  14
ATOM     14  C   UNL     1      33.361 -16.068 -21.104  0.00  0.00    +0.028 C 
BRANCH  14  15
ATOM     15  C   UNL     1      34.851 -16.139 -20.784  0.00  0.00    +0.129 C 
BRANCH  15  16
ATOM     16  N   UNL     1      35.299 -17.532 -20.804  0.00  0.00    -0.240 NA
BRANCH  16  19
ATOM     17  N   UNL     1      34.724 -19.322 -22.158  0.00  0.00    -0.370 N 
ATOM     18  N   UNL     1      35.973 -17.667 -23.105  0.00  0.00    -0.370 N 
ATOM     19  C   UNL     1      35.347 -18.113 -21.962  0.00  0.00    +0.189 C 
ATOM     20  H   UNL     1      34.237 -19.752 -21.417  0.00  0.00    +0.159 HD
ATOM     21  H   UNL     1      34.763 -19.759 -23.040  0.00  0.00    +0.159 HD
ATOM     22  H   UNL     1      36.459 -16.811 -23.098  0.00  0.00    +0.159 HD
ATOM     23  H   UNL     1      35.936 -18.206 -23.928  0.00  0.00    +0.159 HD
ENDBRANCH  16  19
ENDBRANCH  15  16
ENDBRANCH  14  15
ENDBRANCH  13  14
ENDBRANCH  12  13
ENDBRANCH   9  12
ENDBRANCH   3  10
BRANCH   7  24
ATOM     24  C   UNL     1      32.397  -9.667 -22.000  0.00  0.00    +0.149 C 
BRANCH  24  26
ATOM     25  O   UNL     1      33.107  -7.005 -21.194  0.00  0.00    -0.270 OA
ATOM     26  N   UNL     1      32.073  -8.450 -22.684  0.00  0.00    -0.295 N 
ATOM     27  C   UNL     1      32.460  -7.196 -22.220  0.00  0.00    +0.246 C 
ATOM     28  H   UNL     1      31.553  -8.503 -23.520  0.00  0.00    +0.150 HD
BRANCH  27  29
ATOM     29  C   UNL     1      32.023  -6.030 -23.031  0.00  0.00    +0.053 C 
ATOM     30  C   UNL     1      31.376  -4.957 -22.418  0.00  0.00    +0.006 C 
ATOM     31  C   UNL     1      32.258  -6.010 -24.405  0.00  0.00    +0.006 C 
ATOM     32  C   UNL     1      30.965  -3.864 -23.179  0.00  0.00    +0.024 C 
ATOM     33  C   UNL     1      31.848  -4.916 -25.167  0.00  0.00    +0.024 C 
ATOM     34  C   UNL     1      31.201  -3.843 -24.554  0.00  0.00    +0.143 C 
BRANCH  34  37
ATOM     35  O   UNL     1      29.753  -2.100 -24.983  0.00  0.00    -0.126 OA
ATOM     36  O   UNL     1      31.456  -2.404 -26.337  0.00  0.00    -0.126 OA
ATOM     37  N   UNL     1      30.783  -2.729 -25.329  0.00  0.00    +0.058 N 
ENDBRANCH  34  37
ENDBRANCH  27  29
ENDBRANCH  24  26
BRANCH  24  38
ATOM     38  C   UNL     1      31.434  -9.996 -20.867  0.00  0.00    +0.029 C 
BRANCH  38  39
ATOM     39  C   UNL     1      32.038 -10.886 -19.762  0.00  0.00    +0.002 C 
ATOM     40  C   UNL     1      31.342 -10.600 -18.428  0.00  0.00    +0.000 C 
ATOM     41  C   UNL     1      31.930 -12.376 -20.089  0.00  0.00    +0.000 C 
ENDBRANCH  38  39
ENDBRANCH  24  38
ENDBRANCH   7  24
TORSDOF 13
ENDMDL
MODEL 5
REMARK VINA RESULT:      -9.1      4.743     12.575
REMARK  Name = 5494439
REMARK  13 active torsions:
REMARK  status: ('A' for Active; 'I' for Inactive)
REMARK    1  A    between atoms: C_3  and  C_10
REMARK    2  A    between atoms: C_7  and  C_24
REMARK    3  A    between atoms: N_9  and  C_12
REMARK    4  A    between atoms: C_12  and  C_13
REMARK    5  A    between atoms: C_13  and  C_14
REMARK    6  A    between atoms: C_14  and  C_15
REMARK    7  A    between atoms: C_15  and  N_16
REMARK    8  A    between atoms: N_16  and  C_19
REMARK    9  A    between atoms: C_24  and  N_26
REMARK   10  A    between atoms: C_24  and  C_38
REMARK   11  A    between atoms: C_27  and  C_29
REMARK   12  A    between atoms: C_34  and  N_37
REMARK   13  A    between atoms: C_38  and  C_39
REMARK                            x       y       z     vdW  Elec       q    Type
REMARK                         _______ _______ _______ _____ _____    ______ ____
ROOT
ATOM      1  O   UNL     1      31.562 -11.064 -22.872  0.00  0.00    -0.273 OA
ATOM      2  N   UNL     1      33.485 -10.631 -24.086  0.00  0.00    -0.272 N 
ATOM      3  C   UNL     1      33.367 -11.765 -24.993  0.00  0.00    +0.152 C 
ATOM      4  C   UNL     1      34.345 -11.459 -26.122  0.00  0.00    +0.031 C 
ATOM      5  C   UNL     1      35.421 -10.615 -25.442  0.00  0.00    +0.024 C 
ATOM      6  C   UNL     1      34.634  -9.798 -24.429  0.00  0.00    +0.094 C 
ATOM      7  C   UNL     1      32.520 -10.335 -23.136  0.00  0.00    +0.244 C 
ENDROOT
BRANCH   3  10
ATOM      8  O   UNL     1      34.311 -12.916 -23.128  0.00  0.00    -0.273 OA
ATOM      9  N   UNL     1      33.474 -14.155 -24.911  0.00  0.00    -0.303 N 
ATOM     10  C   UNL     1      33.768 -12.989 -24.227  0.00  0.00    +0.241 C 
ATOM     11  H   UNL     1      33.034 -14.085 -25.790  0.00  0.00    +0.149 HD
BRANCH   9  12
ATOM     12  C   UNL     1      33.780 -15.472 -24.399  0.00  0.00    +0.090 C 
BRANCH  12  13
ATOM     13  C   UNL     1      34.107 -16.466 -25.509  0.00  0.00    +0.023 C 
BRANCH  13  14
ATOM     14  C   UNL     1      34.594 -17.814 -24.964  0.00  0.00    +0.028 C 
BRANCH  14  15
ATOM     15  C   UNL     1      34.828 -17.781 -23.457  0.00  0.00    +0.129 C 
BRANCH  15  16
ATOM     16  N   UNL     1      34.729 -19.134 -22.908  0.00  0.00    -0.240 NA
BRANCH  16  19
ATOM     17  N   UNL     1      35.610 -18.770 -20.796  0.00  0.00    -0.370 N 
ATOM     18  N   UNL     1      33.567 -19.775 -20.906  0.00  0.00    -0.370 N 
ATOM     19  C   UNL     1      34.614 -19.235 -21.621  0.00  0.00    +0.189 C 
ATOM     20  H   UNL     1      36.417 -18.358 -21.182  0.00  0.00    +0.159 HD
ATOM     21  H   UNL     1      35.517 -18.848 -19.819  0.00  0.00    +0.159 HD
ATOM     22  H   UNL     1      32.787 -20.145 -21.379  0.00  0.00    +0.159 HD
ATOM     23  H   UNL     1      33.601 -19.792 -19.923  0.00  0.00    +0.159 HD
ENDBRANCH  16  19
ENDBRANCH  15  16
ENDBRANCH  14  15
ENDBRANCH  13  14
ENDBRANCH  12  13
ENDBRANCH   9  12
ENDBRANCH   3  10
BRANCH   7  24
ATOM     24  C   UNL     1      32.709  -9.033 -22.402  0.00  0.00    +0.149 C 
BRANCH  24  26
ATOM     25  O   UNL     1      32.736  -6.182 -22.060  0.00  0.00    -0.270 OA
ATOM     26  N   UNL     1      32.601  -8.046 -23.435  0.00  0.00    -0.295 N 
ATOM     27  C   UNL     1      32.625  -6.677 -23.177  0.00  0.00    +0.246 C 
ATOM     28  H   UNL     1      32.507  -8.348 -24.368  0.00  0.00    +0.150 HD
BRANCH  27  29
ATOM     29  C   UNL     1      32.476  -5.784 -24.356  0.00  0.00    +0.053 C 
ATOM     30  C   UNL     1      33.393  -5.854 -25.404  0.00  0.00    +0.006 C 
ATOM     31  C   UNL     1      31.421  -4.874 -24.412  0.00  0.00    +0.006 C 
ATOM     32  C   UNL     1      33.254  -5.015 -26.509  0.00  0.00    +0.024 C 
ATOM     33  C   UNL     1      31.281  -4.035 -25.518  0.00  0.00    +0.024 C 
ATOM     34  C   UNL     1      32.198  -4.106 -26.566  0.00  0.00    +0.143 C 
BRANCH  34  37
ATOM     35  O   UNL     1      31.888  -2.023 -27.505  0.00  0.00    -0.126 OA
ATOM     36  O   UNL     1      32.103  -3.751 -28.842  0.00  0.00    -0.126 OA
ATOM     37  N   UNL     1      32.056  -3.252 -27.692  0.00  0.00    +0.058 N 
ENDBRANCH  34  37
ENDBRANCH  27  29
ENDBRANCH  24  26
BRANCH  24  38
ATOM     38  C   UNL     1      31.653  -8.883 -21.313  0.00  0.00    +0.029 C 
BRANCH  38  39
ATOM     39  C   UNL     1      32.174  -9.148 -19.886  0.00  0.00    +0.002 C 
ATOM     40  C   UNL     1      32.132  -7.852 -19.070  0.00  0.00    +0.000 C 
ATOM     41  C   UNL     1      31.375 -10.235 -19.166  0.00  0.00    +0.000 C 
ENDBRANCH  38  39
ENDBRANCH  24  38
ENDBRANCH   7  24
TORSDOF 13
ENDMDL
MODEL 6
REMARK VINA RESULT:      -9.0      1.489      2.160
REMARK  Name = 5494439
REMARK  13 active torsions:
REMARK  status: ('A' for Active; 'I' for Inactive)
REMARK    1  A    between atoms: C_3  and  C_10
REMARK    2  A    between atoms: C_7  and  C_24
REMARK    3  A    between atoms: N_9  and  C_12
REMARK    4  A    between atoms: C_12  and  C_13
REMARK    5  A    between atoms: C_13  and  C_14
REMARK    6  A    between atoms: C_14  and  C_15
REMARK    7  A    between atoms: C_15  and  N_16
REMARK    8  A    between atoms: N_16  and  C_19
REMARK    9  A    between atoms: C_24  and  N_26
REMARK   10  A    between atoms: C_24  and  C_38
REMARK   11  A    between atoms: C_27  and  C_29
REMARK   12  A    between atoms: C_34  and  N_37
REMARK   13  A    between atoms: C_38  and  C_39
REMARK                            x       y       z     vdW  Elec       q    Type
REMARK                         _______ _______ _______ _____ _____    ______ ____
ROOT
ATOM      1  O   UNL     1      33.270 -16.039 -24.311  0.00  0.00    -0.273 OA
ATOM      2  N   UNL     1      33.828 -15.596 -22.109  0.00  0.00    -0.272 N 
ATOM      3  C   UNL     1      32.751 -14.649 -21.852  0.00  0.00    +0.152 C 
ATOM      4  C   UNL     1      32.713 -14.510 -20.334  0.00  0.00    +0.031 C 
ATOM      5  C   UNL     1      34.157 -14.776 -19.916  0.00  0.00    +0.024 C 
ATOM      6  C   UNL     1      34.616 -15.839 -20.903  0.00  0.00    +0.094 C 
ATOM      7  C   UNL     1      33.953 -16.272 -23.312  0.00  0.00    +0.244 C 
ENDROOT
BRANCH   3  10
ATOM      8  O   UNL     1      34.157 -13.247 -23.177  0.00  0.00    -0.273 OA
ATOM      9  N   UNL     1      32.202 -12.358 -22.281  0.00  0.00    -0.303 N 
ATOM     10  C   UNL     1      33.126 -13.360 -22.519  0.00  0.00    +0.241 C 
ATOM     11  H   UNL     1      31.409 -12.571 -21.736  0.00  0.00    +0.149 HD
BRANCH   9  12
ATOM     12  C   UNL     1      32.342 -11.014 -22.794  0.00  0.00    +0.090 C 
BRANCH  12  13
ATOM     13  C   UNL     1      31.688  -9.975 -21.888  0.00  0.00    +0.023 C 
BRANCH  13  14
ATOM     14  C   UNL     1      32.237  -8.563 -22.124  0.00  0.00    +0.028 C 
BRANCH  14  15
ATOM     15  C   UNL     1      31.269  -7.689 -22.916  0.00  0.00    +0.129 C 
BRANCH  15  16
ATOM     16  N   UNL     1      31.824  -6.343 -23.067  0.00  0.00    -0.240 NA
BRANCH  16  19
ATOM     17  N   UNL     1      30.683  -4.385 -23.552  0.00  0.00    -0.370 N 
ATOM     18  N   UNL     1      30.599  -5.125 -21.398  0.00  0.00    -0.370 N 
ATOM     19  C   UNL     1      31.082  -5.358 -22.667  0.00  0.00    +0.189 C 
ATOM     20  H   UNL     1      30.961  -4.434 -24.496  0.00  0.00    +0.159 HD
ATOM     21  H   UNL     1      30.118  -3.639 -23.243  0.00  0.00    +0.159 HD
ATOM     22  H   UNL     1      30.813  -5.749 -20.667  0.00  0.00    +0.159 HD
ATOM     23  H   UNL     1      30.040  -4.334 -21.222  0.00  0.00    +0.159 HD
ENDBRANCH  16  19
ENDBRANCH  15  16
ENDBRANCH  14  15
ENDBRANCH  13  14
ENDBRANCH  12  13
ENDBRANCH   9  12
ENDBRANCH   3  10
BRANCH   7  24
ATOM     24  C   UNL     1      35.014 -17.342 -23.349  0.00  0.00    +0.149 C 
BRANCH  24  26
ATOM     25  O   UNL     1      36.678 -19.046 -21.748  0.00  0.00    -0.270 OA
ATOM     26  N   UNL     1      34.576 -18.284 -22.363  0.00  0.00    -0.295 N 
ATOM     27  C   UNL     1      35.457 -19.073 -21.629  0.00  0.00    +0.246 C 
ATOM     28  H   UNL     1      33.609 -18.378 -22.197  0.00  0.00    +0.150 HD
BRANCH  27  29
ATOM     29  C   UNL     1      34.843 -20.020 -20.662  0.00  0.00    +0.053 C 
ATOM     30  C   UNL     1      35.648 -20.896 -19.934  0.00  0.00    +0.006 C 
ATOM     31  C   UNL     1      33.460 -20.034 -20.483  0.00  0.00    +0.006 C 
ATOM     32  C   UNL     1      35.071 -21.784 -19.028  0.00  0.00    +0.024 C 
ATOM     33  C   UNL     1      32.882 -20.922 -19.576  0.00  0.00    +0.024 C 
ATOM     34  C   UNL     1      33.688 -21.797 -18.849  0.00  0.00    +0.143 C 
BRANCH  34  37
ATOM     35  O   UNL     1      31.897 -22.546 -17.604  0.00  0.00    -0.126 OA
ATOM     36  O   UNL     1      33.800 -23.631 -17.455  0.00  0.00    -0.126 OA
ATOM     37  N   UNL     1      33.100 -22.702 -17.925  0.00  0.00    +0.058 N 
ENDBRANCH  34  37
ENDBRANCH  27  29
ENDBRANCH  24  26
BRANCH  24  38
ATOM     38  C   UNL     1      35.114 -17.937 -24.749  0.00  0.00    +0.029 C 
BRANCH  38  39
ATOM     39  C   UNL     1      34.315 -19.242 -24.940  0.00  0.00    +0.002 C 
ATOM     40  C   UNL     1      33.137 -18.993 -25.887  0.00  0.00    +0.000 C 
ATOM     41  C   UNL     1      35.178 -20.382 -25.481  0.00  0.00    +0.000 C 
ENDBRANCH  38  39
ENDBRANCH  24  38
ENDBRANCH   7  24
TORSDOF 13
ENDMDL
MODEL 7
REMARK VINA RESULT:      -9.0      2.932      4.969
REMARK  Name = 5494439
REMARK  13 active torsions:
REMARK  status: ('A' for Active; 'I' for Inactive)
REMARK    1  A    between atoms: C_3  and  C_10
REMARK    2  A    between atoms: C_7  and  C_24
REMARK    3  A    between atoms: N_9  and  C_12
REMARK    4  A    between atoms: C_12  and  C_13
REMARK    5  A    between atoms: C_13  and  C_14
REMARK    6  A    between atoms: C_14  and  C_15
REMARK    7  A    between atoms: C_15  and  N_16
REMARK    8  A    between atoms: N_16  and  C_19
REMARK    9  A    between atoms: C_24  and  N_26
REMARK   10  A    between atoms: C_24  and  C_38
REMARK   11  A    between atoms: C_27  and  C_29
REMARK   12  A    between atoms: C_34  and  N_37
REMARK   13  A    between atoms: C_38  and  C_39
REMARK                            x       y       z     vdW  Elec       q    Type
REMARK                         _______ _______ _______ _____ _____    ______ ____
ROOT
ATOM      1  O   UNL     1      32.855 -12.878 -22.768  0.00  0.00    -0.273 OA
ATOM      2  N   UNL     1      33.893 -11.384 -24.200  0.00  0.00    -0.272 N 
ATOM      3  C   UNL     1      33.821 -10.229 -23.315  0.00  0.00    +0.152 C 
ATOM      4  C   UNL     1      34.785  -9.216 -23.923  0.00  0.00    +0.031 C 
ATOM      5  C   UNL     1      34.758  -9.549 -25.413  0.00  0.00    +0.024 C 
ATOM      6  C   UNL     1      34.611 -11.063 -25.430  0.00  0.00    +0.094 C 
ATOM      7  C   UNL     1      33.461 -12.644 -23.815  0.00  0.00    +0.244 C 
ENDROOT
BRANCH   3  10
ATOM      8  O   UNL     1      31.475 -10.412 -22.914  0.00  0.00    -0.273 OA
ATOM      9  N   UNL     1      32.300  -8.481 -23.918  0.00  0.00    -0.303 N 
ATOM     10  C   UNL     1      32.406  -9.736 -23.345  0.00  0.00    +0.241 C 
ATOM     11  H   UNL     1      33.122  -8.035 -24.227  0.00  0.00    +0.149 HD
BRANCH   9  12
ATOM     12  C   UNL     1      31.041  -7.792 -24.086  0.00  0.00    +0.090 C 
BRANCH  12  13
ATOM     13  C   UNL     1      31.149  -6.300 -23.783  0.00  0.00    +0.023 C 
BRANCH  13  14
ATOM     14  C   UNL     1      32.345  -5.645 -24.485  0.00  0.00    +0.028 C 
BRANCH  14  15
ATOM     15  C   UNL     1      31.978  -4.316 -25.137  0.00  0.00    +0.129 C 
BRANCH  15  16
ATOM     16  N   UNL     1      30.787  -3.758 -24.495  0.00  0.00    -0.240 NA
BRANCH  16  19
ATOM     17  N   UNL     1      31.961  -1.962 -23.617  0.00  0.00    -0.370 N 
ATOM     18  N   UNL     1      30.314  -2.857 -22.319  0.00  0.00    -0.370 N 
ATOM     19  C   UNL     1      30.985  -2.926 -23.520  0.00  0.00    +0.189 C 
ATOM     20  H   UNL     1      32.515  -1.902 -24.429  0.00  0.00    +0.159 HD
ATOM     21  H   UNL     1      32.106  -1.332 -22.875  0.00  0.00    +0.159 HD
ATOM     22  H   UNL     1      29.589  -3.493 -22.123  0.00  0.00    +0.159 HD
ATOM     23  H   UNL     1      30.561  -2.172 -21.657  0.00  0.00    +0.159 HD
ENDBRANCH  16  19
ENDBRANCH  15  16
ENDBRANCH  14  15
ENDBRANCH  13  14
ENDBRANCH  12  13
ENDBRANCH   9  12
ENDBRANCH   3  10
BRANCH   7  24
ATOM     24  C   UNL     1      33.768 -13.759 -24.782  0.00  0.00    +0.149 C 
BRANCH  24  26
ATOM     25  O   UNL     1      34.633 -16.369 -25.608  0.00  0.00    -0.270 OA
ATOM     26  N   UNL     1      34.088 -14.865 -23.928  0.00  0.00    -0.295 N 
ATOM     27  C   UNL     1      34.502 -16.101 -24.417  0.00  0.00    +0.246 C 
ATOM     28  H   UNL     1      34.012 -14.745 -22.953  0.00  0.00    +0.150 HD
BRANCH  27  29
ATOM     29  C   UNL     1      34.771 -17.153 -23.402  0.00  0.00    +0.053 C 
ATOM     30  C   UNL     1      34.780 -18.496 -23.775  0.00  0.00    +0.006 C 
ATOM     31  C   UNL     1      35.014 -16.796 -22.076  0.00  0.00    +0.006 C 
ATOM     32  C   UNL     1      35.031 -19.483 -22.823  0.00  0.00    +0.024 C 
ATOM     33  C   UNL     1      35.266 -17.782 -21.123  0.00  0.00    +0.024 C 
ATOM     34  C   UNL     1      35.275 -19.126 -21.496  0.00  0.00    +0.143 C 
BRANCH  34  37
ATOM     35  O   UNL     1      34.564 -20.740 -20.010  0.00  0.00    -0.126 OA
ATOM     36  O   UNL     1      36.720 -20.382 -20.212  0.00  0.00    -0.126 OA
ATOM     37  N   UNL     1      35.532 -20.130 -20.526  0.00  0.00    +0.058 N 
ENDBRANCH  34  37
ENDBRANCH  27  29
ENDBRANCH  24  26
BRANCH  24  38
ATOM     38  C   UNL     1      32.568 -14.021 -25.683  0.00  0.00    +0.029 C 
BRANCH  38  39
ATOM     39  C   UNL     1      32.812 -13.698 -27.171  0.00  0.00    +0.002 C 
ATOM     40  C   UNL     1      31.995 -12.466 -27.574  0.00  0.00    +0.000 C 
ATOM     41  C   UNL     1      34.290 -13.459 -27.482  0.00  0.00    +0.000 C 
ENDBRANCH  38  39
ENDBRANCH  24  38
ENDBRANCH   7  24
TORSDOF 13
ENDMDL
MODEL 8
REMARK VINA RESULT:      -8.7      3.538     10.622
REMARK  Name = 5494439
REMARK  13 active torsions:
REMARK  status: ('A' for Active; 'I' for Inactive)
REMARK    1  A    between atoms: C_3  and  C_10
REMARK    2  A    between atoms: C_7  and  C_24
REMARK    3  A    between atoms: N_9  and  C_12
REMARK    4  A    between atoms: C_12  and  C_13
REMARK    5  A    between atoms: C_13  and  C_14
REMARK    6  A    between atoms: C_14  and  C_15
REMARK    7  A    between atoms: C_15  and  N_16
REMARK    8  A    between atoms: N_16  and  C_19
REMARK    9  A    between atoms: C_24  and  N_26
REMARK   10  A    between atoms: C_24  and  C_38
REMARK   11  A    between atoms: C_27  and  C_29
REMARK   12  A    between atoms: C_34  and  N_37
REMARK   13  A    between atoms: C_38  and  C_39
REMARK                            x       y       z     vdW  Elec       q    Type
REMARK                         _______ _______ _______ _____ _____    ______ ____
ROOT
ATOM      1  O   UNL     1      31.773 -14.280 -23.356  0.00  0.00    -0.273 OA
ATOM      2  N   UNL     1      33.195 -12.925 -24.582  0.00  0.00    -0.272 N 
ATOM      3  C   UNL     1      32.820 -13.434 -25.894  0.00  0.00    +0.152 C 
ATOM      4  C   UNL     1      33.377 -12.412 -26.879  0.00  0.00    +0.031 C 
ATOM      5  C   UNL     1      34.593 -11.844 -26.152  0.00  0.00    +0.024 C 
ATOM      6  C   UNL     1      34.154 -11.829 -24.696  0.00  0.00    +0.094 C 
ATOM      7  C   UNL     1      32.579 -13.349 -23.415  0.00  0.00    +0.244 C 
ENDROOT
BRANCH   3  10
ATOM      8  O   UNL     1      33.464 -15.377 -27.123  0.00  0.00    -0.273 OA
ATOM      9  N   UNL     1      34.043 -15.222 -24.874  0.00  0.00    -0.303 N 
ATOM     10  C   UNL     1      33.474 -14.774 -26.053  0.00  0.00    +0.241 C 
ATOM     11  H   UNL     1      33.988 -14.645 -24.077  0.00  0.00    +0.149 HD
BRANCH   9  12
ATOM     12  C   UNL     1      34.717 -16.495 -24.755  0.00  0.00    +0.090 C 
BRANCH  12  13
ATOM     13  C   UNL     1      34.994 -16.873 -23.303  0.00  0.00    +0.023 C 
BRANCH  13  14
ATOM     14  C   UNL     1      35.506 -18.312 -23.158  0.00  0.00    +0.028 C 
BRANCH  14  15
ATOM     15  C   UNL     1      34.449 -19.248 -22.581  0.00  0.00    +0.129 C 
BRANCH  15  16
ATOM     16  N   UNL     1      34.775 -19.569 -21.191  0.00  0.00    -0.240 NA
BRANCH  16  19
ATOM     17  N   UNL     1      32.575 -20.181 -20.794  0.00  0.00    -0.370 N 
ATOM     18  N   UNL     1      34.183 -21.249 -19.581  0.00  0.00    -0.370 N 
ATOM     19  C   UNL     1      33.922 -20.301 -20.545  0.00  0.00    +0.189 C 
ATOM     20  H   UNL     1      32.254 -19.536 -21.465  0.00  0.00    +0.159 HD
ATOM     21  H   UNL     1      31.932 -20.741 -20.301  0.00  0.00    +0.159 HD
ATOM     22  H   UNL     1      35.111 -21.433 -19.309  0.00  0.00    +0.159 HD
ATOM     23  H   UNL     1      33.440 -21.743 -19.163  0.00  0.00    +0.159 HD
ENDBRANCH  16  19
ENDBRANCH  15  16
ENDBRANCH  14  15
ENDBRANCH  13  14
ENDBRANCH  12  13
ENDBRANCH   9  12
ENDBRANCH   3  10
BRANCH   7  24
ATOM     24  C   UNL     1      32.963 -12.596 -22.167  0.00  0.00    +0.149 C 
BRANCH  24  26
ATOM     25  O   UNL     1      31.971 -10.632 -20.322  0.00  0.00    -0.270 OA
ATOM     26  N   UNL     1      32.606 -11.241 -22.469  0.00  0.00    -0.295 N 
ATOM     27  C   UNL     1      32.132 -10.353 -21.507  0.00  0.00    +0.246 C 
ATOM     28  H   UNL     1      32.701 -10.924 -23.397  0.00  0.00    +0.150 HD
BRANCH  27  29
ATOM     29  C   UNL     1      31.781  -8.991 -21.986  0.00  0.00    +0.053 C 
ATOM     30  C   UNL     1      32.042  -7.881 -21.183  0.00  0.00    +0.006 C 
ATOM     31  C   UNL     1      31.192  -8.822 -23.238  0.00  0.00    +0.006 C 
ATOM     32  C   UNL     1      31.713  -6.602 -21.632  0.00  0.00    +0.024 C 
ATOM     33  C   UNL     1      30.863  -7.544 -23.689  0.00  0.00    +0.024 C 
ATOM     34  C   UNL     1      31.123  -6.434 -22.885  0.00  0.00    +0.143 C 
BRANCH  34  37
ATOM     35  O   UNL     1      30.877  -4.878 -24.569  0.00  0.00    -0.126 OA
ATOM     36  O   UNL     1      30.414  -4.272 -22.510  0.00  0.00    -0.126 OA
ATOM     37  N   UNL     1      30.789  -5.132 -23.343  0.00  0.00    +0.058 N 
ENDBRANCH  34  37
ENDBRANCH  27  29
ENDBRANCH  24  26
BRANCH  24  38
ATOM     38  C   UNL     1      32.221 -13.160 -20.961  0.00  0.00    +0.029 C 
BRANCH  38  39
ATOM     39  C   UNL     1      32.949 -14.324 -20.259  0.00  0.00    +0.002 C 
ATOM     40  C   UNL     1      32.165 -15.624 -20.464  0.00  0.00    +0.000 C 
ATOM     41  C   UNL     1      34.383 -14.503 -20.760  0.00  0.00    +0.000 C 
ENDBRANCH  38  39
ENDBRANCH  24  38
ENDBRANCH   7  24
TORSDOF 13
ENDMDL
MODEL 9
REMARK VINA RESULT:      -8.4      5.563     12.348
REMARK  Name = 5494439
REMARK  13 active torsions:
REMARK  status: ('A' for Active; 'I' for Inactive)
REMARK    1  A    between atoms: C_3  and  C_10
REMARK    2  A    between atoms: C_7  and  C_24
REMARK    3  A    between atoms: N_9  and  C_12
REMARK    4  A    between atoms: C_12  and  C_13
REMARK    5  A    between atoms: C_13  and  C_14
REMARK    6  A    between atoms: C_14  and  C_15
REMARK    7  A    between atoms: C_15  and  N_16
REMARK    8  A    between atoms: N_16  and  C_19
REMARK    9  A    between atoms: C_24  and  N_26
REMARK   10  A    between atoms: C_24  and  C_38
REMARK   11  A    between atoms: C_27  and  C_29
REMARK   12  A    between atoms: C_34  and  N_37
REMARK   13  A    between atoms: C_38  and  C_39
REMARK                            x       y       z     vdW  Elec       q    Type
REMARK                         _______ _______ _______ _____ _____    ______ ____
ROOT
ATOM      1  O   UNL     1      34.513 -22.175 -14.832  0.00  0.00    -0.273 OA
ATOM      2  N   UNL     1      32.572 -23.201 -15.566  0.00  0.00    -0.272 N 
ATOM      3  C   UNL     1      31.695 -22.646 -14.545  0.00  0.00    +0.152 C 
ATOM      4  C   UNL     1      30.284 -22.904 -15.064  0.00  0.00    +0.031 C 
ATOM      5  C   UNL     1      30.442 -24.168 -15.907  0.00  0.00    +0.024 C 
ATOM      6  C   UNL     1      31.821 -24.004 -16.528  0.00  0.00    +0.094 C 
ATOM      7  C   UNL     1      33.911 -22.856 -15.665  0.00  0.00    +0.244 C 
ENDROOT
BRANCH   3  10
ATOM      8  O   UNL     1      31.077 -23.628 -12.459  0.00  0.00    -0.273 OA
ATOM      9  N   UNL     1      33.297 -23.748 -13.148  0.00  0.00    -0.303 N 
ATOM     10  C   UNL     1      31.965 -23.394 -13.274  0.00  0.00    +0.241 C 
ATOM     11  H   UNL     1      33.918 -23.504 -13.873  0.00  0.00    +0.149 HD
BRANCH   9  12
ATOM     12  C   UNL     1      33.822 -24.457 -12.003  0.00  0.00    +0.090 C 
BRANCH  12  13
ATOM     13  C   UNL     1      35.201 -23.953 -11.589  0.00  0.00    +0.023 C 
BRANCH  13  14
ATOM     14  C   UNL     1      36.261 -24.186 -12.674  0.00  0.00    +0.028 C 
BRANCH  14  15
ATOM     15  C   UNL     1      37.358 -25.142 -12.217  0.00  0.00    +0.129 C 
BRANCH  15  16
ATOM     16  N   UNL     1      37.056 -26.499 -12.674  0.00  0.00    -0.240 NA
BRANCH  16  19
ATOM     17  N   UNL     1      38.500 -26.747 -14.470  0.00  0.00    -0.370 N 
ATOM     18  N   UNL     1      36.276 -27.025 -14.883  0.00  0.00    -0.370 N 
ATOM     19  C   UNL     1      37.234 -26.745 -13.934  0.00  0.00    +0.189 C 
ATOM     20  H   UNL     1      39.278 -26.560 -13.895  0.00  0.00    +0.159 HD
ATOM     21  H   UNL     1      38.629 -26.935 -15.428  0.00  0.00    +0.159 HD
ATOM     22  H   UNL     1      35.325 -27.054 -14.629  0.00  0.00    +0.159 HD
ATOM     23  H   UNL     1      36.542 -27.195 -15.815  0.00  0.00    +0.159 HD
ENDBRANCH  16  19
ENDBRANCH  15  16
ENDBRANCH  14  15
ENDBRANCH  13  14
ENDBRANCH  12  13
ENDBRANCH   9  12
ENDBRANCH   3  10
BRANCH   7  24
ATOM     24  C   UNL     1      34.630 -23.382 -16.880  0.00  0.00    +0.149 C 
BRANCH  24  26
ATOM     25  O   UNL     1      33.823 -23.385 -19.635  0.00  0.00    -0.270 OA
ATOM     26  N   UNL     1      34.639 -22.263 -17.776  0.00  0.00    -0.295 N 
ATOM     27  C   UNL     1      34.227 -22.355 -19.103  0.00  0.00    +0.246 C 
ATOM     28  H   UNL     1      34.949 -21.391 -17.438  0.00  0.00    +0.150 HD
BRANCH  27  29
ATOM     29  C   UNL     1      34.321 -21.110 -19.909  0.00  0.00    +0.053 C 
ATOM     30  C   UNL     1      33.162 -20.422 -20.267  0.00  0.00    +0.006 C 
ATOM     31  C   UNL     1      35.569 -20.630 -20.306  0.00  0.00    +0.006 C 
ATOM     32  C   UNL     1      33.251 -19.254 -21.024  0.00  0.00    +0.024 C 
ATOM     33  C   UNL     1      35.658 -19.461 -21.062  0.00  0.00    +0.024 C 
ATOM     34  C   UNL     1      34.499 -18.773 -21.421  0.00  0.00    +0.143 C 
BRANCH  34  37
ATOM     35  O   UNL     1      34.570 -16.475 -21.600  0.00  0.00    -0.126 OA
ATOM     36  O   UNL     1      34.686 -17.671 -23.438  0.00  0.00    -0.126 OA
ATOM     37  N   UNL     1      34.589 -17.583 -22.190  0.00  0.00    +0.058 N 
ENDBRANCH  34  37
ENDBRANCH  27  29
ENDBRANCH  24  26
BRANCH  24  38
ATOM     38  C   UNL     1      36.026 -23.861 -16.501  0.00  0.00    +0.029 C 
BRANCH  38  39
ATOM     39  C   UNL     1      36.968 -22.742 -16.012  0.00  0.00    +0.002 C 
ATOM     40  C   UNL     1      38.296 -23.349 -15.551  0.00  0.00    +0.000 C 
ATOM     41  C   UNL     1      37.230 -21.688 -17.088  0.00  0.00    +0.000 C 
ENDBRANCH  38  39
ENDBRANCH  24  38
ENDBRANCH   7  24
TORSDOF 13
ENDMDL
