MODEL 1
REMARK VINA RESULT:      -9.2      0.000      0.000
REMARK  Name = 6914564
REMARK  7 active torsions:
REMARK  status: ('A' for Active; 'I' for Inactive)
REMARK    1  A    between atoms: N_1  and  C_24
REMARK    2  A    between atoms: C_6  and  S_13
REMARK    3  A    between atoms: S_13  and  C_17
REMARK    4  A    between atoms: C_24  and  C_25
REMARK    5  A    between atoms: C_25  and  C_26
REMARK    6  A    between atoms: C_26  and  N_27
REMARK    7  A    between atoms: N_27  and  C_30
REMARK                            x       y       z     vdW  Elec       q    Type
REMARK                         _______ _______ _______ _____ _____    ______ ____
ROOT
ATOM      1  N   UNL     1      33.152 -23.578 -16.219  0.00  0.00    -0.241 N 
ATOM      2  N   UNL     1      35.363 -23.318 -16.116  0.00  0.00    -0.375 NA
ATOM      3  N   UNL     1      32.692 -22.416 -18.303  0.00  0.00    -0.227 NA
ATOM      4  N   UNL     1      34.740 -21.536 -19.296  0.00  0.00    -0.227 NA
ATOM      5  C   UNL     1      33.502 -22.871 -17.334  0.00  0.00    +0.168 C 
ATOM      6  C   UNL     1      34.303 -23.803 -15.552  0.00  0.00    +0.220 C 
ATOM      7  C   UNL     1      34.877 -22.720 -17.252  0.00  0.00    +0.196 C 
ATOM      8  C   UNL     1      35.496 -22.023 -18.284  0.00  0.00    +0.155 C 
ATOM      9  C   UNL     1      33.404 -21.759 -19.244  0.00  0.00    +0.253 C 
ATOM     10  N   UNL     1      36.887 -21.824 -18.282  0.00  0.00    -0.341 N 
ATOM     11  H   UNL     1      37.315 -21.329 -19.017  0.00  0.00    +0.144 HD
ATOM     12  H   UNL     1      37.434 -22.179 -17.544  0.00  0.00    +0.144 HD
ENDROOT
BRANCH   6  13
ATOM     13  S   UNL     1      34.314 -24.698 -14.027  0.00  0.00    -0.039 S 
BRANCH  13  17
ATOM     14 BR   UNL     1      35.804 -23.528 -11.190  0.00  0.00    -0.048 Br
ATOM     15  O   UNL     1      39.066 -25.933 -15.619  0.00  0.00    -0.435 OA
ATOM     16  O   UNL     1      40.179 -25.124 -13.641  0.00  0.00    -0.435 OA
ATOM     17  C   UNL     1      36.092 -24.780 -13.807  0.00  0.00    +0.042 C 
ATOM     18  C   UNL     1      36.824 -25.345 -14.854  0.00  0.00    +0.047 C 
ATOM     19  C   UNL     1      38.195 -25.420 -14.710  0.00  0.00    +0.177 C 
ATOM     20  C   UNL     1      38.830 -24.957 -13.580  0.00  0.00    +0.177 C 
ATOM     21  C   UNL     1      36.742 -24.307 -12.652  0.00  0.00    +0.044 C 
ATOM     22  C   UNL     1      38.131 -24.395 -12.532  0.00  0.00    +0.047 C 
ATOM     23  C   UNL     1      40.322 -25.744 -14.935  0.00  0.00    +0.429 C 
ENDBRANCH  13  17
ENDBRANCH   6  13
BRANCH   1  24
ATOM     24  C   UNL     1      31.806 -23.977 -15.871  0.00  0.00    +0.098 C 
BRANCH  24  25
ATOM     25  C   UNL     1      31.207 -23.093 -14.778  0.00  0.00    -0.001 C 
BRANCH  25  26
ATOM     26  C   UNL     1      29.917 -22.429 -15.256  0.00  0.00    -0.080 C 
BRANCH  26  27
ATOM     27  N   UNL     1      29.738 -22.642 -16.687  0.00  0.00    +0.385 N 
ATOM     28  H   UNL     1      30.374 -23.377 -16.998  0.00  0.00    -0.084 HD
ATOM     29  H   UNL     1      29.939 -21.768 -17.175  0.00  0.00    -0.084 HD
BRANCH  27  30
ATOM     30  C   UNL     1      28.369 -23.038 -16.986  0.00  0.00    -0.062 C 
ATOM     31  C   UNL     1      27.396 -22.328 -16.049  0.00  0.00    -0.023 C 
ATOM     32  C   UNL     1      28.241 -24.553 -16.863  0.00  0.00    -0.023 C 
ENDBRANCH  27  30
ENDBRANCH  26  27
ENDBRANCH  25  26
ENDBRANCH  24  25
ENDBRANCH   1  24
TORSDOF 7
ENDMDL
MODEL 2
REMARK VINA RESULT:      -8.7     10.813     13.790
REMARK  Name = 6914564
REMARK  7 active torsions:
REMARK  status: ('A' for Active; 'I' for Inactive)
REMARK    1  A    between atoms: N_1  and  C_24
REMARK    2  A    between atoms: C_6  and  S_13
REMARK    3  A    between atoms: S_13  and  C_17
REMARK    4  A    between atoms: C_24  and  C_25
REMARK    5  A    between atoms: C_25  and  C_26
REMARK    6  A    between atoms: C_26  and  N_27
REMARK    7  A    between atoms: N_27  and  C_30
REMARK                            x       y       z     vdW  Elec       q    Type
REMARK                         _______ _______ _______ _____ _____    ______ ____
ROOT
ATOM      1  N   UNL     1      33.706 -14.665 -22.415  0.00  0.00    -0.241 N 
ATOM      2  N   UNL     1      32.188 -13.737 -23.758  0.00  0.00    -0.375 NA
ATOM      3  N   UNL     1      34.927 -16.007 -24.030  0.00  0.00    -0.227 NA
ATOM      4  N   UNL     1      34.002 -15.752 -26.273  0.00  0.00    -0.227 NA
ATOM      5  C   UNL     1      33.963 -15.148 -23.666  0.00  0.00    +0.168 C 
ATOM      6  C   UNL     1      32.646 -13.841 -22.551  0.00  0.00    +0.220 C 
ATOM      7  C   UNL     1      33.012 -14.560 -24.484  0.00  0.00    +0.196 C 
ATOM      8  C   UNL     1      33.053 -14.890 -25.835  0.00  0.00    +0.155 C 
ATOM      9  C   UNL     1      34.868 -16.250 -25.357  0.00  0.00    +0.253 C 
ATOM     10  N   UNL     1      32.127 -14.341 -26.737  0.00  0.00    -0.341 N 
ATOM     11  H   UNL     1      32.165 -14.581 -27.691  0.00  0.00    +0.144 HD
ATOM     12  H   UNL     1      31.438 -13.715 -26.416  0.00  0.00    +0.144 HD
ENDROOT
BRANCH   6  13
ATOM     13  S   UNL     1      31.966 -12.990 -21.157  0.00  0.00    -0.039 S 
BRANCH  13  17
ATOM     14 BR   UNL     1      31.014 -10.287 -19.307  0.00  0.00    -0.048 Br
ATOM     15  O   UNL     1      34.029  -9.592 -24.451  0.00  0.00    -0.435 OA
ATOM     16  O   UNL     1      33.385  -7.643 -23.190  0.00  0.00    -0.435 OA
ATOM     17  C   UNL     1      32.348 -11.318 -21.685  0.00  0.00    +0.042 C 
ATOM     18  C   UNL     1      33.051 -11.189 -22.885  0.00  0.00    +0.047 C 
ATOM     19  C   UNL     1      33.356  -9.913 -23.313  0.00  0.00    +0.177 C 
ATOM     20  C   UNL     1      32.987  -8.799 -22.593  0.00  0.00    +0.177 C 
ATOM     21  C   UNL     1      31.971 -10.181 -20.949  0.00  0.00    +0.044 C 
ATOM     22  C   UNL     1      32.293  -8.900 -21.405  0.00  0.00    +0.047 C 
ATOM     23  C   UNL     1      34.045  -8.152 -24.366  0.00  0.00    +0.429 C 
ENDBRANCH  13  17
ENDBRANCH   6  13
BRANCH   1  24
ATOM     24  C   UNL     1      34.449 -15.002 -21.220  0.00  0.00    +0.098 C 
BRANCH  24  25
ATOM     25  C   UNL     1      34.025 -16.351 -20.640  0.00  0.00    -0.001 C 
BRANCH  25  26
ATOM     26  C   UNL     1      35.023 -17.446 -21.014  0.00  0.00    -0.080 C 
BRANCH  26  27
ATOM     27  N   UNL     1      34.441 -18.344 -22.004  0.00  0.00    +0.385 N 
ATOM     28  H   UNL     1      35.011 -18.323 -22.850  0.00  0.00    -0.084 HD
ATOM     29  H   UNL     1      33.491 -18.035 -22.207  0.00  0.00    -0.084 HD
BRANCH  27  30
ATOM     30  C   UNL     1      34.389 -19.709 -21.499  0.00  0.00    -0.062 C 
ATOM     31  C   UNL     1      33.110 -19.927 -20.695  0.00  0.00    -0.023 C 
ATOM     32  C   UNL     1      35.625 -19.983 -20.647  0.00  0.00    -0.023 C 
ENDBRANCH  27  30
ENDBRANCH  26  27
ENDBRANCH  25  26
ENDBRANCH  24  25
ENDBRANCH   1  24
TORSDOF 7
ENDMDL
MODEL 3
REMARK VINA RESULT:      -8.7      3.361      7.006
REMARK  Name = 6914564
REMARK  7 active torsions:
REMARK  status: ('A' for Active; 'I' for Inactive)
REMARK    1  A    between atoms: N_1  and  C_24
REMARK    2  A    between atoms: C_6  and  S_13
REMARK    3  A    between atoms: S_13  and  C_17
REMARK    4  A    between atoms: C_24  and  C_25
REMARK    5  A    between atoms: C_25  and  C_26
REMARK    6  A    between atoms: C_26  and  N_27
REMARK    7  A    between atoms: N_27  and  C_30
REMARK                            x       y       z     vdW  Elec       q    Type
REMARK                         _______ _______ _______ _____ _____    ______ ____
ROOT
ATOM      1  N   UNL     1      35.845 -22.045 -18.168  0.00  0.00    -0.241 N 
ATOM      2  N   UNL     1      33.690 -22.288 -18.683  0.00  0.00    -0.375 NA
ATOM      3  N   UNL     1      36.445 -20.269 -19.714  0.00  0.00    -0.227 NA
ATOM      4  N   UNL     1      34.530 -19.583 -21.061  0.00  0.00    -0.227 NA
ATOM      5  C   UNL     1      35.587 -21.137 -19.155  0.00  0.00    +0.168 C 
ATOM      6  C   UNL     1      34.678 -22.685 -17.945  0.00  0.00    +0.220 C 
ATOM      7  C   UNL     1      34.246 -21.303 -19.460  0.00  0.00    +0.196 C 
ATOM      8  C   UNL     1      33.720 -20.484 -20.454  0.00  0.00    +0.155 C 
ATOM      9  C   UNL     1      35.823 -19.532 -20.659  0.00  0.00    +0.253 C 
ATOM     10  N   UNL     1      32.369 -20.584 -20.827  0.00  0.00    -0.341 N 
ATOM     11  H   UNL     1      32.008 -20.000 -21.532  0.00  0.00    +0.144 HD
ATOM     12  H   UNL     1      31.784 -21.241 -20.384  0.00  0.00    +0.144 HD
ENDROOT
BRANCH   6  13
ATOM     13  S   UNL     1      34.555 -23.962 -16.729  0.00  0.00    -0.039 S 
BRANCH  13  17
ATOM     14 BR   UNL     1      34.053 -23.799 -13.359  0.00  0.00    -0.048 Br
ATOM     15  O   UNL     1      29.619 -22.527 -17.200  0.00  0.00    -0.435 OA
ATOM     16  O   UNL     1      29.200 -22.394 -14.831  0.00  0.00    -0.435 OA
ATOM     17  C   UNL     1      32.964 -23.494 -16.045  0.00  0.00    +0.042 C 
ATOM     18  C   UNL     1      31.952 -23.204 -16.964  0.00  0.00    +0.047 C 
ATOM     19  C   UNL     1      30.718 -22.843 -16.464  0.00  0.00    +0.177 C 
ATOM     20  C   UNL     1      30.479 -22.767 -15.110  0.00  0.00    +0.177 C 
ATOM     21  C   UNL     1      32.720 -23.418 -14.662  0.00  0.00    +0.044 C 
ATOM     22  C   UNL     1      31.460 -23.048 -14.182  0.00  0.00    +0.047 C 
ATOM     23  C   UNL     1      28.661 -22.243 -16.159  0.00  0.00    +0.429 C 
ENDBRANCH  13  17
ENDBRANCH   6  13
BRANCH   1  24
ATOM     24  C   UNL     1      37.126 -22.240 -17.526  0.00  0.00    +0.098 C 
BRANCH  24  25
ATOM     25  C   UNL     1      37.133 -21.726 -16.087  0.00  0.00    -0.001 C 
BRANCH  25  26
ATOM     26  C   UNL     1      37.434 -22.855 -15.103  0.00  0.00    -0.080 C 
BRANCH  26  27
ATOM     27  N   UNL     1      38.372 -23.803 -15.693  0.00  0.00    +0.385 N 
ATOM     28  H   UNL     1      39.275 -23.345 -15.820  0.00  0.00    -0.084 HD
ATOM     29  H   UNL     1      38.000 -24.114 -16.591  0.00  0.00    -0.084 HD
BRANCH  27  30
ATOM     30  C   UNL     1      38.544 -24.965 -14.833  0.00  0.00    -0.062 C 
ATOM     31  C   UNL     1      37.976 -24.685 -13.444  0.00  0.00    -0.023 C 
ATOM     32  C   UNL     1      40.025 -25.325 -14.756  0.00  0.00    -0.023 C 
ENDBRANCH  27  30
ENDBRANCH  26  27
ENDBRANCH  25  26
ENDBRANCH  24  25
ENDBRANCH   1  24
TORSDOF 7
ENDMDL
MODEL 4
REMARK VINA RESULT:      -8.4      3.744      7.686
REMARK  Name = 6914564
REMARK  7 active torsions:
REMARK  status: ('A' for Active; 'I' for Inactive)
REMARK    1  A    between atoms: N_1  and  C_24
REMARK    2  A    between atoms: C_6  and  S_13
REMARK    3  A    between atoms: S_13  and  C_17
REMARK    4  A    between atoms: C_24  and  C_25
REMARK    5  A    between atoms: C_25  and  C_26
REMARK    6  A    between atoms: C_26  and  N_27
REMARK    7  A    between atoms: N_27  and  C_30
REMARK                            x       y       z     vdW  Elec       q    Type
REMARK                         _______ _______ _______ _____ _____    ______ ____
ROOT
ATOM      1  N   UNL     1      34.351 -23.530 -16.657  0.00  0.00    -0.241 N 
ATOM      2  N   UNL     1      32.524 -22.975 -17.807  0.00  0.00    -0.375 NA
ATOM      3  N   UNL     1      36.020 -22.265 -17.888  0.00  0.00    -0.227 NA
ATOM      4  N   UNL     1      35.009 -21.021 -19.728  0.00  0.00    -0.227 NA
ATOM      5  C   UNL     1      34.769 -22.685 -17.645  0.00  0.00    +0.168 C 
ATOM      6  C   UNL     1      33.017 -23.652 -16.819  0.00  0.00    +0.220 C 
ATOM      7  C   UNL     1      33.622 -22.351 -18.347  0.00  0.00    +0.196 C 
ATOM      8  C   UNL     1      33.773 -21.485 -19.425  0.00  0.00    +0.155 C 
ATOM      9  C   UNL     1      36.041 -21.434 -18.952  0.00  0.00    +0.253 C 
ATOM     10  N   UNL     1      32.663 -21.094 -20.192  0.00  0.00    -0.341 N 
ATOM     11  H   UNL     1      32.782 -20.481 -20.953  0.00  0.00    +0.144 HD
ATOM     12  H   UNL     1      31.766 -21.433 -19.970  0.00  0.00    +0.144 HD
ENDROOT
BRANCH   6  13
ATOM     13  S   UNL     1      32.055 -24.671 -15.741  0.00  0.00    -0.039 S 
BRANCH  13  17
ATOM     14 BR   UNL     1      31.209 -22.597 -13.168  0.00  0.00    -0.048 Br
ATOM     15  O   UNL     1      27.667 -23.136 -17.984  0.00  0.00    -0.435 OA
ATOM     16  O   UNL     1      27.013 -21.655 -16.200  0.00  0.00    -0.435 OA
ATOM     17  C   UNL     1      30.543 -23.707 -15.780  0.00  0.00    +0.042 C 
ATOM     18  C   UNL     1      29.740 -23.853 -16.913  0.00  0.00    +0.047 C 
ATOM     19  C   UNL     1      28.570 -23.123 -16.968  0.00  0.00    +0.177 C 
ATOM     20  C   UNL     1      28.196 -22.277 -15.948  0.00  0.00    +0.177 C 
ATOM     21  C   UNL     1      30.161 -22.843 -14.738  0.00  0.00    +0.044 C 
ATOM     22  C   UNL     1      28.971 -22.114 -14.818  0.00  0.00    +0.047 C 
ATOM     23  C   UNL     1      26.683 -22.203 -17.492  0.00  0.00    +0.429 C 
ENDBRANCH  13  17
ENDBRANCH   6  13
BRANCH   1  24
ATOM     24  C   UNL     1      35.206 -24.143 -15.664  0.00  0.00    +0.098 C 
BRANCH  24  25
ATOM     25  C   UNL     1      35.654 -23.146 -14.596  0.00  0.00    -0.001 C 
BRANCH  25  26
ATOM     26  C   UNL     1      37.151 -23.275 -14.319  0.00  0.00    -0.080 C 
BRANCH  26  27
ATOM     27  N   UNL     1      37.755 -24.228 -15.242  0.00  0.00    +0.385 N 
ATOM     28  H   UNL     1      38.378 -23.730 -15.878  0.00  0.00    -0.084 HD
ATOM     29  H   UNL     1      37.012 -24.695 -15.763  0.00  0.00    -0.084 HD
BRANCH  27  30
ATOM     30  C   UNL     1      38.520 -25.235 -14.520  0.00  0.00    -0.062 C 
ATOM     31  C   UNL     1      38.452 -24.975 -13.017  0.00  0.00    -0.023 C 
ATOM     32  C   UNL     1      39.964 -25.225 -15.012  0.00  0.00    -0.023 C 
ENDBRANCH  27  30
ENDBRANCH  26  27
ENDBRANCH  25  26
ENDBRANCH  24  25
ENDBRANCH   1  24
TORSDOF 7
ENDMDL
MODEL 5
REMARK VINA RESULT:      -8.1     13.353     15.952
REMARK  Name = 6914564
REMARK  7 active torsions:
REMARK  status: ('A' for Active; 'I' for Inactive)
REMARK    1  A    between atoms: N_1  and  C_24
REMARK    2  A    between atoms: C_6  and  S_13
REMARK    3  A    between atoms: S_13  and  C_17
REMARK    4  A    between atoms: C_24  and  C_25
REMARK    5  A    between atoms: C_25  and  C_26
REMARK    6  A    between atoms: C_26  and  N_27
REMARK    7  A    between atoms: N_27  and  C_30
REMARK                            x       y       z     vdW  Elec       q    Type
REMARK                         _______ _______ _______ _____ _____    ______ ____
ROOT
ATOM      1  N   UNL     1      33.441  -9.171 -23.142  0.00  0.00    -0.241 N 
ATOM      2  N   UNL     1      32.280 -10.972 -22.528  0.00  0.00    -0.375 NA
ATOM      3  N   UNL     1      33.055  -7.747 -21.211  0.00  0.00    -0.227 NA
ATOM      4  N   UNL     1      31.651  -8.863 -19.555  0.00  0.00    -0.227 NA
ATOM      5  C   UNL     1      32.914  -8.881 -21.915  0.00  0.00    +0.168 C 
ATOM      6  C   UNL     1      33.022 -10.420 -23.434  0.00  0.00    +0.220 C 
ATOM      7  C   UNL     1      32.198 -10.010 -21.552  0.00  0.00    +0.196 C 
ATOM      8  C   UNL     1      31.551  -9.976 -20.320  0.00  0.00    +0.155 C 
ATOM      9  C   UNL     1      32.386  -7.832 -20.041  0.00  0.00    +0.253 C 
ATOM     10  N   UNL     1      30.803 -11.078 -19.872  0.00  0.00    -0.341 N 
ATOM     11  H   UNL     1      30.349 -11.042 -18.999  0.00  0.00    +0.144 HD
ATOM     12  H   UNL     1      30.732 -11.885 -20.431  0.00  0.00    +0.144 HD
ENDROOT
BRANCH   6  13
ATOM     13  S   UNL     1      33.477 -11.203 -24.953  0.00  0.00    -0.039 S 
BRANCH  13  17
ATOM     14 BR   UNL     1      32.913 -13.923 -26.933  0.00  0.00    -0.048 Br
ATOM     15  O   UNL     1      34.566 -14.574 -21.198  0.00  0.00    -0.435 OA
ATOM     16  O   UNL     1      34.182 -16.535 -22.544  0.00  0.00    -0.435 OA
ATOM     17  C   UNL     1      33.664 -12.871 -24.320  0.00  0.00    +0.042 C 
ATOM     18  C   UNL     1      34.050 -12.990 -22.983  0.00  0.00    +0.047 C 
ATOM     19  C   UNL     1      34.200 -14.263 -22.471  0.00  0.00    +0.177 C 
ATOM     20  C   UNL     1      33.980 -15.383 -23.240  0.00  0.00    +0.177 C 
ATOM     21  C   UNL     1      33.439 -14.015 -25.106  0.00  0.00    +0.044 C 
ATOM     22  C   UNL     1      33.598 -15.293 -24.563  0.00  0.00    +0.047 C 
ATOM     23  C   UNL     1      34.554 -16.015 -21.252  0.00  0.00    +0.429 C 
ENDBRANCH  13  17
ENDBRANCH   6  13
BRANCH   1  24
ATOM     24  C   UNL     1      34.271  -8.283 -23.925  0.00  0.00    +0.098 C 
BRANCH  24  25
ATOM     25  C   UNL     1      33.749  -6.846 -23.914  0.00  0.00    -0.001 C 
BRANCH  25  26
ATOM     26  C   UNL     1      32.441  -6.733 -24.694  0.00  0.00    -0.080 C 
BRANCH  26  27
ATOM     27  N   UNL     1      31.326  -6.510 -23.782  0.00  0.00    +0.385 N 
ATOM     28  H   UNL     1      31.302  -7.262 -23.093  0.00  0.00    -0.084 HD
ATOM     29  H   UNL     1      30.460  -6.494 -24.322  0.00  0.00    -0.084 HD
BRANCH  27  30
ATOM     30  C   UNL     1      31.467  -5.236 -23.091  0.00  0.00    -0.062 C 
ATOM     31  C   UNL     1      30.487  -5.156 -21.924  0.00  0.00    -0.023 C 
ATOM     32  C   UNL     1      31.239  -4.095 -24.078  0.00  0.00    -0.023 C 
ENDBRANCH  27  30
ENDBRANCH  26  27
ENDBRANCH  25  26
ENDBRANCH  24  25
ENDBRANCH   1  24
TORSDOF 7
ENDMDL
MODEL 6
REMARK VINA RESULT:      -8.1      1.558      2.052
REMARK  Name = 6914564
REMARK  7 active torsions:
REMARK  status: ('A' for Active; 'I' for Inactive)
REMARK    1  A    between atoms: N_1  and  C_24
REMARK    2  A    between atoms: C_6  and  S_13
REMARK    3  A    between atoms: S_13  and  C_17
REMARK    4  A    between atoms: C_24  and  C_25
REMARK    5  A    between atoms: C_25  and  C_26
REMARK    6  A    between atoms: C_26  and  N_27
REMARK    7  A    between atoms: N_27  and  C_30
REMARK                            x       y       z     vdW  Elec       q    Type
REMARK                         _______ _______ _______ _____ _____    ______ ____
ROOT
ATOM      1  N   UNL     1      32.955 -23.373 -16.697  0.00  0.00    -0.241 N 
ATOM      2  N   UNL     1      35.164 -23.240 -16.424  0.00  0.00    -0.375 NA
ATOM      3  N   UNL     1      32.712 -22.102 -18.753  0.00  0.00    -0.227 NA
ATOM      4  N   UNL     1      34.870 -21.295 -19.556  0.00  0.00    -0.227 NA
ATOM      5  C   UNL     1      33.423 -22.640 -17.751  0.00  0.00    +0.168 C 
ATOM      6  C   UNL     1      34.041 -23.689 -15.960  0.00  0.00    +0.220 C 
ATOM      7  C   UNL     1      34.794 -22.570 -17.563  0.00  0.00    +0.196 C 
ATOM      8  C   UNL     1      35.524 -21.865 -18.515  0.00  0.00    +0.155 C 
ATOM      9  C   UNL     1      33.524 -21.446 -19.610  0.00  0.00    +0.253 C 
ATOM     10  N   UNL     1      36.919 -21.743 -18.404  0.00  0.00    -0.341 N 
ATOM     11  H   UNL     1      37.425 -21.242 -19.083  0.00  0.00    +0.144 HD
ATOM     12  H   UNL     1      37.391 -22.158 -17.646  0.00  0.00    +0.144 HD
ENDROOT
BRANCH   6  13
ATOM     13  S   UNL     1      33.893 -24.646 -14.480  0.00  0.00    -0.039 S 
BRANCH  13  17
ATOM     14 BR   UNL     1      36.243 -26.869 -15.561  0.00  0.00    -0.048 Br
ATOM     15  O   UNL     1      37.702 -22.433 -11.789  0.00  0.00    -0.435 OA
ATOM     16  O   UNL     1      39.408 -23.972 -12.515  0.00  0.00    -0.435 OA
ATOM     17  C   UNL     1      35.601 -24.530 -13.944  0.00  0.00    +0.042 C 
ATOM     18  C   UNL     1      35.909 -23.488 -13.067  0.00  0.00    +0.047 C 
ATOM     19  C   UNL     1      37.217 -23.377 -12.639  0.00  0.00    +0.177 C 
ATOM     20  C   UNL     1      38.191 -24.257 -13.054  0.00  0.00    +0.177 C 
ATOM     21  C   UNL     1      36.596 -25.429 -14.368  0.00  0.00    +0.044 C 
ATOM     22  C   UNL     1      37.913 -25.295 -13.919  0.00  0.00    +0.047 C 
ATOM     23  C   UNL     1      39.091 -22.814 -11.716  0.00  0.00    +0.429 C 
ENDBRANCH  13  17
ENDBRANCH   6  13
BRANCH   1  24
ATOM     24  C   UNL     1      31.568 -23.712 -16.465  0.00  0.00    +0.098 C 
BRANCH  24  25
ATOM     25  C   UNL     1      30.982 -22.953 -15.275  0.00  0.00    -0.001 C 
BRANCH  25  26
ATOM     26  C   UNL     1      29.501 -23.282 -15.092  0.00  0.00    -0.080 C 
BRANCH  26  27
ATOM     27  N   UNL     1      28.682 -22.118 -15.409  0.00  0.00    +0.385 N 
ATOM     28  H   UNL     1      29.292 -21.324 -15.607  0.00  0.00    -0.084 HD
ATOM     29  H   UNL     1      28.080 -21.915 -14.611  0.00  0.00    -0.084 HD
BRANCH  27  30
ATOM     30  C   UNL     1      27.843 -22.375 -16.571  0.00  0.00    -0.062 C 
ATOM     31  C   UNL     1      26.390 -22.023 -16.263  0.00  0.00    -0.023 C 
ATOM     32  C   UNL     1      27.977 -23.839 -16.981  0.00  0.00    -0.023 C 
ENDBRANCH  27  30
ENDBRANCH  26  27
ENDBRANCH  25  26
ENDBRANCH  24  25
ENDBRANCH   1  24
TORSDOF 7
ENDMDL
MODEL 7
REMARK VINA RESULT:      -8.0      2.494      5.221
REMARK  Name = 6914564
REMARK  7 active torsions:
REMARK  status: ('A' for Active; 'I' for Inactive)
REMARK    1  A    between atoms: N_1  and  C_24
REMARK    2  A    between atoms: C_6  and  S_13
REMARK    3  A    between atoms: S_13  and  C_17
REMARK    4  A    between atoms: C_24  and  C_25
REMARK    5  A    between atoms: C_25  and  C_26
REMARK    6  A    between atoms: C_26  and  N_27
REMARK    7  A    between atoms: N_27  and  C_30
REMARK                            x       y       z     vdW  Elec       q    Type
REMARK                         _______ _______ _______ _____ _____    ______ ____
ROOT
ATOM      1  N   UNL     1      32.673 -23.262 -16.972  0.00  0.00    -0.241 N 
ATOM      2  N   UNL     1      32.659 -24.295 -14.997  0.00  0.00    -0.375 NA
ATOM      3  N   UNL     1      30.393 -22.425 -17.022  0.00  0.00    -0.227 NA
ATOM      4  N   UNL     1      29.176 -23.050 -15.001  0.00  0.00    -0.227 NA
ATOM      5  C   UNL     1      31.419 -23.083 -16.461  0.00  0.00    +0.168 C 
ATOM      6  C   UNL     1      33.344 -23.986 -16.051  0.00  0.00    +0.220 C 
ATOM      7  C   UNL     1      31.431 -23.730 -15.236  0.00  0.00    +0.196 C 
ATOM      8  C   UNL     1      30.253 -23.698 -14.496  0.00  0.00    +0.155 C 
ATOM      9  C   UNL     1      29.311 -22.462 -16.215  0.00  0.00    +0.253 C 
ATOM     10  N   UNL     1      30.175 -24.328 -13.243  0.00  0.00    -0.341 N 
ATOM     11  H   UNL     1      29.337 -24.300 -12.728  0.00  0.00    +0.144 HD
ATOM     12  H   UNL     1      30.960 -24.799 -12.879  0.00  0.00    +0.144 HD
ENDROOT
BRANCH   6  13
ATOM     13  S   UNL     1      35.030 -24.454 -16.310  0.00  0.00    -0.039 S 
BRANCH  13  17
ATOM     14 BR   UNL     1      37.570 -22.220 -15.872  0.00  0.00    -0.048 Br
ATOM     15  O   UNL     1      35.016 -24.943 -11.171  0.00  0.00    -0.435 OA
ATOM     16  O   UNL     1      36.808 -23.376 -10.795  0.00  0.00    -0.435 OA
ATOM     17  C   UNL     1      35.646 -24.053 -14.673  0.00  0.00    +0.042 C 
ATOM     18  C   UNL     1      35.032 -24.702 -13.600  0.00  0.00    +0.047 C 
ATOM     19  C   UNL     1      35.489 -24.411 -12.330  0.00  0.00    +0.177 C 
ATOM     20  C   UNL     1      36.512 -23.516 -12.116  0.00  0.00    +0.177 C 
ATOM     21  C   UNL     1      36.692 -23.138 -14.455  0.00  0.00    +0.044 C 
ATOM     22  C   UNL     1      37.135 -22.862 -13.159  0.00  0.00    +0.047 C 
ATOM     23  C   UNL     1      35.856 -24.281 -10.202  0.00  0.00    +0.429 C 
ENDBRANCH  13  17
ENDBRANCH   6  13
BRANCH   1  24
ATOM     24  C   UNL     1      33.136 -22.758 -18.247  0.00  0.00    +0.098 C 
BRANCH  24  25
ATOM     25  C   UNL     1      34.571 -22.238 -18.173  0.00  0.00    -0.001 C 
BRANCH  25  26
ATOM     26  C   UNL     1      35.120 -21.947 -19.568  0.00  0.00    -0.080 C 
BRANCH  26  27
ATOM     27  N   UNL     1      35.314 -20.513 -19.746  0.00  0.00    +0.385 N 
ATOM     28  H   UNL     1      36.310 -20.321 -19.853  0.00  0.00    -0.084 HD
ATOM     29  H   UNL     1      34.943 -20.029 -18.928  0.00  0.00    -0.084 HD
BRANCH  27  30
ATOM     30  C   UNL     1      34.608 -20.036 -20.928  0.00  0.00    -0.062 C 
ATOM     31  C   UNL     1      35.161 -18.683 -21.365  0.00  0.00    -0.023 C 
ATOM     32  C   UNL     1      33.115 -19.946 -20.626  0.00  0.00    -0.023 C 
ENDBRANCH  27  30
ENDBRANCH  26  27
ENDBRANCH  25  26
ENDBRANCH  24  25
ENDBRANCH   1  24
TORSDOF 7
ENDMDL
MODEL 8
REMARK VINA RESULT:      -7.9      2.959      5.506
REMARK  Name = 6914564
REMARK  7 active torsions:
REMARK  status: ('A' for Active; 'I' for Inactive)
REMARK    1  A    between atoms: N_1  and  C_24
REMARK    2  A    between atoms: C_6  and  S_13
REMARK    3  A    between atoms: S_13  and  C_17
REMARK    4  A    between atoms: C_24  and  C_25
REMARK    5  A    between atoms: C_25  and  C_26
REMARK    6  A    between atoms: C_26  and  N_27
REMARK    7  A    between atoms: N_27  and  C_30
REMARK                            x       y       z     vdW  Elec       q    Type
REMARK                         _______ _______ _______ _____ _____    ______ ____
ROOT
ATOM      1  N   UNL     1      36.118 -22.026 -17.802  0.00  0.00    -0.241 N 
ATOM      2  N   UNL     1      35.275 -23.246 -16.138  0.00  0.00    -0.375 NA
ATOM      3  N   UNL     1      34.095 -21.611 -19.081  0.00  0.00    -0.227 NA
ATOM      4  N   UNL     1      32.154 -22.655 -18.032  0.00  0.00    -0.227 NA
ATOM      5  C   UNL     1      34.779 -22.130 -18.050  0.00  0.00    +0.168 C 
ATOM      6  C   UNL     1      36.333 -22.710 -16.659  0.00  0.00    +0.220 C 
ATOM      7  C   UNL     1      34.275 -22.890 -17.007  0.00  0.00    +0.196 C 
ATOM      8  C   UNL     1      32.908 -23.148 -17.021  0.00  0.00    +0.155 C 
ATOM      9  C   UNL     1      32.785 -21.927 -18.986  0.00  0.00    +0.253 C 
ATOM     10  N   UNL     1      32.311 -23.911 -16.002  0.00  0.00    -0.341 N 
ATOM     11  H   UNL     1      31.343 -24.088 -16.022  0.00  0.00    +0.144 HD
ATOM     12  H   UNL     1      32.862 -24.269 -15.268  0.00  0.00    +0.144 HD
ENDROOT
BRANCH   6  13
ATOM     13  S   UNL     1      37.953 -22.838 -15.962  0.00  0.00    -0.039 S 
BRANCH  13  17
ATOM     14 BR   UNL     1      39.716 -25.574 -14.942  0.00  0.00    -0.048 Br
ATOM     15  O   UNL     1      35.003 -23.594 -11.794  0.00  0.00    -0.435 OA
ATOM     16  O   UNL     1      36.207 -25.533 -11.021  0.00  0.00    -0.435 OA
ATOM     17  C   UNL     1      37.507 -23.731 -14.472  0.00  0.00    +0.042 C 
ATOM     18  C   UNL     1      36.407 -23.247 -13.761  0.00  0.00    +0.047 C 
ATOM     19  C   UNL     1      36.042 -23.917 -12.611  0.00  0.00    +0.177 C 
ATOM     20  C   UNL     1      36.729 -25.025 -12.170  0.00  0.00    +0.177 C 
ATOM     21  C   UNL     1      38.209 -24.863 -14.021  0.00  0.00    +0.044 C 
ATOM     22  C   UNL     1      37.819 -25.523 -12.853  0.00  0.00    +0.047 C 
ATOM     23  C   UNL     1      35.115 -24.622 -10.787  0.00  0.00    +0.429 C 
ENDBRANCH  13  17
ENDBRANCH   6  13
BRANCH   1  24
ATOM     24  C   UNL     1      37.068 -21.315 -18.629  0.00  0.00    +0.098 C 
BRANCH  24  25
ATOM     25  C   UNL     1      36.563 -21.134 -20.060  0.00  0.00    -0.001 C 
BRANCH  25  26
ATOM     26  C   UNL     1      36.744 -19.691 -20.527  0.00  0.00    -0.080 C 
BRANCH  26  27
ATOM     27  N   UNL     1      35.447 -19.056 -20.723  0.00  0.00    +0.385 N 
ATOM     28  H   UNL     1      35.086 -18.745 -19.821  0.00  0.00    -0.084 HD
ATOM     29  H   UNL     1      34.812 -19.734 -21.146  0.00  0.00    -0.084 HD
BRANCH  27  30
ATOM     30  C   UNL     1      35.560 -17.908 -21.612  0.00  0.00    -0.062 C 
ATOM     31  C   UNL     1      34.666 -16.771 -21.123  0.00  0.00    -0.023 C 
ATOM     32  C   UNL     1      35.187 -18.326 -23.031  0.00  0.00    -0.023 C 
ENDBRANCH  27  30
ENDBRANCH  26  27
ENDBRANCH  25  26
ENDBRANCH  24  25
ENDBRANCH   1  24
TORSDOF 7
ENDMDL
MODEL 9
REMARK VINA RESULT:      -7.8     13.734     16.537
REMARK  Name = 6914564
REMARK  7 active torsions:
REMARK  status: ('A' for Active; 'I' for Inactive)
REMARK    1  A    between atoms: N_1  and  C_24
REMARK    2  A    between atoms: C_6  and  S_13
REMARK    3  A    between atoms: S_13  and  C_17
REMARK    4  A    between atoms: C_24  and  C_25
REMARK    5  A    between atoms: C_25  and  C_26
REMARK    6  A    between atoms: C_26  and  N_27
REMARK    7  A    between atoms: N_27  and  C_30
REMARK                            x       y       z     vdW  Elec       q    Type
REMARK                         _______ _______ _______ _____ _____    ______ ____
ROOT
ATOM      1  N   UNL     1      33.544  -9.128 -23.208  0.00  0.00    -0.241 N 
ATOM      2  N   UNL     1      32.314 -10.888 -22.608  0.00  0.00    -0.375 NA
ATOM      3  N   UNL     1      33.170  -7.684 -21.290  0.00  0.00    -0.227 NA
ATOM      4  N   UNL     1      31.701  -8.746 -19.656  0.00  0.00    -0.227 NA
ATOM      5  C   UNL     1      33.005  -8.816 -21.993  0.00  0.00    +0.168 C 
ATOM      6  C   UNL     1      33.089 -10.364 -23.503  0.00  0.00    +0.220 C 
ATOM      7  C   UNL     1      32.246  -9.919 -21.638  0.00  0.00    +0.196 C 
ATOM      8  C   UNL     1      31.579  -9.858 -20.418  0.00  0.00    +0.155 C 
ATOM      9  C   UNL     1      32.478  -7.742 -20.132  0.00  0.00    +0.253 C 
ATOM     10  N   UNL     1      30.787 -10.933 -19.979  0.00  0.00    -0.341 N 
ATOM     11  H   UNL     1      30.319 -10.879 -19.115  0.00  0.00    +0.144 HD
ATOM     12  H   UNL     1      30.699 -11.740 -20.536  0.00  0.00    +0.144 HD
ENDROOT
BRANCH   6  13
ATOM     13  S   UNL     1      33.546 -11.168 -25.011  0.00  0.00    -0.039 S 
BRANCH  13  17
ATOM     14 BR   UNL     1      32.891 -13.891 -26.959  0.00  0.00    -0.048 Br
ATOM     15  O   UNL     1      34.570 -14.531 -21.231  0.00  0.00    -0.435 OA
ATOM     16  O   UNL     1      34.121 -16.494 -22.555  0.00  0.00    -0.435 OA
ATOM     17  C   UNL     1      33.691 -12.835 -24.363  0.00  0.00    +0.042 C 
ATOM     18  C   UNL     1      34.084 -12.951 -23.027  0.00  0.00    +0.047 C 
ATOM     19  C   UNL     1      34.203 -14.223 -22.504  0.00  0.00    +0.177 C 
ATOM     20  C   UNL     1      33.946 -15.344 -23.260  0.00  0.00    +0.177 C 
ATOM     21  C   UNL     1      33.429 -13.980 -25.135  0.00  0.00    +0.044 C 
ATOM     22  C   UNL     1      33.557 -15.256 -24.581  0.00  0.00    +0.047 C 
ATOM     23  C   UNL     1      34.518 -15.973 -21.270  0.00  0.00    +0.429 C 
ENDBRANCH  13  17
ENDBRANCH   6  13
BRANCH   1  24
ATOM     24  C   UNL     1      34.417  -8.271 -23.980  0.00  0.00    +0.098 C 
BRANCH  24  25
ATOM     25  C   UNL     1      33.807  -6.890 -24.216  0.00  0.00    -0.001 C 
BRANCH  25  26
ATOM     26  C   UNL     1      34.407  -6.231 -25.457  0.00  0.00    -0.080 C 
BRANCH  26  27
ATOM     27  N   UNL     1      33.388  -5.468 -26.167  0.00  0.00    +0.385 N 
ATOM     28  H   UNL     1      32.792  -4.993 -25.488  0.00  0.00    -0.084 HD
ATOM     29  H   UNL     1      32.837  -6.110 -26.737  0.00  0.00    -0.084 HD
BRANCH  27  30
ATOM     30  C   UNL     1      33.997  -4.475 -27.041  0.00  0.00    -0.062 C 
ATOM     31  C   UNL     1      33.206  -4.356 -28.340  0.00  0.00    -0.023 C 
ATOM     32  C   UNL     1      35.447  -4.864 -27.317  0.00  0.00    -0.023 C 
ENDBRANCH  27  30
ENDBRANCH  26  27
ENDBRANCH  25  26
ENDBRANCH  24  25
ENDBRANCH   1  24
TORSDOF 7
ENDMDL
