MODEL 1
REMARK VINA RESULT:      -8.1      0.000      0.000
REMARK  Name = 3100
REMARK  6 active torsions:
REMARK  status: ('A' for Active; 'I' for Inactive)
REMARK    1  A    between atoms: C_1  and  C_2
REMARK    2  A    between atoms: C_1  and  C_8
REMARK    3  A    between atoms: C_1  and  O_14
REMARK    4  A    between atoms: O_14  and  C_15
REMARK    5  A    between atoms: C_15  and  C_16
REMARK    6  A    between atoms: C_16  and  N_17
REMARK                            x       y       z     vdW  Elec       q    Type
REMARK                         _______ _______ _______ _____ _____    ______ ____
ROOT
ATOM      1  C   UNL     1      34.217 -18.333 -22.130  0.00  0.00    +0.160 C 
ENDROOT
BRANCH   1   2
ATOM      2  C   UNL     1      34.631 -19.419 -21.158  0.00  0.00    +0.009 C 
ATOM      3  C   UNL     1      35.974 -19.610 -20.893  0.00  0.00    -0.002 C 
ATOM      4  C   UNL     1      33.654 -20.194 -20.558  0.00  0.00    -0.002 C 
ATOM      5  C   UNL     1      36.355 -20.610 -19.998  0.00  0.00    -0.000 C 
ATOM      6  C   UNL     1      34.035 -21.195 -19.663  0.00  0.00    -0.000 C 
ATOM      7  C   UNL     1      35.385 -21.402 -19.383  0.00  0.00    -0.000 C 
ENDBRANCH   1   2
BRANCH   1   8
ATOM      8  C   UNL     1      33.869 -17.027 -21.443  0.00  0.00    +0.009 C 
ATOM      9  C   UNL     1      34.887 -16.163 -21.086  0.00  0.00    -0.002 C 
ATOM     10  C   UNL     1      32.541 -16.732 -21.191  0.00  0.00    -0.002 C 
ATOM     11  C   UNL     1      34.567 -14.960 -20.455  0.00  0.00    -0.000 C 
ATOM     12  C   UNL     1      32.221 -15.529 -20.561  0.00  0.00    -0.000 C 
ATOM     13  C   UNL     1      33.234 -14.644 -20.193  0.00  0.00    -0.000 C 
ENDBRANCH   1   8
BRANCH   1  14
ATOM     14  O   UNL     1      35.222 -18.156 -23.120  0.00  0.00    -0.350 OA
BRANCH  14  15
ATOM     15  C   UNL     1      34.655 -17.973 -24.411  0.00  0.00    +0.120 C 
BRANCH  15  16
ATOM     16  C   UNL     1      34.899 -16.539 -24.853  0.00  0.00    -0.045 C 
BRANCH  16  17
ATOM     17  N   UNL     1      33.654 -15.772 -24.828  0.00  0.00    +0.386 N 
ATOM     18  C   UNL     1      33.209 -15.476 -26.189  0.00  0.00    -0.101 C 
ATOM     19  C   UNL     1      33.829 -14.537 -24.066  0.00  0.00    -0.101 C 
ATOM     20  H   UNL     1      32.937 -16.335 -24.370  0.00  0.00    -0.080 HD
ENDBRANCH  16  17
ENDBRANCH  15  16
ENDBRANCH  14  15
ENDBRANCH   1  14
TORSDOF 6
ENDMDL
MODEL 2
REMARK VINA RESULT:      -7.8      0.597      4.298
REMARK  Name = 3100
REMARK  6 active torsions:
REMARK  status: ('A' for Active; 'I' for Inactive)
REMARK    1  A    between atoms: C_1  and  C_2
REMARK    2  A    between atoms: C_1  and  C_8
REMARK    3  A    between atoms: C_1  and  O_14
REMARK    4  A    between atoms: O_14  and  C_15
REMARK    5  A    between atoms: C_15  and  C_16
REMARK    6  A    between atoms: C_16  and  N_17
REMARK                            x       y       z     vdW  Elec       q    Type
REMARK                         _______ _______ _______ _____ _____    ______ ____
ROOT
ATOM      1  C   UNL     1      34.895 -18.314 -21.857  0.00  0.00    +0.160 C 
ENDROOT
BRANCH   1   2
ATOM      2  C   UNL     1      34.196 -17.093 -21.297  0.00  0.00    +0.009 C 
ATOM      3  C   UNL     1      34.953 -16.011 -20.888  0.00  0.00    -0.002 C 
ATOM      4  C   UNL     1      32.815 -17.089 -21.207  0.00  0.00    -0.002 C 
ATOM      5  C   UNL     1      34.310 -14.887 -20.372  0.00  0.00    -0.000 C 
ATOM      6  C   UNL     1      32.171 -15.965 -20.690  0.00  0.00    -0.000 C 
ATOM      7  C   UNL     1      32.919 -14.863 -20.273  0.00  0.00    -0.000 C 
ENDBRANCH   1   2
BRANCH   1   8
ATOM      8  C   UNL     1      34.761 -19.533 -20.965  0.00  0.00    +0.009 C 
ATOM      9  C   UNL     1      33.500 -20.022 -20.680  0.00  0.00    -0.002 C 
ATOM     10  C   UNL     1      35.904 -20.127 -20.461  0.00  0.00    -0.002 C 
ATOM     11  C   UNL     1      33.376 -21.144 -19.861  0.00  0.00    -0.000 C 
ATOM     12  C   UNL     1      35.781 -21.250 -19.641  0.00  0.00    -0.000 C 
ATOM     13  C   UNL     1      34.517 -21.757 -19.342  0.00  0.00    -0.000 C 
ENDBRANCH   1   8
BRANCH   1  14
ATOM     14  O   UNL     1      34.438 -18.575 -23.178  0.00  0.00    -0.350 OA
BRANCH  14  15
ATOM     15  C   UNL     1      35.023 -17.683 -24.118  0.00  0.00    +0.120 C 
BRANCH  15  16
ATOM     16  C   UNL     1      33.963 -17.275 -25.128  0.00  0.00    -0.045 C 
BRANCH  16  17
ATOM     17  N   UNL     1      34.025 -15.837 -25.389  0.00  0.00    +0.386 N 
ATOM     18  C   UNL     1      33.793 -15.084 -24.157  0.00  0.00    -0.101 C 
ATOM     19  C   UNL     1      33.049 -15.460 -26.411  0.00  0.00    -0.101 C 
ATOM     20  H   UNL     1      34.957 -15.612 -25.735  0.00  0.00    -0.080 HD
ENDBRANCH  16  17
ENDBRANCH  15  16
ENDBRANCH  14  15
ENDBRANCH   1  14
TORSDOF 6
ENDMDL
MODEL 3
REMARK VINA RESULT:      -7.6      1.532      3.407
REMARK  Name = 3100
REMARK  6 active torsions:
REMARK  status: ('A' for Active; 'I' for Inactive)
REMARK    1  A    between atoms: C_1  and  C_2
REMARK    2  A    between atoms: C_1  and  C_8
REMARK    3  A    between atoms: C_1  and  O_14
REMARK    4  A    between atoms: O_14  and  C_15
REMARK    5  A    between atoms: C_15  and  C_16
REMARK    6  A    between atoms: C_16  and  N_17
REMARK                            x       y       z     vdW  Elec       q    Type
REMARK                         _______ _______ _______ _____ _____    ______ ____
ROOT
ATOM      1  C   UNL     1      35.615 -18.236 -21.391  0.00  0.00    +0.160 C 
ENDROOT
BRANCH   1   2
ATOM      2  C   UNL     1      35.084 -19.496 -20.739  0.00  0.00    +0.009 C 
ATOM      3  C   UNL     1      35.979 -20.422 -20.235  0.00  0.00    -0.002 C 
ATOM      4  C   UNL     1      33.717 -19.690 -20.663  0.00  0.00    -0.002 C 
ATOM      5  C   UNL     1      35.491 -21.582 -19.635  0.00  0.00    -0.000 C 
ATOM      6  C   UNL     1      33.228 -20.851 -20.063  0.00  0.00    -0.000 C 
ATOM      7  C   UNL     1      34.115 -21.796 -19.549  0.00  0.00    -0.000 C 
ENDBRANCH   1   2
BRANCH   1   8
ATOM      8  C   UNL     1      35.196 -18.099 -22.842  0.00  0.00    +0.009 C 
ATOM      9  C   UNL     1      35.282 -16.862 -23.453  0.00  0.00    -0.002 C 
ATOM     10  C   UNL     1      34.740 -19.216 -23.519  0.00  0.00    -0.002 C 
ATOM     11  C   UNL     1      34.898 -16.736 -24.788  0.00  0.00    -0.000 C 
ATOM     12  C   UNL     1      34.356 -19.090 -24.854  0.00  0.00    -0.000 C 
ATOM     13  C   UNL     1      34.435 -17.851 -25.488  0.00  0.00    -0.000 C 
ENDBRANCH   1   8
BRANCH   1  14
ATOM     14  O   UNL     1      35.243 -17.096 -20.626  0.00  0.00    -0.350 OA
BRANCH  14  15
ATOM     15  C   UNL     1      33.944 -16.635 -20.974  0.00  0.00    +0.120 C 
BRANCH  15  16
ATOM     16  C   UNL     1      33.852 -15.151 -20.658  0.00  0.00    -0.045 C 
BRANCH  16  17
ATOM     17  N   UNL     1      32.654 -14.567 -21.261  0.00  0.00    +0.386 N 
ATOM     18  C   UNL     1      32.857 -14.350 -22.693  0.00  0.00    -0.101 C 
ATOM     19  C   UNL     1      32.307 -13.312 -20.597  0.00  0.00    -0.101 C 
ATOM     20  H   UNL     1      31.881 -15.222 -21.140  0.00  0.00    -0.080 HD
ENDBRANCH  16  17
ENDBRANCH  15  16
ENDBRANCH  14  15
ENDBRANCH   1  14
TORSDOF 6
ENDMDL
MODEL 4
REMARK VINA RESULT:      -7.5      1.495      4.743
REMARK  Name = 3100
REMARK  6 active torsions:
REMARK  status: ('A' for Active; 'I' for Inactive)
REMARK    1  A    between atoms: C_1  and  C_2
REMARK    2  A    between atoms: C_1  and  C_8
REMARK    3  A    between atoms: C_1  and  O_14
REMARK    4  A    between atoms: O_14  and  C_15
REMARK    5  A    between atoms: C_15  and  C_16
REMARK    6  A    between atoms: C_16  and  N_17
REMARK                            x       y       z     vdW  Elec       q    Type
REMARK                         _______ _______ _______ _____ _____    ______ ____
ROOT
ATOM      1  C   UNL     1      34.474 -18.028 -21.310  0.00  0.00    +0.160 C 
ENDROOT
BRANCH   1   2
ATOM      2  C   UNL     1      34.560 -18.030 -22.822  0.00  0.00    +0.009 C 
ATOM      3  C   UNL     1      34.517 -19.235 -23.498  0.00  0.00    -0.002 C 
ATOM      4  C   UNL     1      34.681 -16.825 -23.492  0.00  0.00    -0.002 C 
ATOM      5  C   UNL     1      34.596 -19.238 -24.890  0.00  0.00    -0.000 C 
ATOM      6  C   UNL     1      34.760 -16.827 -24.885  0.00  0.00    -0.000 C 
ATOM      7  C   UNL     1      34.717 -18.034 -25.584  0.00  0.00    -0.000 C 
ENDBRANCH   1   2
BRANCH   1   8
ATOM      8  C   UNL     1      34.809 -19.374 -20.697  0.00  0.00    +0.009 C 
ATOM      9  C   UNL     1      36.135 -19.732 -20.544  0.00  0.00    -0.002 C 
ATOM     10  C   UNL     1      33.779 -20.210 -20.305  0.00  0.00    -0.002 C 
ATOM     11  C   UNL     1      36.444 -20.969 -19.979  0.00  0.00    -0.000 C 
ATOM     12  C   UNL     1      34.087 -21.448 -19.740  0.00  0.00    -0.000 C 
ATOM     13  C   UNL     1      35.419 -21.827 -19.577  0.00  0.00    -0.000 C 
ENDBRANCH   1   8
BRANCH   1  14
ATOM     14  O   UNL     1      35.286 -16.990 -20.776  0.00  0.00    -0.350 OA
BRANCH  14  15
ATOM     15  C   UNL     1      34.502 -15.991 -20.137  0.00  0.00    +0.120 C 
BRANCH  15  16
ATOM     16  C   UNL     1      34.619 -14.698 -20.927  0.00  0.00    -0.045 C 
BRANCH  16  17
ATOM     17  N   UNL     1      33.295 -14.158 -21.235  0.00  0.00    +0.386 N 
ATOM     18  C   UNL     1      32.271 -15.188 -21.066  0.00  0.00    -0.101 C 
ATOM     19  C   UNL     1      33.264 -13.622 -22.594  0.00  0.00    -0.101 C 
ATOM     20  H   UNL     1      33.098 -13.397 -20.584  0.00  0.00    -0.080 HD
ENDBRANCH  16  17
ENDBRANCH  15  16
ENDBRANCH  14  15
ENDBRANCH   1  14
TORSDOF 6
ENDMDL
MODEL 5
REMARK VINA RESULT:      -7.5      5.589      8.680
REMARK  Name = 3100
REMARK  6 active torsions:
REMARK  status: ('A' for Active; 'I' for Inactive)
REMARK    1  A    between atoms: C_1  and  C_2
REMARK    2  A    between atoms: C_1  and  C_8
REMARK    3  A    between atoms: C_1  and  O_14
REMARK    4  A    between atoms: O_14  and  C_15
REMARK    5  A    between atoms: C_15  and  C_16
REMARK    6  A    between atoms: C_16  and  N_17
REMARK                            x       y       z     vdW  Elec       q    Type
REMARK                         _______ _______ _______ _____ _____    ______ ____
ROOT
ATOM      1  C   UNL     1      32.491  -9.920 -23.315  0.00  0.00    +0.160 C 
ENDROOT
BRANCH   1   2
ATOM      2  C   UNL     1      32.085 -10.079 -21.864  0.00  0.00    +0.009 C 
ATOM      3  C   UNL     1      32.298  -9.033 -20.986  0.00  0.00    -0.002 C 
ATOM      4  C   UNL     1      31.509 -11.267 -21.453  0.00  0.00    -0.002 C 
ATOM      5  C   UNL     1      31.924  -9.179 -19.651  0.00  0.00    -0.000 C 
ATOM      6  C   UNL     1      31.134 -11.414 -20.117  0.00  0.00    -0.000 C 
ATOM      7  C   UNL     1      31.341 -10.369 -19.216  0.00  0.00    -0.000 C 
ENDBRANCH   1   2
BRANCH   1   8
ATOM      8  C   UNL     1      32.520  -8.472 -23.765  0.00  0.00    +0.009 C 
ATOM      9  C   UNL     1      33.740  -7.858 -23.974  0.00  0.00    -0.002 C 
ATOM     10  C   UNL     1      31.325  -7.803 -23.957  0.00  0.00    -0.002 C 
ATOM     11  C   UNL     1      33.768  -6.526 -24.389  0.00  0.00    -0.000 C 
ATOM     12  C   UNL     1      31.352  -6.471 -24.373  0.00  0.00    -0.000 C 
ATOM     13  C   UNL     1      32.573  -5.834 -24.589  0.00  0.00    -0.000 C 
ENDBRANCH   1   8
BRANCH   1  14
ATOM     14  O   UNL     1      33.735 -10.569 -23.547  0.00  0.00    -0.350 OA
BRANCH  14  15
ATOM     15  C   UNL     1      33.611 -11.606 -24.512  0.00  0.00    +0.120 C 
BRANCH  15  16
ATOM     16  C   UNL     1      33.836 -12.942 -23.824  0.00  0.00    -0.045 C 
BRANCH  16  17
ATOM     17  N   UNL     1      33.107 -14.007 -24.513  0.00  0.00    +0.386 N 
ATOM     18  C   UNL     1      33.685 -15.312 -24.193  0.00  0.00    -0.101 C 
ATOM     19  C   UNL     1      33.117 -13.783 -25.957  0.00  0.00    -0.101 C 
ATOM     20  H   UNL     1      32.139 -13.995 -24.191  0.00  0.00    -0.080 HD
ENDBRANCH  16  17
ENDBRANCH  15  16
ENDBRANCH  14  15
ENDBRANCH   1  14
TORSDOF 6
ENDMDL
MODEL 6
REMARK VINA RESULT:      -7.4      5.917      9.688
REMARK  Name = 3100
REMARK  6 active torsions:
REMARK  status: ('A' for Active; 'I' for Inactive)
REMARK    1  A    between atoms: C_1  and  C_2
REMARK    2  A    between atoms: C_1  and  C_8
REMARK    3  A    between atoms: C_1  and  O_14
REMARK    4  A    between atoms: O_14  and  C_15
REMARK    5  A    between atoms: C_15  and  C_16
REMARK    6  A    between atoms: C_16  and  N_17
REMARK                            x       y       z     vdW  Elec       q    Type
REMARK                         _______ _______ _______ _____ _____    ______ ____
ROOT
ATOM      1  C   UNL     1      32.978  -9.357 -23.106  0.00  0.00    +0.160 C 
ENDROOT
BRANCH   1   2
ATOM      2  C   UNL     1      32.515  -8.023 -23.654  0.00  0.00    +0.009 C 
ATOM      3  C   UNL     1      31.159  -7.762 -23.735  0.00  0.00    -0.002 C 
ATOM      4  C   UNL     1      33.459  -7.097 -24.060  0.00  0.00    -0.002 C 
ATOM      5  C   UNL     1      30.732  -6.534 -24.239  0.00  0.00    -0.000 C 
ATOM      6  C   UNL     1      33.032  -5.868 -24.564  0.00  0.00    -0.000 C 
ATOM      7  C   UNL     1      31.669  -5.587 -24.653  0.00  0.00    -0.000 C 
ENDBRANCH   1   2
BRANCH   1   8
ATOM      8  C   UNL     1      32.273  -9.745 -21.821  0.00  0.00    +0.009 C 
ATOM      9  C   UNL     1      31.503 -10.893 -21.796  0.00  0.00    -0.002 C 
ATOM     10  C   UNL     1      32.420  -8.942 -20.704  0.00  0.00    -0.002 C 
ATOM     11  C   UNL     1      30.856 -11.251 -20.614  0.00  0.00    -0.000 C 
ATOM     12  C   UNL     1      31.772  -9.300 -19.521  0.00  0.00    -0.000 C 
ATOM     13  C   UNL     1      30.991 -10.454 -19.476  0.00  0.00    -0.000 C 
ENDBRANCH   1   8
BRANCH   1  14
ATOM     14  O   UNL     1      32.850 -10.364 -24.102  0.00  0.00    -0.350 OA
BRANCH  14  15
ATOM     15  C   UNL     1      34.098 -10.990 -24.374  0.00  0.00    +0.120 C 
BRANCH  15  16
ATOM     16  C   UNL     1      33.861 -12.164 -25.310  0.00  0.00    -0.045 C 
BRANCH  16  17
ATOM     17  N   UNL     1      33.215 -13.268 -24.600  0.00  0.00    +0.386 N 
ATOM     18  C   UNL     1      33.970 -13.613 -23.396  0.00  0.00    -0.101 C 
ATOM     19  C   UNL     1      33.085 -14.432 -25.474  0.00  0.00    -0.101 C 
ATOM     20  H   UNL     1      32.281 -12.969 -24.320  0.00  0.00    -0.080 HD
ENDBRANCH  16  17
ENDBRANCH  15  16
ENDBRANCH  14  15
ENDBRANCH   1  14
TORSDOF 6
ENDMDL
MODEL 7
REMARK VINA RESULT:      -7.3      7.072     10.130
REMARK  Name = 3100
REMARK  6 active torsions:
REMARK  status: ('A' for Active; 'I' for Inactive)
REMARK    1  A    between atoms: C_1  and  C_2
REMARK    2  A    between atoms: C_1  and  C_8
REMARK    3  A    between atoms: C_1  and  O_14
REMARK    4  A    between atoms: O_14  and  C_15
REMARK    5  A    between atoms: C_15  and  C_16
REMARK    6  A    between atoms: C_16  and  N_17
REMARK                            x       y       z     vdW  Elec       q    Type
REMARK                         _______ _______ _______ _____ _____    ______ ____
ROOT
ATOM      1  C   UNL     1      35.007 -23.480 -14.948  0.00  0.00    +0.160 C 
ENDROOT
BRANCH   1   2
ATOM      2  C   UNL     1      36.167 -24.290 -14.405  0.00  0.00    +0.009 C 
ATOM      3  C   UNL     1      36.465 -25.510 -14.981  0.00  0.00    -0.002 C 
ATOM      4  C   UNL     1      36.900 -23.788 -13.344  0.00  0.00    -0.002 C 
ATOM      5  C   UNL     1      37.533 -26.255 -14.482  0.00  0.00    -0.000 C 
ATOM      6  C   UNL     1      37.968 -24.533 -12.844  0.00  0.00    -0.000 C 
ATOM      7  C   UNL     1      38.284 -25.767 -13.413  0.00  0.00    -0.000 C 
ENDBRANCH   1   2
BRANCH   1   8
ATOM      8  C   UNL     1      35.293 -22.879 -16.310  0.00  0.00    +0.009 C 
ATOM      9  C   UNL     1      34.321 -22.947 -17.291  0.00  0.00    -0.002 C 
ATOM     10  C   UNL     1      36.517 -22.277 -16.537  0.00  0.00    -0.002 C 
ATOM     11  C   UNL     1      34.583 -22.393 -18.545  0.00  0.00    -0.000 C 
ATOM     12  C   UNL     1      36.779 -21.723 -17.791  0.00  0.00    -0.000 C 
ATOM     13  C   UNL     1      35.812 -21.781 -18.794  0.00  0.00    -0.000 C 
ENDBRANCH   1   8
BRANCH   1  14
ATOM     14  O   UNL     1      33.824 -24.268 -14.957  0.00  0.00    -0.350 OA
BRANCH  14  15
ATOM     15  C   UNL     1      32.945 -23.903 -13.900  0.00  0.00    +0.120 C 
BRANCH  15  16
ATOM     16  C   UNL     1      31.919 -25.009 -13.714  0.00  0.00    -0.045 C 
BRANCH  16  17
ATOM     17  N   UNL     1      30.566 -24.503 -13.944  0.00  0.00    +0.386 N 
ATOM     18  C   UNL     1      29.849 -25.367 -14.881  0.00  0.00    -0.101 C 
ATOM     19  C   UNL     1      30.612 -23.130 -14.444  0.00  0.00    -0.101 C 
ATOM     20  H   UNL     1      30.066 -24.506 -13.055  0.00  0.00    -0.080 HD
ENDBRANCH  16  17
ENDBRANCH  15  16
ENDBRANCH  14  15
ENDBRANCH   1  14
TORSDOF 6
ENDMDL
MODEL 8
REMARK VINA RESULT:      -7.3      3.336      5.898
REMARK  Name = 3100
REMARK  6 active torsions:
REMARK  status: ('A' for Active; 'I' for Inactive)
REMARK    1  A    between atoms: C_1  and  C_2
REMARK    2  A    between atoms: C_1  and  C_8
REMARK    3  A    between atoms: C_1  and  O_14
REMARK    4  A    between atoms: O_14  and  C_15
REMARK    5  A    between atoms: C_15  and  C_16
REMARK    6  A    between atoms: C_16  and  N_17
REMARK                            x       y       z     vdW  Elec       q    Type
REMARK                         _______ _______ _______ _____ _____    ______ ____
ROOT
ATOM      1  C   UNL     1      33.369 -13.518 -22.774  0.00  0.00    +0.160 C 
ENDROOT
BRANCH   1   2
ATOM      2  C   UNL     1      34.048 -14.807 -22.358  0.00  0.00    +0.009 C 
ATOM      3  C   UNL     1      34.681 -15.575 -23.318  0.00  0.00    -0.002 C 
ATOM      4  C   UNL     1      34.018 -15.185 -21.028  0.00  0.00    -0.002 C 
ATOM      5  C   UNL     1      35.306 -16.761 -22.936  0.00  0.00    -0.000 C 
ATOM      6  C   UNL     1      34.643 -16.372 -20.645  0.00  0.00    -0.000 C 
ATOM      7  C   UNL     1      35.287 -17.160 -21.599  0.00  0.00    -0.000 C 
ENDBRANCH   1   2
BRANCH   1   8
ATOM      8  C   UNL     1      33.371 -13.306 -24.275  0.00  0.00    +0.009 C 
ATOM      9  C   UNL     1      32.853 -14.292 -25.094  0.00  0.00    -0.002 C 
ATOM     10  C   UNL     1      33.891 -12.132 -24.789  0.00  0.00    -0.002 C 
ATOM     11  C   UNL     1      32.853 -14.098 -26.475  0.00  0.00    -0.000 C 
ATOM     12  C   UNL     1      33.891 -11.937 -26.171  0.00  0.00    -0.000 C 
ATOM     13  C   UNL     1      33.373 -12.920 -27.013  0.00  0.00    -0.000 C 
ENDBRANCH   1   8
BRANCH   1  14
ATOM     14  O   UNL     1      32.054 -13.463 -22.236  0.00  0.00    -0.350 OA
BRANCH  14  15
ATOM     15  C   UNL     1      31.906 -12.378 -21.329  0.00  0.00    +0.120 C 
BRANCH  15  16
ATOM     16  C   UNL     1      31.245 -11.219 -22.057  0.00  0.00    -0.045 C 
BRANCH  16  17
ATOM     17  N   UNL     1      32.132 -10.056 -22.091  0.00  0.00    +0.386 N 
ATOM     18  C   UNL     1      31.965  -9.251 -20.881  0.00  0.00    -0.101 C 
ATOM     19  C   UNL     1      31.874  -9.250 -23.282  0.00  0.00    -0.101 C 
ATOM     20  H   UNL     1      33.096 -10.387 -22.128  0.00  0.00    -0.080 HD
ENDBRANCH  16  17
ENDBRANCH  15  16
ENDBRANCH  14  15
ENDBRANCH   1  14
TORSDOF 6
ENDMDL
MODEL 9
REMARK VINA RESULT:      -7.3      6.949     10.455
REMARK  Name = 3100
REMARK  6 active torsions:
REMARK  status: ('A' for Active; 'I' for Inactive)
REMARK    1  A    between atoms: C_1  and  C_2
REMARK    2  A    between atoms: C_1  and  C_8
REMARK    3  A    between atoms: C_1  and  O_14
REMARK    4  A    between atoms: O_14  and  C_15
REMARK    5  A    between atoms: C_15  and  C_16
REMARK    6  A    between atoms: C_16  and  N_17
REMARK                            x       y       z     vdW  Elec       q    Type
REMARK                         _______ _______ _______ _____ _____    ______ ____
ROOT
ATOM      1  C   UNL     1      34.689 -23.644 -15.495  0.00  0.00    +0.160 C 
ENDROOT
BRANCH   1   2
ATOM      2  C   UNL     1      34.736 -22.992 -16.862  0.00  0.00    +0.009 C 
ATOM      3  C   UNL     1      35.864 -22.284 -17.233  0.00  0.00    -0.002 C 
ATOM      4  C   UNL     1      33.649 -23.121 -17.708  0.00  0.00    -0.002 C 
ATOM      5  C   UNL     1      35.908 -21.684 -18.490  0.00  0.00    -0.000 C 
ATOM      6  C   UNL     1      33.692 -22.521 -18.967  0.00  0.00    -0.000 C 
ATOM      7  C   UNL     1      34.821 -21.803 -19.358  0.00  0.00    -0.000 C 
ENDBRANCH   1   2
BRANCH   1   8
ATOM      8  C   UNL     1      33.284 -23.729 -14.929  0.00  0.00    +0.009 C 
ATOM      9  C   UNL     1      32.904 -24.868 -14.245  0.00  0.00    -0.002 C 
ATOM     10  C   UNL     1      32.420 -22.665 -15.110  0.00  0.00    -0.002 C 
ATOM     11  C   UNL     1      31.612 -24.947 -13.723  0.00  0.00    -0.000 C 
ATOM     12  C   UNL     1      31.129 -22.743 -14.587  0.00  0.00    -0.000 C 
ATOM     13  C   UNL     1      30.725 -23.884 -13.895  0.00  0.00    -0.000 C 
ENDBRANCH   1   8
BRANCH   1  14
ATOM     14  O   UNL     1      35.317 -24.918 -15.540  0.00  0.00    -0.350 OA
BRANCH  14  15
ATOM     15  C   UNL     1      36.629 -24.873 -14.993  0.00  0.00    +0.120 C 
BRANCH  15  16
ATOM     16  C   UNL     1      37.198 -26.283 -14.973  0.00  0.00    -0.045 C 
BRANCH  16  17
ATOM     17  N   UNL     1      38.057 -26.476 -13.806  0.00  0.00    +0.386 N 
ATOM     18  C   UNL     1      37.343 -26.122 -12.580  0.00  0.00    -0.101 C 
ATOM     19  C   UNL     1      39.279 -25.683 -13.933  0.00  0.00    -0.101 C 
ATOM     20  H   UNL     1      38.316 -27.461 -13.755  0.00  0.00    -0.080 HD
ENDBRANCH  16  17
ENDBRANCH  15  16
ENDBRANCH  14  15
ENDBRANCH   1  14
TORSDOF 6
ENDMDL
