MODEL 1
REMARK VINA RESULT:      -8.2      0.000      0.000
REMARK  Name = 92196
REMARK  1 active torsions:
REMARK  status: ('A' for Active; 'I' for Inactive)
REMARK    1  A    between atoms: C_4  and  C_10
REMARK                            x       y       z     vdW  Elec       q    Type
REMARK                         _______ _______ _______ _____ _____    ______ ____
ROOT
ATOM      1  O   UNL     1      34.167 -17.467 -20.967  0.00  0.00    -0.447 OA
ATOM      2  N   UNL     1      35.413 -17.048 -22.834  0.00  0.00    -0.223 NA
ATOM      3  N   UNL     1      34.709 -15.287 -21.375  0.00  0.00    -0.313 N 
ATOM      4  C   UNL     1      34.151 -18.696 -21.694  0.00  0.00    +0.213 C 
ATOM      5  C   UNL     1      35.265 -18.509 -22.717  0.00  0.00    +0.152 C 
ATOM      6  C   UNL     1      34.934 -19.104 -24.075  0.00  0.00    +0.031 C 
ATOM      7  C   UNL     1      34.808 -16.583 -21.785  0.00  0.00    +0.277 C 
ATOM      8  H   UNL     1      34.216 -15.067 -20.553  0.00  0.00    +0.147 HD
ATOM      9  H   UNL     1      35.132 -14.571 -21.903  0.00  0.00    +0.147 HD
ENDROOT
BRANCH   4  10
ATOM     10  C   UNL     1      34.361 -19.876 -20.779  0.00  0.00    +0.019 C 
ATOM     11  C   UNL     1      35.652 -20.331 -20.505  0.00  0.00    -0.001 C 
ATOM     12  C   UNL     1      33.262 -20.518 -20.202  0.00  0.00    -0.001 C 
ATOM     13  C   UNL     1      35.846 -21.423 -19.659  0.00  0.00    -0.000 C 
ATOM     14  C   UNL     1      33.456 -21.610 -19.356  0.00  0.00    -0.000 C 
ATOM     15  C   UNL     1      34.747 -22.062 -19.084  0.00  0.00    -0.000 C 
ENDBRANCH   4  10
TORSDOF 1
ENDMDL
MODEL 2
REMARK VINA RESULT:      -8.2      1.395      2.288
REMARK  Name = 92196
REMARK  1 active torsions:
REMARK  status: ('A' for Active; 'I' for Inactive)
REMARK    1  A    between atoms: C_4  and  C_10
REMARK                            x       y       z     vdW  Elec       q    Type
REMARK                         _______ _______ _______ _____ _____    ______ ____
ROOT
ATOM      1  O   UNL     1      35.324 -18.087 -23.239  0.00  0.00    -0.447 OA
ATOM      2  N   UNL     1      34.309 -16.050 -23.057  0.00  0.00    -0.223 NA
ATOM      3  N   UNL     1      35.087 -16.878 -25.162  0.00  0.00    -0.313 N 
ATOM      4  C   UNL     1      35.256 -17.843 -21.834  0.00  0.00    +0.213 C 
ATOM      5  C   UNL     1      34.269 -16.687 -21.729  0.00  0.00    +0.152 C 
ATOM      6  C   UNL     1      34.646 -15.675 -20.660  0.00  0.00    +0.031 C 
ATOM      7  C   UNL     1      34.870 -16.938 -23.818  0.00  0.00    +0.277 C 
ATOM      8  H   UNL     1      35.528 -17.628 -25.623  0.00  0.00    +0.147 HD
ATOM      9  H   UNL     1      34.802 -16.085 -25.672  0.00  0.00    +0.147 HD
ENDROOT
BRANCH   4  10
ATOM     10  C   UNL     1      34.825 -19.078 -21.084  0.00  0.00    +0.019 C 
ATOM     11  C   UNL     1      35.782 -19.968 -20.590  0.00  0.00    -0.001 C 
ATOM     12  C   UNL     1      33.467 -19.336 -20.881  0.00  0.00    -0.001 C 
ATOM     13  C   UNL     1      35.383 -21.111 -19.897  0.00  0.00    -0.000 C 
ATOM     14  C   UNL     1      33.069 -20.479 -20.188  0.00  0.00    -0.000 C 
ATOM     15  C   UNL     1      34.026 -21.366 -19.696  0.00  0.00    -0.000 C 
ENDBRANCH   4  10
TORSDOF 1
ENDMDL
MODEL 3
REMARK VINA RESULT:      -7.6      2.429      4.833
REMARK  Name = 92196
REMARK  1 active torsions:
REMARK  status: ('A' for Active; 'I' for Inactive)
REMARK    1  A    between atoms: C_4  and  C_10
REMARK                            x       y       z     vdW  Elec       q    Type
REMARK                         _______ _______ _______ _____ _____    ______ ____
ROOT
ATOM      1  O   UNL     1      33.430 -19.232 -20.832  0.00  0.00    -0.447 OA
ATOM      2  N   UNL     1      34.888 -20.851 -20.148  0.00  0.00    -0.223 NA
ATOM      3  N   UNL     1      32.579 -20.899 -19.525  0.00  0.00    -0.313 N 
ATOM      4  C   UNL     1      34.720 -18.720 -21.169  0.00  0.00    +0.213 C 
ATOM      5  C   UNL     1      35.621 -19.942 -21.047  0.00  0.00    +0.152 C 
ATOM      6  C   UNL     1      36.984 -19.622 -20.458  0.00  0.00    +0.031 C 
ATOM      7  C   UNL     1      33.677 -20.385 -20.147  0.00  0.00    +0.277 C 
ATOM      8  H   UNL     1      31.710 -20.444 -19.604  0.00  0.00    +0.147 HD
ATOM      9  H   UNL     1      32.655 -21.728 -18.997  0.00  0.00    +0.147 HD
ENDROOT
BRANCH   4  10
ATOM     10  C   UNL     1      34.721 -18.099 -22.543  0.00  0.00    +0.019 C 
ATOM     11  C   UNL     1      34.601 -18.906 -23.677  0.00  0.00    -0.001 C 
ATOM     12  C   UNL     1      34.844 -16.715 -22.686  0.00  0.00    -0.001 C 
ATOM     13  C   UNL     1      34.603 -18.331 -24.948  0.00  0.00    -0.000 C 
ATOM     14  C   UNL     1      34.846 -16.141 -23.958  0.00  0.00    -0.000 C 
ATOM     15  C   UNL     1      34.725 -16.949 -25.088  0.00  0.00    -0.000 C 
ENDBRANCH   4  10
TORSDOF 1
ENDMDL
MODEL 4
REMARK VINA RESULT:      -7.5      3.071      4.582
REMARK  Name = 92196
REMARK  1 active torsions:
REMARK  status: ('A' for Active; 'I' for Inactive)
REMARK    1  A    between atoms: C_4  and  C_10
REMARK                            x       y       z     vdW  Elec       q    Type
REMARK                         _______ _______ _______ _____ _____    ______ ____
ROOT
ATOM      1  O   UNL     1      34.694 -14.355 -23.451  0.00  0.00    -0.447 OA
ATOM      2  N   UNL     1      32.815 -13.566 -22.421  0.00  0.00    -0.223 NA
ATOM      3  N   UNL     1      34.071 -12.214 -23.944  0.00  0.00    -0.313 N 
ATOM      4  C   UNL     1      34.398 -15.327 -22.448  0.00  0.00    +0.213 C 
ATOM      5  C   UNL     1      32.973 -14.980 -22.037  0.00  0.00    +0.152 C 
ATOM      6  C   UNL     1      32.727 -15.140 -20.546  0.00  0.00    +0.031 C 
ATOM      7  C   UNL     1      33.796 -13.349 -23.243  0.00  0.00    +0.277 C 
ATOM      8  H   UNL     1      34.854 -12.181 -24.538  0.00  0.00    +0.147 HD
ATOM      9  H   UNL     1      33.485 -11.427 -23.856  0.00  0.00    +0.147 HD
ENDROOT
BRANCH   4  10
ATOM     10  C   UNL     1      34.551 -16.729 -22.983  0.00  0.00    +0.019 C 
ATOM     11  C   UNL     1      34.476 -16.967 -24.357  0.00  0.00    -0.001 C 
ATOM     12  C   UNL     1      34.765 -17.794 -22.105  0.00  0.00    -0.001 C 
ATOM     13  C   UNL     1      34.617 -18.264 -24.852  0.00  0.00    -0.000 C 
ATOM     14  C   UNL     1      34.906 -19.091 -22.600  0.00  0.00    -0.000 C 
ATOM     15  C   UNL     1      34.832 -19.326 -23.972  0.00  0.00    -0.000 C 
ENDBRANCH   4  10
TORSDOF 1
ENDMDL
MODEL 5
REMARK VINA RESULT:      -7.4      2.433      4.911
REMARK  Name = 92196
REMARK  1 active torsions:
REMARK  status: ('A' for Active; 'I' for Inactive)
REMARK    1  A    between atoms: C_4  and  C_10
REMARK                            x       y       z     vdW  Elec       q    Type
REMARK                         _______ _______ _______ _____ _____    ______ ____
ROOT
ATOM      1  O   UNL     1      35.701 -17.901 -20.879  0.00  0.00    -0.447 OA
ATOM      2  N   UNL     1      35.075 -19.757 -22.052  0.00  0.00    -0.223 NA
ATOM      3  N   UNL     1      36.247 -19.925 -19.974  0.00  0.00    -0.313 N 
ATOM      4  C   UNL     1      35.285 -17.400 -22.149  0.00  0.00    +0.213 C 
ATOM      5  C   UNL     1      34.543 -18.580 -22.763  0.00  0.00    +0.152 C 
ATOM      6  C   UNL     1      34.783 -18.726 -24.256  0.00  0.00    +0.031 C 
ATOM      7  C   UNL     1      35.652 -19.259 -21.003  0.00  0.00    +0.277 C 
ATOM      8  H   UNL     1      36.652 -19.423 -19.232  0.00  0.00    +0.147 HD
ATOM      9  H   UNL     1      36.271 -20.910 -19.974  0.00  0.00    +0.147 HD
ENDROOT
BRANCH   4  10
ATOM     10  C   UNL     1      34.438 -16.162 -21.999  0.00  0.00    +0.019 C 
ATOM     11  C   UNL     1      34.548 -15.120 -22.922  0.00  0.00    -0.001 C 
ATOM     12  C   UNL     1      33.540 -16.053 -20.934  0.00  0.00    -0.001 C 
ATOM     13  C   UNL     1      33.764 -13.974 -22.782  0.00  0.00    -0.000 C 
ATOM     14  C   UNL     1      32.756 -14.908 -20.794  0.00  0.00    -0.000 C 
ATOM     15  C   UNL     1      32.868 -13.869 -21.718  0.00  0.00    -0.000 C 
ENDBRANCH   4  10
TORSDOF 1
ENDMDL
MODEL 6
REMARK VINA RESULT:      -7.2      4.035      5.641
REMARK  Name = 92196
REMARK  1 active torsions:
REMARK  status: ('A' for Active; 'I' for Inactive)
REMARK    1  A    between atoms: C_4  and  C_10
REMARK                            x       y       z     vdW  Elec       q    Type
REMARK                         _______ _______ _______ _____ _____    ______ ____
ROOT
ATOM      1  O   UNL     1      36.502 -22.023 -18.281  0.00  0.00    -0.447 OA
ATOM      2  N   UNL     1      35.335 -22.846 -16.499  0.00  0.00    -0.223 NA
ATOM      3  N   UNL     1      37.707 -22.545 -16.413  0.00  0.00    -0.313 N 
ATOM      4  C   UNL     1      35.201 -22.303 -18.800  0.00  0.00    +0.213 C 
ATOM      5  C   UNL     1      34.359 -22.493 -17.545  0.00  0.00    +0.152 C 
ATOM      6  C   UNL     1      33.326 -23.598 -17.681  0.00  0.00    +0.031 C 
ATOM      7  C   UNL     1      36.479 -22.496 -17.001  0.00  0.00    +0.277 C 
ATOM      8  H   UNL     1      38.502 -22.246 -16.909  0.00  0.00    +0.147 HD
ATOM      9  H   UNL     1      37.797 -22.879 -15.490  0.00  0.00    +0.147 HD
ENDROOT
BRANCH   4  10
ATOM     10  C   UNL     1      34.717 -21.188 -19.692  0.00  0.00    +0.019 C 
ATOM     11  C   UNL     1      35.634 -20.399 -20.390  0.00  0.00    -0.001 C 
ATOM     12  C   UNL     1      33.348 -20.939 -19.823  0.00  0.00    -0.001 C 
ATOM     13  C   UNL     1      35.186 -19.368 -21.216  0.00  0.00    -0.000 C 
ATOM     14  C   UNL     1      32.900 -19.908 -20.648  0.00  0.00    -0.000 C 
ATOM     15  C   UNL     1      33.819 -19.123 -21.344  0.00  0.00    -0.000 C 
ENDBRANCH   4  10
TORSDOF 1
ENDMDL
MODEL 7
REMARK VINA RESULT:      -7.1      6.769      8.476
REMARK  Name = 92196
REMARK  1 active torsions:
REMARK  status: ('A' for Active; 'I' for Inactive)
REMARK    1  A    between atoms: C_4  and  C_10
REMARK                            x       y       z     vdW  Elec       q    Type
REMARK                         _______ _______ _______ _____ _____    ______ ____
ROOT
ATOM      1  O   UNL     1      29.358 -22.392 -16.874  0.00  0.00    -0.447 OA
ATOM      2  N   UNL     1      28.068 -24.265 -16.675  0.00  0.00    -0.223 NA
ATOM      3  N   UNL     1      27.353 -22.383 -17.966  0.00  0.00    -0.313 N 
ATOM      4  C   UNL     1      29.983 -23.151 -15.839  0.00  0.00    +0.213 C 
ATOM      5  C   UNL     1      29.341 -24.525 -15.979  0.00  0.00    +0.152 C 
ATOM      6  C   UNL     1      29.071 -25.196 -14.643  0.00  0.00    +0.031 C 
ATOM      7  C   UNL     1      28.215 -23.076 -17.171  0.00  0.00    +0.277 C 
ATOM      8  H   UNL     1      27.588 -21.480 -18.277  0.00  0.00    +0.147 HD
ATOM      9  H   UNL     1      26.495 -22.788 -18.231  0.00  0.00    +0.147 HD
ENDROOT
BRANCH   4  10
ATOM     10  C   UNL     1      31.483 -23.163 -15.999  0.00  0.00    +0.019 C 
ATOM     11  C   UNL     1      32.054 -23.047 -17.268  0.00  0.00    -0.001 C 
ATOM     12  C   UNL     1      32.306 -23.293 -14.878  0.00  0.00    -0.001 C 
ATOM     13  C   UNL     1      33.441 -23.059 -17.416  0.00  0.00    -0.000 C 
ATOM     14  C   UNL     1      33.693 -23.305 -15.025  0.00  0.00    -0.000 C 
ATOM     15  C   UNL     1      34.260 -23.188 -16.294  0.00  0.00    -0.000 C 
ENDBRANCH   4  10
TORSDOF 1
ENDMDL
MODEL 8
REMARK VINA RESULT:      -7.0      4.655      6.154
REMARK  Name = 92196
REMARK  1 active torsions:
REMARK  status: ('A' for Active; 'I' for Inactive)
REMARK    1  A    between atoms: C_4  and  C_10
REMARK                            x       y       z     vdW  Elec       q    Type
REMARK                         _______ _______ _______ _____ _____    ______ ____
ROOT
ATOM      1  O   UNL     1      32.103 -13.608 -22.898  0.00  0.00    -0.447 OA
ATOM      2  N   UNL     1      32.973 -11.519 -23.205  0.00  0.00    -0.223 NA
ATOM      3  N   UNL     1      31.235 -11.932 -21.613  0.00  0.00    -0.313 N 
ATOM      4  C   UNL     1      32.894 -13.718 -24.081  0.00  0.00    +0.213 C 
ATOM      5  C   UNL     1      33.736 -12.449 -24.056  0.00  0.00    +0.152 C 
ATOM      6  C   UNL     1      33.940 -11.840 -25.433  0.00  0.00    +0.031 C 
ATOM      7  C   UNL     1      32.132 -12.282 -22.577  0.00  0.00    +0.277 C 
ATOM      8  H   UNL     1      30.650 -12.614 -21.214  0.00  0.00    +0.147 HD
ATOM      9  H   UNL     1      31.173 -10.994 -21.317  0.00  0.00    +0.147 HD
ENDROOT
BRANCH   4  10
ATOM     10  C   UNL     1      33.709 -14.987 -24.079  0.00  0.00    +0.019 C 
ATOM     11  C   UNL     1      34.425 -15.359 -22.939  0.00  0.00    -0.001 C 
ATOM     12  C   UNL     1      33.751 -15.794 -25.218  0.00  0.00    -0.001 C 
ATOM     13  C   UNL     1      35.179 -16.533 -22.938  0.00  0.00    -0.000 C 
ATOM     14  C   UNL     1      34.505 -16.968 -25.217  0.00  0.00    -0.000 C 
ATOM     15  C   UNL     1      35.219 -17.337 -24.077  0.00  0.00    -0.000 C 
ENDBRANCH   4  10
TORSDOF 1
ENDMDL
MODEL 9
REMARK VINA RESULT:      -7.0      5.239      7.097
REMARK  Name = 92196
REMARK  1 active torsions:
REMARK  status: ('A' for Active; 'I' for Inactive)
REMARK    1  A    between atoms: C_4  and  C_10
REMARK                            x       y       z     vdW  Elec       q    Type
REMARK                         _______ _______ _______ _____ _____    ______ ____
ROOT
ATOM      1  O   UNL     1      34.682 -24.007 -16.639  0.00  0.00    -0.447 OA
ATOM      2  N   UNL     1      33.109 -23.625 -15.028  0.00  0.00    -0.223 NA
ATOM      3  N   UNL     1      35.077 -24.910 -14.579  0.00  0.00    -0.313 N 
ATOM      4  C   UNL     1      33.570 -23.455 -17.344  0.00  0.00    +0.213 C 
ATOM      5  C   UNL     1      32.703 -22.880 -16.232  0.00  0.00    +0.152 C 
ATOM      6  C   UNL     1      31.215 -23.067 -16.477  0.00  0.00    +0.031 C 
ATOM      7  C   UNL     1      34.241 -24.167 -15.357  0.00  0.00    +0.277 C 
ATOM      8  H   UNL     1      35.913 -25.266 -14.956  0.00  0.00    +0.147 HD
ATOM      9  H   UNL     1      34.844 -25.090 -13.639  0.00  0.00    +0.147 HD
ENDROOT
BRANCH   4  10
ATOM     10  C   UNL     1      34.018 -22.431 -18.356  0.00  0.00    +0.019 C 
ATOM     11  C   UNL     1      33.074 -21.740 -19.120  0.00  0.00    -0.001 C 
ATOM     12  C   UNL     1      35.378 -22.170 -18.534  0.00  0.00    -0.001 C 
ATOM     13  C   UNL     1      33.488 -20.793 -20.056  0.00  0.00    -0.000 C 
ATOM     14  C   UNL     1      35.793 -21.223 -19.471  0.00  0.00    -0.000 C 
ATOM     15  C   UNL     1      34.848 -20.534 -20.231  0.00  0.00    -0.000 C 
ENDBRANCH   4  10
TORSDOF 1
ENDMDL
