MODEL 1
REMARK VINA RESULT:      -5.2      0.000      0.000
REMARK  Name = 446158
REMARK  10 active torsions:
REMARK  status: ('A' for Active; 'I' for Inactive)
REMARK    1  A    between atoms: N_2  and  C_27
REMARK    2  A    between atoms: N_3  and  C_30
REMARK    3  A    between atoms: C_4  and  C_13
REMARK    4  A    between atoms: C_5  and  C_20
REMARK    5  A    between atoms: C_6  and  O_9
REMARK    6  A    between atoms: C_7  and  O_11
REMARK    7  A    between atoms: C_13  and  C_14
REMARK    8  A    between atoms: C_20  and  C_21
REMARK    9  A    between atoms: C_27  and  C_28
REMARK   10  A    between atoms: C_30  and  C_31
REMARK                            x       y       z     vdW  Elec       q    Type
REMARK                         _______ _______ _______ _____ _____    ______ ____
ROOT
ATOM      1  O   UNL     1      34.992  -7.422 -22.016  0.00  0.00    -0.252 OA
ATOM      2  N   UNL     1      33.539  -7.094 -23.774  0.00  0.00    -0.259 N 
ATOM      3  N   UNL     1      32.896  -8.362 -21.845  0.00  0.00    -0.259 N 
ATOM      4  C   UNL     1      32.199  -6.587 -24.119  0.00  0.00    +0.111 C 
ATOM      5  C   UNL     1      31.938  -9.255 -22.524  0.00  0.00    +0.111 C 
ATOM      6  C   UNL     1      31.177  -7.688 -24.413  0.00  0.00    +0.157 C 
ATOM      7  C   UNL     1      30.778  -8.512 -23.194  0.00  0.00    +0.157 C 
ATOM      8  C   UNL     1      33.875  -7.614 -22.515  0.00  0.00    +0.308 C 
ENDROOT
BRANCH   6   9
ATOM      9  O   UNL     1      30.002  -7.063 -24.944  0.00  0.00    -0.380 OA
ATOM     10  H   UNL     1      30.064  -7.027 -25.911  0.00  0.00    +0.211 HD
ENDBRANCH   6   9
BRANCH   7  11
ATOM     11  O   UNL     1      29.785  -9.469 -23.585  0.00  0.00    -0.380 OA
ATOM     12  H   UNL     1      30.066 -10.356 -23.313  0.00  0.00    +0.211 HD
ENDBRANCH   7  11
BRANCH   4  13
ATOM     13  C   UNL     1      31.720  -5.533 -23.111  0.00  0.00    +0.049 C 
BRANCH  13  14
ATOM     14  C   UNL     1      31.447  -4.219 -23.783  0.00  0.00    -0.020 C 
ATOM     15  C   UNL     1      31.225  -3.084 -23.011  0.00  0.00    -0.004 C 
ATOM     16  C   UNL     1      31.415  -4.149 -25.171  0.00  0.00    -0.004 C 
ATOM     17  C   UNL     1      30.969  -1.864 -23.635  0.00  0.00    -0.000 C 
ATOM     18  C   UNL     1      31.159  -2.929 -25.796  0.00  0.00    -0.000 C 
ATOM     19  C   UNL     1      30.936  -1.786 -25.028  0.00  0.00    -0.000 C 
ENDBRANCH  13  14
ENDBRANCH   4  13
BRANCH   5  20
ATOM     20  C   UNL     1      32.664 -10.264 -23.427  0.00  0.00    +0.049 C 
BRANCH  20  21
ATOM     21  C   UNL     1      32.630 -11.645 -22.839  0.00  0.00    -0.020 C 
ATOM     22  C   UNL     1      33.350 -12.668 -23.444  0.00  0.00    -0.004 C 
ATOM     23  C   UNL     1      31.878 -11.887 -21.695  0.00  0.00    -0.004 C 
ATOM     24  C   UNL     1      33.318 -13.951 -22.897  0.00  0.00    -0.000 C 
ATOM     25  C   UNL     1      31.846 -13.170 -21.148  0.00  0.00    -0.000 C 
ATOM     26  C   UNL     1      32.566 -14.202 -21.749  0.00  0.00    -0.000 C 
ENDBRANCH  20  21
ENDBRANCH   5  20
BRANCH   2  27
ATOM     27  C   UNL     1      34.623  -6.667 -24.651  0.00  0.00    +0.121 C 
BRANCH  27  28
ATOM     28  C   UNL     1      34.043  -6.007 -25.858  0.00  0.00    -0.005 C 
ATOM     29  C   UNL     1      34.740  -5.220 -26.685  0.00  0.00    -0.003 C 
ENDBRANCH  27  28
ENDBRANCH   2  27
BRANCH   3  30
ATOM     30  C   UNL     1      33.059  -8.581 -20.413  0.00  0.00    +0.121 C 
BRANCH  30  31
ATOM     31  C   UNL     1      31.757  -9.026 -19.834  0.00  0.00    -0.005 C 
ATOM     32  C   UNL     1      31.638 -10.010 -18.935  0.00  0.00    -0.003 C 
ENDBRANCH  30  31
ENDBRANCH   3  30
TORSDOF 10
ENDMDL
MODEL 2
REMARK VINA RESULT:      -5.2      0.061      7.696
REMARK  Name = 446158
REMARK  10 active torsions:
REMARK  status: ('A' for Active; 'I' for Inactive)
REMARK    1  A    between atoms: N_2  and  C_27
REMARK    2  A    between atoms: N_3  and  C_30
REMARK    3  A    between atoms: C_4  and  C_13
REMARK    4  A    between atoms: C_5  and  C_20
REMARK    5  A    between atoms: C_6  and  O_9
REMARK    6  A    between atoms: C_7  and  O_11
REMARK    7  A    between atoms: C_13  and  C_14
REMARK    8  A    between atoms: C_20  and  C_21
REMARK    9  A    between atoms: C_27  and  C_28
REMARK   10  A    between atoms: C_30  and  C_31
REMARK                            x       y       z     vdW  Elec       q    Type
REMARK                         _______ _______ _______ _____ _____    ______ ____
ROOT
ATOM      1  O   UNL     1      34.982  -7.430 -22.046  0.00  0.00    -0.252 OA
ATOM      2  N   UNL     1      32.885  -8.364 -21.841  0.00  0.00    -0.259 N 
ATOM      3  N   UNL     1      33.499  -7.096 -23.778  0.00  0.00    -0.259 N 
ATOM      4  C   UNL     1      31.922  -9.262 -22.503  0.00  0.00    +0.111 C 
ATOM      5  C   UNL     1      32.151  -6.595 -24.104  0.00  0.00    +0.111 C 
ATOM      6  C   UNL     1      30.750  -8.533 -23.165  0.00  0.00    +0.157 C 
ATOM      7  C   UNL     1      31.137  -7.708 -24.387  0.00  0.00    +0.157 C 
ATOM      8  C   UNL     1      33.856  -7.619 -22.527  0.00  0.00    +0.308 C 
ENDROOT
BRANCH   6   9
ATOM      9  O   UNL     1      29.793  -9.522 -23.567  0.00  0.00    -0.380 OA
ATOM     10  H   UNL     1      29.182  -9.697 -22.835  0.00  0.00    +0.211 HD
ENDBRANCH   6   9
BRANCH   7  11
ATOM     11  O   UNL     1      29.954  -7.121 -24.944  0.00  0.00    -0.380 OA
ATOM     12  H   UNL     1      29.503  -7.773 -25.504  0.00  0.00    +0.211 HD
ENDBRANCH   7  11
BRANCH   4  13
ATOM     13  C   UNL     1      32.633 -10.274 -23.413  0.00  0.00    +0.049 C 
BRANCH  13  14
ATOM     14  C   UNL     1      32.617 -11.651 -22.816  0.00  0.00    -0.020 C 
ATOM     15  C   UNL     1      33.352 -12.669 -23.413  0.00  0.00    -0.004 C 
ATOM     16  C   UNL     1      31.866 -11.896 -21.672  0.00  0.00    -0.004 C 
ATOM     17  C   UNL     1      33.336 -13.948 -22.859  0.00  0.00    -0.000 C 
ATOM     18  C   UNL     1      31.850 -13.176 -21.117  0.00  0.00    -0.000 C 
ATOM     19  C   UNL     1      32.584 -14.202 -21.711  0.00  0.00    -0.000 C 
ENDBRANCH  13  14
ENDBRANCH   4  13
BRANCH   5  20
ATOM     20  C   UNL     1      31.687  -5.544 -23.085  0.00  0.00    +0.049 C 
BRANCH  20  21
ATOM     21  C   UNL     1      31.409  -4.226 -23.748  0.00  0.00    -0.020 C 
ATOM     22  C   UNL     1      31.232  -3.088 -22.969  0.00  0.00    -0.004 C 
ATOM     23  C   UNL     1      31.333  -4.156 -25.134  0.00  0.00    -0.004 C 
ATOM     24  C   UNL     1      30.974  -1.864 -23.586  0.00  0.00    -0.000 C 
ATOM     25  C   UNL     1      31.075  -2.931 -25.751  0.00  0.00    -0.000 C 
ATOM     26  C   UNL     1      30.896  -1.786 -24.976  0.00  0.00    -0.000 C 
ENDBRANCH  20  21
ENDBRANCH   5  20
BRANCH   2  27
ATOM     27  C   UNL     1      33.070  -8.579 -20.410  0.00  0.00    +0.121 C 
BRANCH  27  28
ATOM     28  C   UNL     1      31.754  -8.919 -19.794  0.00  0.00    -0.005 C 
ATOM     29  C   UNL     1      31.555  -9.974 -18.996  0.00  0.00    -0.003 C 
ENDBRANCH  27  28
ENDBRANCH   2  27
BRANCH   3  30
ATOM     30  C   UNL     1      34.568  -6.664 -24.672  0.00  0.00    +0.121 C 
BRANCH  30  31
ATOM     31  C   UNL     1      33.967  -6.029 -25.882  0.00  0.00    -0.005 C 
ATOM     32  C   UNL     1      34.623  -5.179 -26.681  0.00  0.00    -0.003 C 
ENDBRANCH  30  31
ENDBRANCH   3  30
TORSDOF 10
ENDMDL
MODEL 3
REMARK VINA RESULT:      -4.9      5.098     11.177
REMARK  Name = 446158
REMARK  10 active torsions:
REMARK  status: ('A' for Active; 'I' for Inactive)
REMARK    1  A    between atoms: N_2  and  C_27
REMARK    2  A    between atoms: N_3  and  C_30
REMARK    3  A    between atoms: C_4  and  C_13
REMARK    4  A    between atoms: C_5  and  C_20
REMARK    5  A    between atoms: C_6  and  O_9
REMARK    6  A    between atoms: C_7  and  O_11
REMARK    7  A    between atoms: C_13  and  C_14
REMARK    8  A    between atoms: C_20  and  C_21
REMARK    9  A    between atoms: C_27  and  C_28
REMARK   10  A    between atoms: C_30  and  C_31
REMARK                            x       y       z     vdW  Elec       q    Type
REMARK                         _______ _______ _______ _____ _____    ______ ____
ROOT
ATOM      1  O   UNL     1      35.190 -16.809 -25.547  0.00  0.00    -0.252 OA
ATOM      2  N   UNL     1      35.252 -16.758 -23.244  0.00  0.00    -0.259 N 
ATOM      3  N   UNL     1      33.492 -15.688 -24.467  0.00  0.00    -0.259 N 
ATOM      4  C   UNL     1      34.473 -17.076 -22.034  0.00  0.00    +0.111 C 
ATOM      5  C   UNL     1      33.211 -14.622 -23.488  0.00  0.00    +0.111 C 
ATOM      6  C   UNL     1      33.889 -15.846 -21.333  0.00  0.00    +0.157 C 
ATOM      7  C   UNL     1      32.781 -15.149 -22.116  0.00  0.00    +0.157 C 
ATOM      8  C   UNL     1      34.675 -16.441 -24.483  0.00  0.00    +0.308 C 
ENDROOT
BRANCH   6   9
ATOM      9  O   UNL     1      33.357 -16.274 -20.074  0.00  0.00    -0.380 OA
ATOM     10  H   UNL     1      32.388 -16.226 -20.099  0.00  0.00    +0.211 HD
ENDBRANCH   6   9
BRANCH   7  11
ATOM     11  O   UNL     1      32.284 -14.053 -21.337  0.00  0.00    -0.380 OA
ATOM     12  H   UNL     1      31.688 -13.514 -21.881  0.00  0.00    +0.211 HD
ENDBRANCH   7  11
BRANCH   4  13
ATOM     13  C   UNL     1      33.456 -18.195 -22.300  0.00  0.00    +0.049 C 
BRANCH  13  14
ATOM     14  C   UNL     1      33.606 -19.315 -21.311  0.00  0.00    -0.020 C 
ATOM     15  C   UNL     1      32.494 -19.768 -20.610  0.00  0.00    -0.004 C 
ATOM     16  C   UNL     1      34.857 -19.886 -21.102  0.00  0.00    -0.004 C 
ATOM     17  C   UNL     1      32.634 -20.807 -19.691  0.00  0.00    -0.000 C 
ATOM     18  C   UNL     1      34.997 -20.925 -20.183  0.00  0.00    -0.000 C 
ATOM     19  C   UNL     1      33.886 -21.386 -19.476  0.00  0.00    -0.000 C 
ENDBRANCH  13  14
ENDBRANCH   4  13
BRANCH   5  20
ATOM     20  C   UNL     1      34.344 -13.585 -23.455  0.00  0.00    +0.049 C 
BRANCH  20  21
ATOM     21  C   UNL     1      33.811 -12.189 -23.597  0.00  0.00    -0.020 C 
ATOM     22  C   UNL     1      32.716 -11.790 -22.838  0.00  0.00    -0.004 C 
ATOM     23  C   UNL     1      34.417 -11.309 -24.486  0.00  0.00    -0.004 C 
ATOM     24  C   UNL     1      32.222 -10.493 -22.970  0.00  0.00    -0.000 C 
ATOM     25  C   UNL     1      33.922 -10.011 -24.618  0.00  0.00    -0.000 C 
ATOM     26  C   UNL     1      32.825  -9.603 -23.860  0.00  0.00    -0.000 C 
ENDBRANCH  20  21
ENDBRANCH   5  20
BRANCH   2  27
ATOM     27  C   UNL     1      36.649 -17.179 -23.226  0.00  0.00    +0.121 C 
BRANCH  27  28
ATOM     28  C   UNL     1      36.797 -18.337 -22.296  0.00  0.00    -0.005 C 
ATOM     29  C   UNL     1      37.977 -18.810 -21.878  0.00  0.00    -0.003 C 
ENDBRANCH  27  28
ENDBRANCH   2  27
BRANCH   3  30
ATOM     30  C   UNL     1      32.671 -15.672 -25.673  0.00  0.00    +0.121 C 
BRANCH  30  31
ATOM     31  C   UNL     1      32.592 -14.275 -26.192  0.00  0.00    -0.005 C 
ATOM     32  C   UNL     1      33.397 -13.786 -27.143  0.00  0.00    -0.003 C 
ENDBRANCH  30  31
ENDBRANCH   3  30
TORSDOF 10
ENDMDL
MODEL 4
REMARK VINA RESULT:      -4.9      5.097      8.659
REMARK  Name = 446158
REMARK  10 active torsions:
REMARK  status: ('A' for Active; 'I' for Inactive)
REMARK    1  A    between atoms: N_2  and  C_27
REMARK    2  A    between atoms: N_3  and  C_30
REMARK    3  A    between atoms: C_4  and  C_13
REMARK    4  A    between atoms: C_5  and  C_20
REMARK    5  A    between atoms: C_6  and  O_9
REMARK    6  A    between atoms: C_7  and  O_11
REMARK    7  A    between atoms: C_13  and  C_14
REMARK    8  A    between atoms: C_20  and  C_21
REMARK    9  A    between atoms: C_27  and  C_28
REMARK   10  A    between atoms: C_30  and  C_31
REMARK                            x       y       z     vdW  Elec       q    Type
REMARK                         _______ _______ _______ _____ _____    ______ ____
ROOT
ATOM      1  O   UNL     1      35.197 -16.800 -25.542  0.00  0.00    -0.252 OA
ATOM      2  N   UNL     1      33.494 -15.687 -24.460  0.00  0.00    -0.259 N 
ATOM      3  N   UNL     1      35.253 -16.760 -23.239  0.00  0.00    -0.259 N 
ATOM      4  C   UNL     1      33.214 -14.619 -23.484  0.00  0.00    +0.111 C 
ATOM      5  C   UNL     1      34.471 -17.074 -22.029  0.00  0.00    +0.111 C 
ATOM      6  C   UNL     1      32.788 -15.135 -22.107  0.00  0.00    +0.157 C 
ATOM      7  C   UNL     1      33.898 -15.836 -21.333  0.00  0.00    +0.157 C 
ATOM      8  C   UNL     1      34.680 -16.437 -24.477  0.00  0.00    +0.308 C 
ENDROOT
BRANCH   6   9
ATOM      9  O   UNL     1      32.338 -14.010 -21.340  0.00  0.00    -0.380 OA
ATOM     10  H   UNL     1      32.950 -13.269 -21.465  0.00  0.00    +0.211 HD
ENDBRANCH   6   9
BRANCH   7  11
ATOM     11  O   UNL     1      33.393 -16.224 -20.048  0.00  0.00    -0.380 OA
ATOM     12  H   UNL     1      33.649 -15.561 -19.387  0.00  0.00    +0.211 HD
ENDBRANCH   7  11
BRANCH   4  13
ATOM     13  C   UNL     1      34.344 -13.580 -23.450  0.00  0.00    +0.049 C 
BRANCH  13  14
ATOM     14  C   UNL     1      33.809 -12.186 -23.603  0.00  0.00    -0.020 C 
ATOM     15  C   UNL     1      34.414 -11.311 -24.498  0.00  0.00    -0.004 C 
ATOM     16  C   UNL     1      32.714 -11.782 -22.847  0.00  0.00    -0.004 C 
ATOM     17  C   UNL     1      33.918 -10.016 -24.639  0.00  0.00    -0.000 C 
ATOM     18  C   UNL     1      32.218 -10.486 -22.989  0.00  0.00    -0.000 C 
ATOM     19  C   UNL     1      32.820  -9.603 -23.885  0.00  0.00    -0.000 C 
ENDBRANCH  13  14
ENDBRANCH   4  13
BRANCH   5  20
ATOM     20  C   UNL     1      33.452 -18.191 -22.300  0.00  0.00    +0.049 C 
BRANCH  20  21
ATOM     21  C   UNL     1      33.594 -19.312 -21.312  0.00  0.00    -0.020 C 
ATOM     22  C   UNL     1      32.482 -19.748 -20.601  0.00  0.00    -0.004 C 
ATOM     23  C   UNL     1      34.837 -19.903 -21.118  0.00  0.00    -0.004 C 
ATOM     24  C   UNL     1      32.615 -20.790 -19.683  0.00  0.00    -0.000 C 
ATOM     25  C   UNL     1      34.970 -20.946 -20.199  0.00  0.00    -0.000 C 
ATOM     26  C   UNL     1      33.859 -21.388 -19.483  0.00  0.00    -0.000 C 
ENDBRANCH  20  21
ENDBRANCH   5  20
BRANCH   2  27
ATOM     27  C   UNL     1      32.674 -15.673 -25.667  0.00  0.00    +0.121 C 
BRANCH  27  28
ATOM     28  C   UNL     1      32.603 -14.277 -26.191  0.00  0.00    -0.005 C 
ATOM     29  C   UNL     1      33.401 -13.801 -27.153  0.00  0.00    -0.003 C 
ENDBRANCH  27  28
ENDBRANCH   2  27
BRANCH   3  30
ATOM     30  C   UNL     1      36.648 -17.185 -23.219  0.00  0.00    +0.121 C 
BRANCH  30  31
ATOM     31  C   UNL     1      36.794 -18.341 -22.286  0.00  0.00    -0.005 C 
ATOM     32  C   UNL     1      37.973 -18.828 -21.880  0.00  0.00    -0.003 C 
ENDBRANCH  30  31
ENDBRANCH   3  30
TORSDOF 10
ENDMDL
MODEL 5
REMARK VINA RESULT:      -4.8      2.082      4.569
REMARK  Name = 446158
REMARK  10 active torsions:
REMARK  status: ('A' for Active; 'I' for Inactive)
REMARK    1  A    between atoms: N_2  and  C_27
REMARK    2  A    between atoms: N_3  and  C_30
REMARK    3  A    between atoms: C_4  and  C_13
REMARK    4  A    between atoms: C_5  and  C_20
REMARK    5  A    between atoms: C_6  and  O_9
REMARK    6  A    between atoms: C_7  and  O_11
REMARK    7  A    between atoms: C_13  and  C_14
REMARK    8  A    between atoms: C_20  and  C_21
REMARK    9  A    between atoms: C_27  and  C_28
REMARK   10  A    between atoms: C_30  and  C_31
REMARK                            x       y       z     vdW  Elec       q    Type
REMARK                         _______ _______ _______ _____ _____    ______ ____
ROOT
ATOM      1  O   UNL     1      30.811 -11.918 -21.902  0.00  0.00    -0.252 OA
ATOM      2  N   UNL     1      32.321 -10.180 -22.001  0.00  0.00    -0.259 N 
ATOM      3  N   UNL     1      32.365 -11.961 -23.602  0.00  0.00    -0.259 N 
ATOM      4  C   UNL     1      32.849  -9.123 -22.882  0.00  0.00    +0.111 C 
ATOM      5  C   UNL     1      33.811 -11.915 -23.887  0.00  0.00    +0.111 C 
ATOM      6  C   UNL     1      34.243  -9.422 -23.439  0.00  0.00    +0.157 C 
ATOM      7  C   UNL     1      34.281 -10.568 -24.444  0.00  0.00    +0.157 C 
ATOM      8  C   UNL     1      31.774 -11.385 -22.468  0.00  0.00    +0.308 C 
ENDROOT
BRANCH   6   9
ATOM      9  O   UNL     1      34.718  -8.234 -24.085  0.00  0.00    -0.380 OA
ATOM     10  H   UNL     1      34.610  -7.477 -23.488  0.00  0.00    +0.211 HD
ENDBRANCH   6   9
BRANCH   7  11
ATOM     11  O   UNL     1      35.623 -10.714 -24.929  0.00  0.00    -0.380 OA
ATOM     12  H   UNL     1      35.938 -11.612 -24.740  0.00  0.00    +0.211 HD
ENDBRANCH   7  11
BRANCH   4  13
ATOM     13  C   UNL     1      31.819  -8.710 -23.942  0.00  0.00    +0.049 C 
BRANCH  13  14
ATOM     14  C   UNL     1      31.564  -7.231 -23.909  0.00  0.00    -0.020 C 
ATOM     15  C   UNL     1      32.049  -6.426 -24.934  0.00  0.00    -0.004 C 
ATOM     16  C   UNL     1      30.849  -6.679 -22.852  0.00  0.00    -0.004 C 
ATOM     17  C   UNL     1      31.813  -5.052 -24.902  0.00  0.00    -0.000 C 
ATOM     18  C   UNL     1      30.613  -5.305 -22.820  0.00  0.00    -0.000 C 
ATOM     19  C   UNL     1      31.096  -4.491 -23.845  0.00  0.00    -0.000 C 
ENDBRANCH  13  14
ENDBRANCH   4  13
BRANCH   5  20
ATOM     20  C   UNL     1      34.629 -12.443 -22.699  0.00  0.00    +0.049 C 
BRANCH  20  21
ATOM     21  C   UNL     1      34.297 -13.876 -22.401  0.00  0.00    -0.020 C 
ATOM     22  C   UNL     1      34.729 -14.876 -23.265  0.00  0.00    -0.004 C 
ATOM     23  C   UNL     1      33.561 -14.189 -21.265  0.00  0.00    -0.004 C 
ATOM     24  C   UNL     1      34.420 -16.207 -22.988  0.00  0.00    -0.000 C 
ATOM     25  C   UNL     1      33.252 -15.521 -20.987  0.00  0.00    -0.000 C 
ATOM     26  C   UNL     1      33.681 -16.530 -21.849  0.00  0.00    -0.000 C 
ENDBRANCH  20  21
ENDBRANCH   5  20
BRANCH   2  27
ATOM     27  C   UNL     1      32.007  -9.769 -20.637  0.00  0.00    +0.121 C 
BRANCH  27  28
ATOM     28  C   UNL     1      32.724  -8.495 -20.334  0.00  0.00    -0.005 C 
ATOM     29  C   UNL     1      32.129  -7.406 -19.834  0.00  0.00    -0.003 C 
ENDBRANCH  27  28
ENDBRANCH   2  27
BRANCH   3  30
ATOM     30  C   UNL     1      31.608 -12.972 -24.332  0.00  0.00    +0.121 C 
BRANCH  30  31
ATOM     31  C   UNL     1      32.368 -13.365 -25.554  0.00  0.00    -0.005 C 
ATOM     32  C   UNL     1      32.629 -14.633 -25.895  0.00  0.00    -0.003 C 
ENDBRANCH  30  31
ENDBRANCH   3  30
TORSDOF 10
ENDMDL
MODEL 6
REMARK VINA RESULT:      -4.8      2.082      7.845
REMARK  Name = 446158
REMARK  10 active torsions:
REMARK  status: ('A' for Active; 'I' for Inactive)
REMARK    1  A    between atoms: N_2  and  C_27
REMARK    2  A    between atoms: N_3  and  C_30
REMARK    3  A    between atoms: C_4  and  C_13
REMARK    4  A    between atoms: C_5  and  C_20
REMARK    5  A    between atoms: C_6  and  O_9
REMARK    6  A    between atoms: C_7  and  O_11
REMARK    7  A    between atoms: C_13  and  C_14
REMARK    8  A    between atoms: C_20  and  C_21
REMARK    9  A    between atoms: C_27  and  C_28
REMARK   10  A    between atoms: C_30  and  C_31
REMARK                            x       y       z     vdW  Elec       q    Type
REMARK                         _______ _______ _______ _____ _____    ______ ____
ROOT
ATOM      1  O   UNL     1      30.831 -11.937 -21.886  0.00  0.00    -0.252 OA
ATOM      2  N   UNL     1      32.370 -11.946 -23.601  0.00  0.00    -0.259 N 
ATOM      3  N   UNL     1      32.317 -10.179 -21.984  0.00  0.00    -0.259 N 
ATOM      4  C   UNL     1      33.814 -11.890 -23.893  0.00  0.00    +0.111 C 
ATOM      5  C   UNL     1      32.836  -9.113 -22.862  0.00  0.00    +0.111 C 
ATOM      6  C   UNL     1      34.283 -10.538 -24.436  0.00  0.00    +0.157 C 
ATOM      7  C   UNL     1      34.233  -9.404 -23.417  0.00  0.00    +0.157 C 
ATOM      8  C   UNL     1      31.783 -11.387 -22.456  0.00  0.00    +0.308 C 
ENDROOT
BRANCH   6   9
ATOM      9  O   UNL     1      35.637 -10.692 -24.880  0.00  0.00    -0.380 OA
ATOM     10  H   UNL     1      36.014 -11.496 -24.491  0.00  0.00    +0.211 HD
ENDBRANCH   6   9
BRANCH   7  11
ATOM     11  O   UNL     1      34.743  -8.211 -24.027  0.00  0.00    -0.380 OA
ATOM     12  H   UNL     1      35.653  -8.059 -23.728  0.00  0.00    +0.211 HD
ENDBRANCH   7  11
BRANCH   4  13
ATOM     13  C   UNL     1      34.645 -12.422 -22.717  0.00  0.00    +0.049 C 
BRANCH  13  14
ATOM     14  C   UNL     1      34.304 -13.852 -22.410  0.00  0.00    -0.020 C 
ATOM     15  C   UNL     1      33.581 -14.156 -21.262  0.00  0.00    -0.004 C 
ATOM     16  C   UNL     1      34.716 -14.858 -23.276  0.00  0.00    -0.004 C 
ATOM     17  C   UNL     1      33.266 -15.484 -20.978  0.00  0.00    -0.000 C 
ATOM     18  C   UNL     1      34.401 -16.187 -22.991  0.00  0.00    -0.000 C 
ATOM     19  C   UNL     1      33.676 -16.500 -21.842  0.00  0.00    -0.000 C 
ENDBRANCH  13  14
ENDBRANCH   4  13
BRANCH   5  20
ATOM     20  C   UNL     1      31.795  -8.705 -23.915  0.00  0.00    +0.049 C 
BRANCH  20  21
ATOM     21  C   UNL     1      31.555  -7.223 -23.900  0.00  0.00    -0.020 C 
ATOM     22  C   UNL     1      30.856  -6.650 -22.843  0.00  0.00    -0.004 C 
ATOM     23  C   UNL     1      32.035  -6.438 -24.942  0.00  0.00    -0.004 C 
ATOM     24  C   UNL     1      30.633  -5.273 -22.830  0.00  0.00    -0.000 C 
ATOM     25  C   UNL     1      31.813  -5.061 -24.928  0.00  0.00    -0.000 C 
ATOM     26  C   UNL     1      31.112  -4.479 -23.872  0.00  0.00    -0.000 C 
ENDBRANCH  20  21
ENDBRANCH   5  20
BRANCH   2  27
ATOM     27  C   UNL     1      31.615 -12.956 -24.335  0.00  0.00    +0.121 C 
BRANCH  27  28
ATOM     28  C   UNL     1      32.376 -13.339 -25.561  0.00  0.00    -0.005 C 
ATOM     29  C   UNL     1      32.610 -14.604 -25.928  0.00  0.00    -0.003 C 
ENDBRANCH  27  28
ENDBRANCH   2  27
BRANCH   3  30
ATOM     30  C   UNL     1      32.006  -9.779 -20.617  0.00  0.00    +0.121 C 
BRANCH  30  31
ATOM     31  C   UNL     1      32.698  -8.490 -20.316  0.00  0.00    -0.005 C 
ATOM     32  C   UNL     1      32.091  -7.427 -19.774  0.00  0.00    -0.003 C 
ENDBRANCH  30  31
ENDBRANCH   3  30
TORSDOF 10
ENDMDL
MODEL 7
REMARK VINA RESULT:      -4.7     16.231     18.594
REMARK  Name = 446158
REMARK  10 active torsions:
REMARK  status: ('A' for Active; 'I' for Inactive)
REMARK    1  A    between atoms: N_2  and  C_27
REMARK    2  A    between atoms: N_3  and  C_30
REMARK    3  A    between atoms: C_4  and  C_13
REMARK    4  A    between atoms: C_5  and  C_20
REMARK    5  A    between atoms: C_6  and  O_9
REMARK    6  A    between atoms: C_7  and  O_11
REMARK    7  A    between atoms: C_13  and  C_14
REMARK    8  A    between atoms: C_20  and  C_21
REMARK    9  A    between atoms: C_27  and  C_28
REMARK   10  A    between atoms: C_30  and  C_31
REMARK                            x       y       z     vdW  Elec       q    Type
REMARK                         _______ _______ _______ _____ _____    ______ ____
ROOT
ATOM      1  O   UNL     1      32.533 -24.425 -17.872  0.00  0.00    -0.252 OA
ATOM      2  N   UNL     1      32.019 -24.492 -15.627  0.00  0.00    -0.259 N 
ATOM      3  N   UNL     1      33.995 -23.393 -16.420  0.00  0.00    -0.259 N 
ATOM      4  C   UNL     1      31.799 -23.646 -14.440  0.00  0.00    +0.111 C 
ATOM      5  C   UNL     1      34.820 -23.609 -15.217  0.00  0.00    +0.111 C 
ATOM      6  C   UNL     1      32.961 -23.663 -13.444  0.00  0.00    +0.157 C 
ATOM      7  C   UNL     1      34.229 -22.983 -13.950  0.00  0.00    +0.157 C 
ATOM      8  C   UNL     1      32.831 -24.121 -16.709  0.00  0.00    +0.308 C 
ENDROOT
BRANCH   6   9
ATOM      9  O   UNL     1      32.528 -22.990 -12.255  0.00  0.00    -0.380 OA
ATOM     10  H   UNL     1      33.297 -22.781 -11.703  0.00  0.00    +0.211 HD
ENDBRANCH   6   9
BRANCH   7  11
ATOM     11  O   UNL     1      35.219 -23.019 -12.915  0.00  0.00    -0.380 OA
ATOM     12  H   UNL     1      36.044 -23.385 -13.269  0.00  0.00    +0.211 HD
ENDBRANCH   7  11
BRANCH   4  13
ATOM     13  C   UNL     1      31.324 -22.240 -14.833  0.00  0.00    +0.049 C 
BRANCH  13  14
ATOM     14  C   UNL     1      29.910 -22.263 -15.336  0.00  0.00    -0.020 C 
ATOM     15  C   UNL     1      28.860 -22.043 -14.452  0.00  0.00    -0.004 C 
ATOM     16  C   UNL     1      29.662 -22.507 -16.683  0.00  0.00    -0.004 C 
ATOM     17  C   UNL     1      27.547 -22.066 -14.920  0.00  0.00    -0.000 C 
ATOM     18  C   UNL     1      28.349 -22.530 -17.151  0.00  0.00    -0.000 C 
ATOM     19  C   UNL     1      27.291 -22.310 -16.269  0.00  0.00    -0.000 C 
ENDBRANCH  13  14
ENDBRANCH   4  13
BRANCH   5  20
ATOM     20  C   UNL     1      35.227 -25.083 -15.079  0.00  0.00    +0.049 C 
BRANCH  20  21
ATOM     21  C   UNL     1      36.616 -25.217 -14.527  0.00  0.00    -0.020 C 
ATOM     22  C   UNL     1      36.814 -25.856 -13.308  0.00  0.00    -0.004 C 
ATOM     23  C   UNL     1      37.691 -24.700 -15.240  0.00  0.00    -0.004 C 
ATOM     24  C   UNL     1      38.105 -25.980 -12.796  0.00  0.00    -0.000 C 
ATOM     25  C   UNL     1      38.984 -24.824 -14.727  0.00  0.00    -0.000 C 
ATOM     26  C   UNL     1      39.190 -25.464 -13.506  0.00  0.00    -0.000 C 
ENDBRANCH  20  21
ENDBRANCH   5  20
BRANCH   2  27
ATOM     27  C   UNL     1      31.045 -25.557 -15.834  0.00  0.00    +0.121 C 
BRANCH  27  28
ATOM     28  C   UNL     1      30.149 -25.637 -14.643  0.00  0.00    -0.005 C 
ATOM     29  C   UNL     1      28.813 -25.601 -14.712  0.00  0.00    -0.003 C 
ENDBRANCH  27  28
ENDBRANCH   2  27
BRANCH   3  30
ATOM     30  C   UNL     1      34.641 -22.671 -17.510  0.00  0.00    +0.121 C 
BRANCH  30  31
ATOM     31  C   UNL     1      35.977 -22.189 -17.052  0.00  0.00    -0.005 C 
ATOM     32  C   UNL     1      36.857 -21.565 -17.846  0.00  0.00    -0.003 C 
ENDBRANCH  30  31
ENDBRANCH   3  30
TORSDOF 10
ENDMDL
MODEL 8
REMARK VINA RESULT:      -4.7     16.228     18.868
REMARK  Name = 446158
REMARK  10 active torsions:
REMARK  status: ('A' for Active; 'I' for Inactive)
REMARK    1  A    between atoms: N_2  and  C_27
REMARK    2  A    between atoms: N_3  and  C_30
REMARK    3  A    between atoms: C_4  and  C_13
REMARK    4  A    between atoms: C_5  and  C_20
REMARK    5  A    between atoms: C_6  and  O_9
REMARK    6  A    between atoms: C_7  and  O_11
REMARK    7  A    between atoms: C_13  and  C_14
REMARK    8  A    between atoms: C_20  and  C_21
REMARK    9  A    between atoms: C_27  and  C_28
REMARK   10  A    between atoms: C_30  and  C_31
REMARK                            x       y       z     vdW  Elec       q    Type
REMARK                         _______ _______ _______ _____ _____    ______ ____
ROOT
ATOM      1  O   UNL     1      32.545 -24.425 -17.887  0.00  0.00    -0.252 OA
ATOM      2  N   UNL     1      33.983 -23.374 -16.424  0.00  0.00    -0.259 N 
ATOM      3  N   UNL     1      32.008 -24.486 -15.647  0.00  0.00    -0.259 N 
ATOM      4  C   UNL     1      34.803 -23.586 -15.218  0.00  0.00    +0.111 C 
ATOM      5  C   UNL     1      31.778 -23.642 -14.460  0.00  0.00    +0.111 C 
ATOM      6  C   UNL     1      34.206 -22.974 -13.949  0.00  0.00    +0.157 C 
ATOM      7  C   UNL     1      32.937 -23.664 -13.459  0.00  0.00    +0.157 C 
ATOM      8  C   UNL     1      32.828 -24.114 -16.722  0.00  0.00    +0.308 C 
ENDROOT
BRANCH   6   9
ATOM      9  O   UNL     1      35.197 -23.057 -12.916  0.00  0.00    -0.380 OA
ATOM     10  H   UNL     1      34.854 -22.648 -12.107  0.00  0.00    +0.211 HD
ENDBRANCH   6   9
BRANCH   7  11
ATOM     11  O   UNL     1      32.508 -23.037 -12.244  0.00  0.00    -0.380 OA
ATOM     12  H   UNL     1      32.306 -23.718 -11.583  0.00  0.00    +0.211 HD
ENDBRANCH   7  11
BRANCH   4  13
ATOM     13  C   UNL     1      35.223 -25.055 -15.076  0.00  0.00    +0.049 C 
BRANCH  13  14
ATOM     14  C   UNL     1      36.618 -25.175 -14.536  0.00  0.00    -0.020 C 
ATOM     15  C   UNL     1      36.834 -25.814 -13.320  0.00  0.00    -0.004 C 
ATOM     16  C   UNL     1      37.683 -24.643 -15.255  0.00  0.00    -0.004 C 
ATOM     17  C   UNL     1      38.130 -25.923 -12.818  0.00  0.00    -0.000 C 
ATOM     18  C   UNL     1      38.979 -24.752 -14.754  0.00  0.00    -0.000 C 
ATOM     19  C   UNL     1      39.203 -25.392 -13.535  0.00  0.00    -0.000 C 
ENDBRANCH  13  14
ENDBRANCH   4  13
BRANCH   5  20
ATOM     20  C   UNL     1      31.299 -22.238 -14.860  0.00  0.00    +0.049 C 
BRANCH  20  21
ATOM     21  C   UNL     1      29.883 -22.265 -15.356  0.00  0.00    -0.020 C 
ATOM     22  C   UNL     1      29.630 -22.520 -16.700  0.00  0.00    -0.004 C 
ATOM     23  C   UNL     1      28.839 -22.036 -14.468  0.00  0.00    -0.004 C 
ATOM     24  C   UNL     1      28.313 -22.545 -17.160  0.00  0.00    -0.000 C 
ATOM     25  C   UNL     1      27.522 -22.062 -14.929  0.00  0.00    -0.000 C 
ATOM     26  C   UNL     1      27.260 -22.316 -16.275  0.00  0.00    -0.000 C 
ENDBRANCH  20  21
ENDBRANCH   5  20
BRANCH   2  27
ATOM     27  C   UNL     1      34.630 -22.646 -17.510  0.00  0.00    +0.121 C 
BRANCH  27  28
ATOM     28  C   UNL     1      35.970 -22.176 -17.052  0.00  0.00    -0.005 C 
ATOM     29  C   UNL     1      36.856 -21.564 -17.846  0.00  0.00    -0.003 C 
ENDBRANCH  27  28
ENDBRANCH   2  27
BRANCH   3  30
ATOM     30  C   UNL     1      31.040 -25.556 -15.860  0.00  0.00    +0.121 C 
BRANCH  30  31
ATOM     31  C   UNL     1      30.153 -25.658 -14.664  0.00  0.00    -0.005 C 
ATOM     32  C   UNL     1      28.818 -25.583 -14.717  0.00  0.00    -0.003 C 
ENDBRANCH  30  31
ENDBRANCH   3  30
TORSDOF 10
ENDMDL
MODEL 9
REMARK VINA RESULT:      -4.2      1.959      7.968
REMARK  Name = 446158
REMARK  10 active torsions:
REMARK  status: ('A' for Active; 'I' for Inactive)
REMARK    1  A    between atoms: N_2  and  C_27
REMARK    2  A    between atoms: N_3  and  C_30
REMARK    3  A    between atoms: C_4  and  C_13
REMARK    4  A    between atoms: C_5  and  C_20
REMARK    5  A    between atoms: C_6  and  O_9
REMARK    6  A    between atoms: C_7  and  O_11
REMARK    7  A    between atoms: C_13  and  C_14
REMARK    8  A    between atoms: C_20  and  C_21
REMARK    9  A    between atoms: C_27  and  C_28
REMARK   10  A    between atoms: C_30  and  C_31
REMARK                            x       y       z     vdW  Elec       q    Type
REMARK                         _______ _______ _______ _____ _____    ______ ____
ROOT
ATOM      1  O   UNL     1      32.206  -8.709 -20.149  0.00  0.00    -0.252 OA
ATOM      2  N   UNL     1      31.522 -10.593 -21.286  0.00  0.00    -0.259 N 
ATOM      3  N   UNL     1      33.040  -9.025 -22.274  0.00  0.00    -0.259 N 
ATOM      4  C   UNL     1      32.013 -11.795 -21.985  0.00  0.00    +0.111 C 
ATOM      5  C   UNL     1      32.651  -9.254 -23.678  0.00  0.00    +0.111 C 
ATOM      6  C   UNL     1      31.911 -11.708 -23.510  0.00  0.00    +0.157 C 
ATOM      7  C   UNL     1      32.860 -10.697 -24.144  0.00  0.00    +0.157 C 
ATOM      8  C   UNL     1      32.254  -9.401 -21.175  0.00  0.00    +0.308 C 
ENDROOT
BRANCH   6   9
ATOM      9  O   UNL     1      32.207 -13.006 -24.041  0.00  0.00    -0.380 OA
ATOM     10  H   UNL     1      31.561 -13.647 -23.705  0.00  0.00    +0.211 HD
ENDBRANCH   6   9
BRANCH   7  11
ATOM     11  O   UNL     1      32.707 -10.748 -25.568  0.00  0.00    -0.380 OA
ATOM     12  H   UNL     1      31.802 -10.495 -25.805  0.00  0.00    +0.211 HD
ENDBRANCH   7  11
BRANCH   4  13
ATOM     13  C   UNL     1      33.394 -12.220 -21.467  0.00  0.00    +0.049 C 
BRANCH  13  14
ATOM     14  C   UNL     1      33.504 -13.714 -21.369  0.00  0.00    -0.020 C 
ATOM     15  C   UNL     1      34.539 -14.372 -22.024  0.00  0.00    -0.004 C 
ATOM     16  C   UNL     1      32.568 -14.426 -20.628  0.00  0.00    -0.004 C 
ATOM     17  C   UNL     1      34.640 -15.760 -21.934  0.00  0.00    -0.000 C 
ATOM     18  C   UNL     1      32.669 -15.814 -20.538  0.00  0.00    -0.000 C 
ATOM     19  C   UNL     1      33.705 -16.482 -21.192  0.00  0.00    -0.000 C 
ENDBRANCH  13  14
ENDBRANCH   4  13
BRANCH   5  20
ATOM     20  C   UNL     1      31.257  -8.678 -23.969  0.00  0.00    +0.049 C 
BRANCH  20  21
ATOM     21  C   UNL     1      31.250  -7.182 -23.858  0.00  0.00    -0.020 C 
ATOM     22  C   UNL     1      31.699  -6.410 -24.924  0.00  0.00    -0.004 C 
ATOM     23  C   UNL     1      30.794  -6.580 -22.691  0.00  0.00    -0.004 C 
ATOM     24  C   UNL     1      31.693  -5.020 -24.820  0.00  0.00    -0.000 C 
ATOM     25  C   UNL     1      30.787  -5.189 -22.587  0.00  0.00    -0.000 C 
ATOM     26  C   UNL     1      31.237  -4.409 -23.652  0.00  0.00    -0.000 C 
ENDBRANCH  20  21
ENDBRANCH   5  20
BRANCH   2  27
ATOM     27  C   UNL     1      30.417 -10.809 -20.358  0.00  0.00    +0.121 C 
BRANCH  27  28
ATOM     28  C   UNL     1      30.876 -10.497 -18.973  0.00  0.00    -0.005 C 
ATOM     29  C   UNL     1      31.444 -11.392 -18.156  0.00  0.00    -0.003 C 
ENDBRANCH  27  28
ENDBRANCH   2  27
BRANCH   3  30
ATOM     30  C   UNL     1      34.088  -8.034 -22.060  0.00  0.00    +0.121 C 
BRANCH  30  31
ATOM     31  C   UNL     1      34.905  -7.911 -23.304  0.00  0.00    -0.005 C 
ATOM     32  C   UNL     1      34.868  -6.850 -24.118  0.00  0.00    -0.003 C 
ENDBRANCH  30  31
ENDBRANCH   3  30
TORSDOF 10
ENDMDL
