MODEL 1
REMARK VINA RESULT:      -7.1      0.000      0.000
REMARK  Name = 5531
REMARK  3 active torsions:
REMARK  status: ('A' for Active; 'I' for Inactive)
REMARK    1  A    between atoms: C_5  and  N_11
REMARK    2  A    between atoms: N_11  and  C_12
REMARK    3  A    between atoms: N_11  and  C_14
REMARK                            x       y       z     vdW  Elec       q    Type
REMARK                         _______ _______ _______ _____ _____    ______ ____
ROOT
ATOM      1  N   UNL     1      34.841 -16.981 -21.519  0.00  0.00    -0.106 N 
ATOM      2  N   UNL     1      34.487 -16.141 -23.743  0.00  0.00    -0.340 NA
ATOM      3  N   UNL     1      34.896 -16.493 -20.252  0.00  0.00    -0.139 NA
ATOM      4  N   UNL     1      34.491 -14.802 -21.722  0.00  0.00    -0.145 NA
ATOM      5  C   UNL     1      34.996 -18.302 -21.960  0.00  0.00    +0.138 C 
ATOM      6  C   UNL     1      34.899 -18.546 -23.277  0.00  0.00    +0.061 C 
ATOM      7  C   UNL     1      34.592 -15.927 -22.402  0.00  0.00    +0.174 C 
ATOM      8  C   UNL     1      34.631 -17.366 -24.154  0.00  0.00    +0.125 C 
ATOM      9  C   UNL     1      34.518 -17.628 -25.635  0.00  0.00    +0.068 C 
ATOM     10  C   UNL     1      34.682 -15.195 -20.437  0.00  0.00    +0.230 C 
ENDROOT
BRANCH   5  11
ATOM     11  N   UNL     1      35.236 -19.260 -21.019  0.00  0.00    -0.294 N 
BRANCH  11  12
ATOM     12  C   UNL     1      34.212 -20.224 -20.637  0.00  0.00    +0.092 C 
ATOM     13  C   UNL     1      32.835 -19.582 -20.616  0.00  0.00    +0.023 C 
ENDBRANCH  11  12
BRANCH  11  14
ATOM     14  C   UNL     1      36.584 -19.528 -20.534  0.00  0.00    +0.092 C 
ATOM     15  C   UNL     1      36.656 -20.867 -19.821  0.00  0.00    +0.023 C 
ENDBRANCH  11  14
ENDBRANCH   5  11
TORSDOF 3
ENDMDL
MODEL 2
REMARK VINA RESULT:      -7.0      1.196      3.377
REMARK  Name = 5531
REMARK  3 active torsions:
REMARK  status: ('A' for Active; 'I' for Inactive)
REMARK    1  A    between atoms: C_5  and  N_11
REMARK    2  A    between atoms: N_11  and  C_12
REMARK    3  A    between atoms: N_11  and  C_14
REMARK                            x       y       z     vdW  Elec       q    Type
REMARK                         _______ _______ _______ _____ _____    ______ ____
ROOT
ATOM      1  N   UNL     1      34.821 -18.311 -22.905  0.00  0.00    -0.106 N 
ATOM      2  N   UNL     1      34.491 -15.931 -22.948  0.00  0.00    -0.340 NA
ATOM      3  N   UNL     1      34.855 -19.342 -23.789  0.00  0.00    -0.139 NA
ATOM      4  N   UNL     1      34.455 -17.388 -24.885  0.00  0.00    -0.145 NA
ATOM      5  C   UNL     1      34.993 -18.339 -21.514  0.00  0.00    +0.138 C 
ATOM      6  C   UNL     1      34.915 -17.179 -20.842  0.00  0.00    +0.061 C 
ATOM      7  C   UNL     1      34.574 -17.124 -23.600  0.00  0.00    +0.174 C 
ATOM      8  C   UNL     1      34.649 -15.955 -21.657  0.00  0.00    +0.125 C 
ATOM      9  C   UNL     1      34.562 -14.646 -20.915  0.00  0.00    +0.068 C 
ATOM     10  C   UNL     1      34.630 -18.732 -24.948  0.00  0.00    +0.230 C 
ENDROOT
BRANCH   5  11
ATOM     11  N   UNL     1      35.229 -19.549 -20.930  0.00  0.00    -0.294 N 
BRANCH  11  12
ATOM     12  C   UNL     1      36.545 -19.897 -20.409  0.00  0.00    +0.092 C 
ATOM     13  C   UNL     1      36.497 -21.196 -19.622  0.00  0.00    +0.023 C 
ENDBRANCH  11  12
BRANCH  11  14
ATOM     14  C   UNL     1      34.138 -20.447 -20.572  0.00  0.00    +0.092 C 
ATOM     15  C   UNL     1      32.803 -19.722 -20.588  0.00  0.00    +0.023 C 
ENDBRANCH  11  14
ENDBRANCH   5  11
TORSDOF 3
ENDMDL
MODEL 3
REMARK VINA RESULT:      -7.0      1.208      2.874
REMARK  Name = 5531
REMARK  3 active torsions:
REMARK  status: ('A' for Active; 'I' for Inactive)
REMARK    1  A    between atoms: C_5  and  N_11
REMARK    2  A    between atoms: N_11  and  C_12
REMARK    3  A    between atoms: N_11  and  C_14
REMARK                            x       y       z     vdW  Elec       q    Type
REMARK                         _______ _______ _______ _____ _____    ______ ____
ROOT
ATOM      1  N   UNL     1      34.776 -18.158 -22.958  0.00  0.00    -0.106 N 
ATOM      2  N   UNL     1      34.402 -15.786 -23.074  0.00  0.00    -0.340 NA
ATOM      3  N   UNL     1      34.855 -19.211 -23.812  0.00  0.00    -0.139 NA
ATOM      4  N   UNL     1      34.448 -17.294 -24.972  0.00  0.00    -0.145 NA
ATOM      5  C   UNL     1      34.910 -18.145 -21.563  0.00  0.00    +0.138 C 
ATOM      6  C   UNL     1      34.792 -16.969 -20.925  0.00  0.00    +0.061 C 
ATOM      7  C   UNL     1      34.527 -16.994 -23.691  0.00  0.00    +0.174 C 
ATOM      8  C   UNL     1      34.525 -15.773 -21.780  0.00  0.00    +0.125 C 
ATOM      9  C   UNL     1      34.393 -14.446 -21.075  0.00  0.00    +0.068 C 
ATOM     10  C   UNL     1      34.650 -18.636 -24.993  0.00  0.00    +0.230 C 
ENDROOT
BRANCH   5  11
ATOM     11  N   UNL     1      35.154 -19.334 -20.939  0.00  0.00    -0.294 N 
BRANCH  11  12
ATOM     12  C   UNL     1      34.140 -20.378 -20.873  0.00  0.00    +0.092 C 
ATOM     13  C   UNL     1      32.780 -19.800 -20.517  0.00  0.00    +0.023 C 
ENDBRANCH  11  12
BRANCH  11  14
ATOM     14  C   UNL     1      36.500 -19.718 -20.533  0.00  0.00    +0.092 C 
ATOM     15  C   UNL     1      36.490 -21.034 -19.775  0.00  0.00    +0.023 C 
ENDBRANCH  11  14
ENDBRANCH   5  11
TORSDOF 3
ENDMDL
MODEL 4
REMARK VINA RESULT:      -7.0      2.964      4.783
REMARK  Name = 5531
REMARK  3 active torsions:
REMARK  status: ('A' for Active; 'I' for Inactive)
REMARK    1  A    between atoms: C_5  and  N_11
REMARK    2  A    between atoms: N_11  and  C_12
REMARK    3  A    between atoms: N_11  and  C_14
REMARK                            x       y       z     vdW  Elec       q    Type
REMARK                         _______ _______ _______ _____ _____    ______ ____
ROOT
ATOM      1  N   UNL     1      34.011 -15.999 -24.171  0.00  0.00    -0.106 N 
ATOM      2  N   UNL     1      33.679 -15.481 -26.495  0.00  0.00    -0.340 NA
ATOM      3  N   UNL     1      34.440 -17.048 -23.422  0.00  0.00    -0.139 NA
ATOM      4  N   UNL     1      34.502 -17.592 -25.631  0.00  0.00    -0.145 NA
ATOM      5  C   UNL     1      33.575 -14.736 -23.749  0.00  0.00    +0.138 C 
ATOM      6  C   UNL     1      33.194 -13.851 -24.685  0.00  0.00    +0.061 C 
ATOM      7  C   UNL     1      34.058 -16.356 -25.522  0.00  0.00    +0.174 C 
ATOM      8  C   UNL     1      33.274 -14.309 -26.104  0.00  0.00    +0.125 C 
ATOM      9  C   UNL     1      32.851 -13.323 -27.164  0.00  0.00    +0.068 C 
ATOM     10  C   UNL     1      34.717 -17.964 -24.344  0.00  0.00    +0.230 C 
ENDROOT
BRANCH   5  11
ATOM     11  N   UNL     1      33.567 -14.485 -22.408  0.00  0.00    -0.294 N 
BRANCH  11  12
ATOM     12  C   UNL     1      32.319 -14.348 -21.668  0.00  0.00    +0.092 C 
ATOM     13  C   UNL     1      32.058 -12.898 -21.296  0.00  0.00    +0.023 C 
ENDBRANCH  11  12
BRANCH  11  14
ATOM     14  C   UNL     1      34.781 -14.589 -21.607  0.00  0.00    +0.092 C 
ATOM     15  C   UNL     1      34.548 -15.431 -20.364  0.00  0.00    +0.023 C 
ENDBRANCH  11  14
ENDBRANCH   5  11
TORSDOF 3
ENDMDL
MODEL 5
REMARK VINA RESULT:      -6.7      3.024      4.611
REMARK  Name = 5531
REMARK  3 active torsions:
REMARK  status: ('A' for Active; 'I' for Inactive)
REMARK    1  A    between atoms: C_5  and  N_11
REMARK    2  A    between atoms: N_11  and  C_12
REMARK    3  A    between atoms: N_11  and  C_14
REMARK                            x       y       z     vdW  Elec       q    Type
REMARK                         _______ _______ _______ _____ _____    ______ ____
ROOT
ATOM      1  N   UNL     1      33.577 -15.017 -24.643  0.00  0.00    -0.106 N 
ATOM      2  N   UNL     1      34.213 -17.015 -25.818  0.00  0.00    -0.340 NA
ATOM      3  N   UNL     1      33.122 -13.772 -24.941  0.00  0.00    -0.139 NA
ATOM      4  N   UNL     1      33.434 -14.966 -26.854  0.00  0.00    -0.145 NA
ATOM      5  C   UNL     1      33.845 -15.579 -23.388  0.00  0.00    +0.138 C 
ATOM      6  C   UNL     1      34.293 -16.844 -23.341  0.00  0.00    +0.061 C 
ATOM      7  C   UNL     1      33.761 -15.730 -25.831  0.00  0.00    +0.174 C 
ATOM      8  C   UNL     1      34.463 -17.537 -24.654  0.00  0.00    +0.125 C 
ATOM      9  C   UNL     1      34.964 -18.959 -24.615  0.00  0.00    +0.068 C 
ATOM     10  C   UNL     1      33.058 -13.801 -26.268  0.00  0.00    +0.230 C 
ENDROOT
BRANCH   5  11
ATOM     11  N   UNL     1      33.633 -14.800 -22.287  0.00  0.00    -0.294 N 
BRANCH  11  12
ATOM     12  C   UNL     1      32.288 -14.422 -21.872  0.00  0.00    +0.092 C 
ATOM     13  C   UNL     1      32.224 -12.950 -21.497  0.00  0.00    +0.023 C 
ENDBRANCH  11  12
BRANCH  11  14
ATOM     14  C   UNL     1      34.702 -14.518 -21.337  0.00  0.00    +0.092 C 
ATOM     15  C   UNL     1      34.687 -15.506 -20.184  0.00  0.00    +0.023 C 
ENDBRANCH  11  14
ENDBRANCH   5  11
TORSDOF 3
ENDMDL
MODEL 6
REMARK VINA RESULT:      -6.6      6.768      9.269
REMARK  Name = 5531
REMARK  3 active torsions:
REMARK  status: ('A' for Active; 'I' for Inactive)
REMARK    1  A    between atoms: C_5  and  N_11
REMARK    2  A    between atoms: N_11  and  C_12
REMARK    3  A    between atoms: N_11  and  C_14
REMARK                            x       y       z     vdW  Elec       q    Type
REMARK                         _______ _______ _______ _____ _____    ______ ____
ROOT
ATOM      1  N   UNL     1      33.847 -23.408 -16.503  0.00  0.00    -0.106 N 
ATOM      2  N   UNL     1      31.546 -23.353 -15.811  0.00  0.00    -0.340 NA
ATOM      3  N   UNL     1      34.578 -23.097 -17.605  0.00  0.00    -0.139 NA
ATOM      4  N   UNL     1      32.376 -22.660 -17.981  0.00  0.00    -0.145 NA
ATOM      5  C   UNL     1      34.283 -23.923 -15.274  0.00  0.00    +0.138 C 
ATOM      6  C   UNL     1      33.365 -24.153 -14.321  0.00  0.00    +0.061 C 
ATOM      7  C   UNL     1      32.501 -23.131 -16.756  0.00  0.00    +0.174 C 
ATOM      8  C   UNL     1      31.949 -23.831 -14.671  0.00  0.00    +0.125 C 
ATOM      9  C   UNL     1      30.909 -24.083 -13.608  0.00  0.00    +0.068 C 
ATOM     10  C   UNL     1      33.650 -22.659 -18.449  0.00  0.00    +0.230 C 
ENDROOT
BRANCH   5  11
ATOM     11  N   UNL     1      35.619 -24.159 -15.125  0.00  0.00    -0.294 N 
BRANCH  11  12
ATOM     12  C   UNL     1      36.535 -23.105 -14.709  0.00  0.00    +0.092 C 
ATOM     13  C   UNL     1      37.531 -22.779 -15.809  0.00  0.00    +0.023 C 
ENDBRANCH  11  12
BRANCH  11  14
ATOM     14  C   UNL     1      36.156 -25.514 -15.128  0.00  0.00    +0.092 C 
ATOM     15  C   UNL     1      36.878 -25.822 -13.828  0.00  0.00    +0.023 C 
ENDBRANCH  11  14
ENDBRANCH   5  11
TORSDOF 3
ENDMDL
MODEL 7
REMARK VINA RESULT:      -6.5      7.751     10.973
REMARK  Name = 5531
REMARK  3 active torsions:
REMARK  status: ('A' for Active; 'I' for Inactive)
REMARK    1  A    between atoms: C_5  and  N_11
REMARK    2  A    between atoms: N_11  and  C_12
REMARK    3  A    between atoms: N_11  and  C_14
REMARK                            x       y       z     vdW  Elec       q    Type
REMARK                         _______ _______ _______ _____ _____    ______ ____
ROOT
ATOM      1  N   UNL     1      37.108 -23.900 -13.261  0.00  0.00    -0.106 N 
ATOM      2  N   UNL     1      39.045 -25.269 -12.870  0.00  0.00    -0.340 NA
ATOM      3  N   UNL     1      36.128 -23.304 -12.532  0.00  0.00    -0.139 NA
ATOM      4  N   UNL     1      37.552 -24.427 -11.155  0.00  0.00    -0.145 NA
ATOM      5  C   UNL     1      37.303 -23.887 -14.648  0.00  0.00    +0.138 C 
ATOM      6  C   UNL     1      38.355 -24.556 -15.147  0.00  0.00    +0.061 C 
ATOM      7  C   UNL     1      37.968 -24.581 -12.396  0.00  0.00    +0.174 C 
ATOM      8  C   UNL     1      39.226 -25.258 -14.158  0.00  0.00    +0.125 C 
ATOM      9  C   UNL     1      40.412 -26.011 -14.705  0.00  0.00    +0.068 C 
ATOM     10  C   UNL     1      36.444 -23.654 -11.290  0.00  0.00    +0.230 C 
ENDROOT
BRANCH   5  11
ATOM     11  N   UNL     1      36.407 -23.192 -15.407  0.00  0.00    -0.294 N 
BRANCH  11  12
ATOM     12  C   UNL     1      36.738 -21.891 -15.973  0.00  0.00    +0.092 C 
ATOM     13  C   UNL     1      36.770 -21.945 -17.491  0.00  0.00    +0.023 C 
ENDBRANCH  11  12
BRANCH  11  14
ATOM     14  C   UNL     1      35.182 -23.813 -15.896  0.00  0.00    +0.092 C 
ATOM     15  C   UNL     1      33.953 -23.140 -15.308  0.00  0.00    +0.023 C 
ENDBRANCH  11  14
ENDBRANCH   5  11
TORSDOF 3
ENDMDL
MODEL 8
REMARK VINA RESULT:      -6.5      3.108      6.242
REMARK  Name = 5531
REMARK  3 active torsions:
REMARK  status: ('A' for Active; 'I' for Inactive)
REMARK    1  A    between atoms: C_5  and  N_11
REMARK    2  A    between atoms: N_11  and  C_12
REMARK    3  A    between atoms: N_11  and  C_14
REMARK                            x       y       z     vdW  Elec       q    Type
REMARK                         _______ _______ _______ _____ _____    ______ ____
ROOT
ATOM      1  N   UNL     1      33.436 -14.531 -24.636  0.00  0.00    -0.106 N 
ATOM      2  N   UNL     1      34.462 -16.625 -24.051  0.00  0.00    -0.340 NA
ATOM      3  N   UNL     1      32.844 -13.964 -25.720  0.00  0.00    -0.139 NA
ATOM      4  N   UNL     1      33.515 -16.082 -26.216  0.00  0.00    -0.145 NA
ATOM      5  C   UNL     1      33.649 -13.984 -23.364  0.00  0.00    +0.138 C 
ATOM      6  C   UNL     1      34.263 -14.743 -22.442  0.00  0.00    +0.061 C 
ATOM      7  C   UNL     1      33.838 -15.828 -24.964  0.00  0.00    +0.174 C 
ATOM      8  C   UNL     1      34.661 -16.117 -22.871  0.00  0.00    +0.125 C 
ATOM      9  C   UNL     1      35.348 -16.981 -21.843  0.00  0.00    +0.068 C 
ATOM     10  C   UNL     1      32.922 -14.932 -26.627  0.00  0.00    +0.230 C 
ENDROOT
BRANCH   5  11
ATOM     11  N   UNL     1      33.219 -12.708 -23.143  0.00  0.00    -0.294 N 
BRANCH  11  12
ATOM     12  C   UNL     1      33.879 -11.565 -23.760  0.00  0.00    +0.092 C 
ATOM     13  C   UNL     1      33.037 -10.308 -23.628  0.00  0.00    +0.023 C 
ENDBRANCH  11  12
BRANCH  11  14
ATOM     14  C   UNL     1      31.943 -12.438 -22.491  0.00  0.00    +0.092 C 
ATOM     15  C   UNL     1      32.048 -12.613 -20.986  0.00  0.00    +0.023 C 
ENDBRANCH  11  14
ENDBRANCH   5  11
TORSDOF 3
ENDMDL
MODEL 9
REMARK VINA RESULT:      -6.5      6.846      9.683
REMARK  Name = 5531
REMARK  3 active torsions:
REMARK  status: ('A' for Active; 'I' for Inactive)
REMARK    1  A    between atoms: C_5  and  N_11
REMARK    2  A    between atoms: N_11  and  C_12
REMARK    3  A    between atoms: N_11  and  C_14
REMARK                            x       y       z     vdW  Elec       q    Type
REMARK                         _______ _______ _______ _____ _____    ______ ____
ROOT
ATOM      1  N   UNL     1      32.780 -23.318 -16.490  0.00  0.00    -0.106 N 
ATOM      2  N   UNL     1      34.827 -23.520 -15.247  0.00  0.00    -0.340 NA
ATOM      3  N   UNL     1      32.390 -22.973 -17.745  0.00  0.00    -0.139 NA
ATOM      4  N   UNL     1      34.656 -22.835 -17.566  0.00  0.00    -0.145 NA
ATOM      5  C   UNL     1      31.991 -23.713 -15.401  0.00  0.00    +0.138 C 
ATOM      6  C   UNL     1      32.608 -24.009 -14.245  0.00  0.00    +0.061 C 
ATOM      7  C   UNL     1      34.172 -23.226 -16.404  0.00  0.00    +0.174 C 
ATOM      8  C   UNL     1      34.096 -23.886 -14.236  0.00  0.00    +0.125 C 
ATOM      9  C   UNL     1      34.800 -24.218 -12.944  0.00  0.00    +0.068 C 
ATOM     10  C   UNL     1      33.547 -22.695 -18.337  0.00  0.00    +0.230 C 
ENDROOT
BRANCH   5  11
ATOM     11  N   UNL     1      30.640 -23.772 -15.587  0.00  0.00    -0.294 N 
BRANCH  11  12
ATOM     12  C   UNL     1      29.954 -25.044 -15.773  0.00  0.00    +0.092 C 
ATOM     13  C   UNL     1      29.109 -25.393 -14.559  0.00  0.00    +0.023 C 
ENDBRANCH  11  12
BRANCH  11  14
ATOM     14  C   UNL     1      29.791 -22.609 -15.360  0.00  0.00    +0.092 C 
ATOM     15  C   UNL     1      28.781 -22.441 -16.483  0.00  0.00    +0.023 C 
ENDBRANCH  11  14
ENDBRANCH   5  11
TORSDOF 3
ENDMDL
