MODEL 1
REMARK VINA RESULT:      -6.4      0.000      0.000
REMARK  Name = 6992107
REMARK  6 active torsions:
REMARK  status: ('A' for Active; 'I' for Inactive)
REMARK    1  A    between atoms: C_2  and  O_7
REMARK    2  A    between atoms: C_3  and  O_9
REMARK    3  A    between atoms: C_3  and  C_15
REMARK    4  A    between atoms: C_4  and  O_11
REMARK    5  A    between atoms: C_5  and  O_13
REMARK    6  A    between atoms: C_15  and  O_16
REMARK                            x       y       z     vdW  Elec       q    Type
REMARK                         _______ _______ _______ _____ _____    ______ ____
ROOT
ATOM      1  O   UNL     1      36.871 -26.285 -12.172  0.00  0.00    -0.328 OA
ATOM      2  C   UNL     1      35.503 -24.571 -13.232  0.00  0.00    +0.194 C 
ATOM      3  C   UNL     1      36.388 -24.944 -12.028  0.00  0.00    +0.239 C 
ATOM      4  C   UNL     1      36.195 -24.839 -14.569  0.00  0.00    +0.171 C 
ATOM      5  C   UNL     1      36.765 -26.254 -14.605  0.00  0.00    +0.169 C 
ATOM      6  C   UNL     1      37.605 -26.532 -13.367  0.00  0.00    +0.176 C 
ENDROOT
BRANCH   2   7
ATOM      7  O   UNL     1      35.138 -23.194 -13.157  0.00  0.00    -0.378 OA
ATOM      8  H   UNL     1      34.260 -23.114 -12.750  0.00  0.00    +0.211 HD
ENDBRANCH   2   7
BRANCH   3   9
ATOM      9  O   UNL     1      35.533 -24.896 -10.875  0.00  0.00    -0.360 OA
ATOM     10  H   UNL     1      35.694 -24.073 -10.387  0.00  0.00    +0.213 HD
ENDBRANCH   3   9
BRANCH   4  11
ATOM     11  O   UNL     1      35.225 -24.699 -15.610  0.00  0.00    -0.379 OA
ATOM     12  H   UNL     1      35.337 -23.839 -16.044  0.00  0.00    +0.211 HD
ENDBRANCH   4  11
BRANCH   5  13
ATOM     13  O   UNL     1      37.569 -26.401 -15.770  0.00  0.00    -0.379 OA
ATOM     14  H   UNL     1      37.127 -25.978 -16.523  0.00  0.00    +0.211 HD
ENDBRANCH   5  13
BRANCH   3  15
ATOM     15  C   UNL     1      37.542 -23.964 -11.786  0.00  0.00    +0.196 C 
BRANCH  15  16
ATOM     16  O   UNL     1      37.104 -22.976 -10.873  0.00  0.00    -0.378 OA
ATOM     17  H   UNL     1      37.548 -22.135 -11.069  0.00  0.00    +0.211 HD
ENDBRANCH  15  16
ENDBRANCH   3  15
TORSDOF 6
ENDMDL
MODEL 2
REMARK VINA RESULT:      -6.3      1.516      3.890
REMARK  Name = 6992107
REMARK  6 active torsions:
REMARK  status: ('A' for Active; 'I' for Inactive)
REMARK    1  A    between atoms: C_2  and  O_7
REMARK    2  A    between atoms: C_3  and  O_9
REMARK    3  A    between atoms: C_3  and  C_15
REMARK    4  A    between atoms: C_4  and  O_11
REMARK    5  A    between atoms: C_5  and  O_13
REMARK    6  A    between atoms: C_15  and  O_16
REMARK                            x       y       z     vdW  Elec       q    Type
REMARK                         _______ _______ _______ _____ _____    ______ ____
ROOT
ATOM      1  O   UNL     1      37.885 -23.198 -13.556  0.00  0.00    -0.328 OA
ATOM      2  C   UNL     1      35.977 -24.680 -13.872  0.00  0.00    +0.194 C 
ATOM      3  C   UNL     1      37.409 -24.318 -14.312  0.00  0.00    +0.239 C 
ATOM      4  C   UNL     1      35.861 -24.861 -12.358  0.00  0.00    +0.171 C 
ATOM      5  C   UNL     1      36.477 -23.673 -11.626  0.00  0.00    +0.169 C 
ATOM      6  C   UNL     1      37.879 -23.382 -12.144  0.00  0.00    +0.176 C 
ENDROOT
BRANCH   2   7
ATOM      7  O   UNL     1      35.558 -25.877 -14.525  0.00  0.00    -0.378 OA
ATOM      8  H   UNL     1      35.929 -26.645 -14.061  0.00  0.00    +0.211 HD
ENDBRANCH   2   7
BRANCH   3   9
ATOM      9  O   UNL     1      37.314 -23.923 -15.690  0.00  0.00    -0.360 OA
ATOM     10  H   UNL     1      37.389 -22.958 -15.756  0.00  0.00    +0.213 HD
ENDBRANCH   3   9
BRANCH   4  11
ATOM     11  O   UNL     1      34.474 -24.948 -12.024  0.00  0.00    -0.379 OA
ATOM     12  H   UNL     1      34.377 -25.021 -11.062  0.00  0.00    +0.211 HD
ENDBRANCH   4  11
BRANCH   5  13
ATOM     13  O   UNL     1      36.534 -23.963 -10.234  0.00  0.00    -0.379 OA
ATOM     14  H   UNL     1      37.448 -23.871  -9.922  0.00  0.00    +0.211 HD
ENDBRANCH   5  13
BRANCH   3  15
ATOM     15  C   UNL     1      38.390 -25.493 -14.237  0.00  0.00    +0.196 C 
BRANCH  15  16
ATOM     16  O   UNL     1      38.316 -26.215 -15.452  0.00  0.00    -0.378 OA
ATOM     17  H   UNL     1      38.192 -27.159 -15.260  0.00  0.00    +0.211 HD
ENDBRANCH  15  16
ENDBRANCH   3  15
TORSDOF 6
ENDMDL
MODEL 3
REMARK VINA RESULT:      -6.2      1.351      3.970
REMARK  Name = 6992107
REMARK  6 active torsions:
REMARK  status: ('A' for Active; 'I' for Inactive)
REMARK    1  A    between atoms: C_2  and  O_7
REMARK    2  A    between atoms: C_3  and  O_9
REMARK    3  A    between atoms: C_3  and  C_15
REMARK    4  A    between atoms: C_4  and  O_11
REMARK    5  A    between atoms: C_5  and  O_13
REMARK    6  A    between atoms: C_15  and  O_16
REMARK                            x       y       z     vdW  Elec       q    Type
REMARK                         _______ _______ _______ _____ _____    ______ ____
ROOT
ATOM      1  O   UNL     1      35.639 -25.005 -15.392  0.00  0.00    -0.328 OA
ATOM      2  C   UNL     1      36.973 -25.652 -13.459  0.00  0.00    +0.194 C 
ATOM      3  C   UNL     1      36.982 -25.189 -14.929  0.00  0.00    +0.239 C 
ATOM      4  C   UNL     1      36.130 -24.742 -12.566  0.00  0.00    +0.171 C 
ATOM      5  C   UNL     1      34.750 -24.518 -13.178  0.00  0.00    +0.169 C 
ATOM      6  C   UNL     1      34.864 -24.084 -14.632  0.00  0.00    +0.176 C 
ENDROOT
BRANCH   2   7
ATOM      7  O   UNL     1      38.308 -25.701 -12.959  0.00  0.00    -0.378 OA
ATOM      8  H   UNL     1      38.317 -26.168 -12.108  0.00  0.00    +0.211 HD
ENDBRANCH   2   7
BRANCH   3   9
ATOM      9  O   UNL     1      37.575 -26.260 -15.681  0.00  0.00    -0.360 OA
ATOM     10  H   UNL     1      36.942 -26.992 -15.754  0.00  0.00    +0.213 HD
ENDBRANCH   3   9
BRANCH   4  11
ATOM     11  O   UNL     1      35.980 -25.377 -11.295  0.00  0.00    -0.379 OA
ATOM     12  H   UNL     1      35.038 -25.511 -11.108  0.00  0.00    +0.211 HD
ENDBRANCH   4  11
BRANCH   5  13
ATOM     13  O   UNL     1      34.069 -23.515 -12.432  0.00  0.00    -0.379 OA
ATOM     14  H   UNL     1      34.717 -22.939 -11.997  0.00  0.00    +0.211 HD
ENDBRANCH   5  13
BRANCH   3  15
ATOM     15  C   UNL     1      37.828 -23.934 -15.172  0.00  0.00    +0.196 C 
BRANCH  15  16
ATOM     16  O   UNL     1      39.162 -24.335 -15.417  0.00  0.00    -0.378 OA
ATOM     17  H   UNL     1      39.518 -24.776 -14.628  0.00  0.00    +0.211 HD
ENDBRANCH  15  16
ENDBRANCH   3  15
TORSDOF 6
ENDMDL
MODEL 4
REMARK VINA RESULT:      -6.2      1.429      4.050
REMARK  Name = 6992107
REMARK  6 active torsions:
REMARK  status: ('A' for Active; 'I' for Inactive)
REMARK    1  A    between atoms: C_2  and  O_7
REMARK    2  A    between atoms: C_3  and  O_9
REMARK    3  A    between atoms: C_3  and  C_15
REMARK    4  A    between atoms: C_4  and  O_11
REMARK    5  A    between atoms: C_5  and  O_13
REMARK    6  A    between atoms: C_15  and  O_16
REMARK                            x       y       z     vdW  Elec       q    Type
REMARK                         _______ _______ _______ _____ _____    ______ ____
ROOT
ATOM      1  O   UNL     1      36.593 -24.079 -14.632  0.00  0.00    -0.328 OA
ATOM      2  C   UNL     1      36.545 -25.433 -12.609  0.00  0.00    +0.194 C 
ATOM      3  C   UNL     1      36.829 -25.397 -14.122  0.00  0.00    +0.239 C 
ATOM      4  C   UNL     1      37.288 -24.333 -11.849  0.00  0.00    +0.171 C 
ATOM      5  C   UNL     1      37.064 -22.978 -12.512  0.00  0.00    +0.169 C 
ATOM      6  C   UNL     1      37.350 -23.049 -14.005  0.00  0.00    +0.176 C 
ENDROOT
BRANCH   2   7
ATOM      7  O   UNL     1      36.913 -26.706 -12.077  0.00  0.00    -0.378 OA
ATOM      8  H   UNL     1      36.236 -27.360 -12.309  0.00  0.00    +0.211 HD
ENDBRANCH   2   7
BRANCH   3   9
ATOM      9  O   UNL     1      35.881 -26.290 -14.727  0.00  0.00    -0.360 OA
ATOM     10  H   UNL     1      35.460 -26.829 -14.040  0.00  0.00    +0.213 HD
ENDBRANCH   3   9
BRANCH   4  11
ATOM     11  O   UNL     1      36.780 -24.291 -10.514  0.00  0.00    -0.379 OA
ATOM     12  H   UNL     1      36.792 -25.183 -10.134  0.00  0.00    +0.211 HD
ENDBRANCH   4  11
BRANCH   5  13
ATOM     13  O   UNL     1      37.923 -22.017 -11.907  0.00  0.00    -0.379 OA
ATOM     14  H   UNL     1      37.646 -21.126 -12.170  0.00  0.00    +0.211 HD
ENDBRANCH   5  13
BRANCH   3  15
ATOM     15  C   UNL     1      38.231 -25.892 -14.497  0.00  0.00    +0.196 C 
BRANCH  15  16
ATOM     16  O   UNL     1      38.177 -27.295 -14.673  0.00  0.00    -0.378 OA
ATOM     17  H   UNL     1      37.797 -27.706 -13.879  0.00  0.00    +0.211 HD
ENDBRANCH  15  16
ENDBRANCH   3  15
TORSDOF 6
ENDMDL
MODEL 5
REMARK VINA RESULT:      -6.1      1.897      3.102
REMARK  Name = 6992107
REMARK  6 active torsions:
REMARK  status: ('A' for Active; 'I' for Inactive)
REMARK    1  A    between atoms: C_2  and  O_7
REMARK    2  A    between atoms: C_3  and  O_9
REMARK    3  A    between atoms: C_3  and  C_15
REMARK    4  A    between atoms: C_4  and  O_11
REMARK    5  A    between atoms: C_5  and  O_13
REMARK    6  A    between atoms: C_15  and  O_16
REMARK                            x       y       z     vdW  Elec       q    Type
REMARK                         _______ _______ _______ _____ _____    ______ ____
ROOT
ATOM      1  O   UNL     1      36.926 -24.151 -11.040  0.00  0.00    -0.328 OA
ATOM      2  C   UNL     1      37.050 -23.091 -13.229  0.00  0.00    +0.194 C 
ATOM      3  C   UNL     1      37.791 -23.912 -12.157  0.00  0.00    +0.239 C 
ATOM      4  C   UNL     1      35.704 -23.707 -13.609  0.00  0.00    +0.171 C 
ATOM      5  C   UNL     1      34.885 -24.020 -12.361  0.00  0.00    +0.169 C 
ATOM      6  C   UNL     1      35.707 -24.814 -11.356  0.00  0.00    +0.176 C 
ENDROOT
BRANCH   2   7
ATOM      7  O   UNL     1      37.863 -22.973 -14.396  0.00  0.00    -0.378 OA
ATOM      8  H   UNL     1      38.794 -23.108 -14.156  0.00  0.00    +0.211 HD
ENDBRANCH   2   7
BRANCH   3   9
ATOM      9  O   UNL     1      38.885 -23.095 -11.712  0.00  0.00    -0.360 OA
ATOM     10  H   UNL     1      39.554 -23.654 -11.288  0.00  0.00    +0.213 HD
ENDBRANCH   3   9
BRANCH   4  11
ATOM     11  O   UNL     1      34.991 -22.763 -14.412  0.00  0.00    -0.379 OA
ATOM     12  H   UNL     1      34.037 -22.898 -14.301  0.00  0.00    +0.211 HD
ENDBRANCH   4  11
BRANCH   5  13
ATOM     13  O   UNL     1      33.735 -24.770 -12.735  0.00  0.00    -0.379 OA
ATOM     14  H   UNL     1      34.012 -25.608 -13.136  0.00  0.00    +0.211 HD
ENDBRANCH   5  13
BRANCH   3  15
ATOM     15  C   UNL     1      38.383 -25.224 -12.688  0.00  0.00    +0.196 C 
BRANCH  15  16
ATOM     16  O   UNL     1      39.558 -24.921 -13.414  0.00  0.00    -0.378 OA
ATOM     17  H   UNL     1      39.637 -25.525 -14.170  0.00  0.00    +0.211 HD
ENDBRANCH  15  16
ENDBRANCH   3  15
TORSDOF 6
ENDMDL
MODEL 6
REMARK VINA RESULT:      -6.0      1.625      4.018
REMARK  Name = 6992107
REMARK  6 active torsions:
REMARK  status: ('A' for Active; 'I' for Inactive)
REMARK    1  A    between atoms: C_2  and  O_7
REMARK    2  A    between atoms: C_3  and  O_9
REMARK    3  A    between atoms: C_3  and  C_15
REMARK    4  A    between atoms: C_4  and  O_11
REMARK    5  A    between atoms: C_5  and  O_13
REMARK    6  A    between atoms: C_15  and  O_16
REMARK                            x       y       z     vdW  Elec       q    Type
REMARK                         _______ _______ _______ _____ _____    ______ ____
ROOT
ATOM      1  O   UNL     1      38.911 -26.132 -13.370  0.00  0.00    -0.328 OA
ATOM      2  C   UNL     1      37.888 -24.305 -14.614  0.00  0.00    +0.194 C 
ATOM      3  C   UNL     1      38.221 -25.808 -14.583  0.00  0.00    +0.239 C 
ATOM      4  C   UNL     1      37.165 -23.841 -13.350  0.00  0.00    +0.171 C 
ATOM      5  C   UNL     1      37.911 -24.308 -12.103  0.00  0.00    +0.169 C 
ATOM      6  C   UNL     1      38.211 -25.799 -12.176  0.00  0.00    +0.176 C 
ENDROOT
BRANCH   2   7
ATOM      7  O   UNL     1      37.082 -24.011 -15.755  0.00  0.00    -0.378 OA
ATOM      8  H   UNL     1      37.074 -24.777 -16.350  0.00  0.00    +0.211 HD
ENDBRANCH   2   7
BRANCH   3   9
ATOM      9  O   UNL     1      39.114 -26.042 -15.684  0.00  0.00    -0.360 OA
ATOM     10  H   UNL     1      39.117 -26.987 -15.903  0.00  0.00    +0.213 HD
ENDBRANCH   3   9
BRANCH   4  11
ATOM     11  O   UNL     1      37.119 -22.413 -13.359  0.00  0.00    -0.379 OA
ATOM     12  H   UNL     1      36.214 -22.119 -13.547  0.00  0.00    +0.211 HD
ENDBRANCH   4  11
BRANCH   5  13
ATOM     13  O   UNL     1      37.113 -24.038 -10.956  0.00  0.00    -0.379 OA
ATOM     14  H   UNL     1      37.687 -23.935 -10.180  0.00  0.00    +0.211 HD
ENDBRANCH   5  13
BRANCH   3  15
ATOM     15  C   UNL     1      36.999 -26.713 -14.783  0.00  0.00    +0.196 C 
BRANCH  15  16
ATOM     16  O   UNL     1      36.914 -27.053 -16.153  0.00  0.00    -0.378 OA
ATOM     17  H   UNL     1      37.541 -27.769 -16.349  0.00  0.00    +0.211 HD
ENDBRANCH  15  16
ENDBRANCH   3  15
TORSDOF 6
ENDMDL
MODEL 7
REMARK VINA RESULT:      -5.7      1.496      3.799
REMARK  Name = 6992107
REMARK  6 active torsions:
REMARK  status: ('A' for Active; 'I' for Inactive)
REMARK    1  A    between atoms: C_2  and  O_7
REMARK    2  A    between atoms: C_3  and  O_9
REMARK    3  A    between atoms: C_3  and  C_15
REMARK    4  A    between atoms: C_4  and  O_11
REMARK    5  A    between atoms: C_5  and  O_13
REMARK    6  A    between atoms: C_15  and  O_16
REMARK                            x       y       z     vdW  Elec       q    Type
REMARK                         _______ _______ _______ _____ _____    ______ ____
ROOT
ATOM      1  O   UNL     1      35.519 -23.862 -12.759  0.00  0.00    -0.328 OA
ATOM      2  C   UNL     1      36.890 -25.349 -14.116  0.00  0.00    +0.194 C 
ATOM      3  C   UNL     1      35.704 -24.367 -14.086  0.00  0.00    +0.239 C 
ATOM      4  C   UNL     1      38.156 -24.754 -13.498  0.00  0.00    +0.171 C 
ATOM      5  C   UNL     1      37.854 -24.152 -12.129  0.00  0.00    +0.169 C 
ATOM      6  C   UNL     1      36.657 -23.214 -12.200  0.00  0.00    +0.176 C 
ENDROOT
BRANCH   2   7
ATOM      7  O   UNL     1      37.161 -25.743 -15.461  0.00  0.00    -0.378 OA
ATOM      8  H   UNL     1      36.419 -25.481 -16.029  0.00  0.00    +0.211 HD
ENDBRANCH   2   7
BRANCH   3   9
ATOM      9  O   UNL     1      34.543 -25.133 -14.443  0.00  0.00    -0.360 OA
ATOM     10  H   UNL     1      33.838 -24.970 -13.797  0.00  0.00    +0.213 HD
ENDBRANCH   3   9
BRANCH   4  11
ATOM     11  O   UNL     1      39.116 -25.803 -13.346  0.00  0.00    -0.379 OA
ATOM     12  H   UNL     1      38.672 -26.661 -13.420  0.00  0.00    +0.211 HD
ENDBRANCH   4  11
BRANCH   5  13
ATOM     13  O   UNL     1      38.996 -23.435 -11.674  0.00  0.00    -0.379 OA
ATOM     14  H   UNL     1      38.867 -22.487 -11.834  0.00  0.00    +0.211 HD
ENDBRANCH   5  13
BRANCH   3  15
ATOM     15  C   UNL     1      35.829 -23.223 -15.101  0.00  0.00    +0.196 C 
BRANCH  15  16
ATOM     16  O   UNL     1      35.338 -23.676 -16.347  0.00  0.00    -0.378 OA
ATOM     17  H   UNL     1      36.052 -24.114 -16.837  0.00  0.00    +0.211 HD
ENDBRANCH  15  16
ENDBRANCH   3  15
TORSDOF 6
ENDMDL
MODEL 8
REMARK VINA RESULT:      -5.7      2.151      4.131
REMARK  Name = 6992107
REMARK  6 active torsions:
REMARK  status: ('A' for Active; 'I' for Inactive)
REMARK    1  A    between atoms: C_2  and  O_7
REMARK    2  A    between atoms: C_3  and  O_9
REMARK    3  A    between atoms: C_3  and  C_15
REMARK    4  A    between atoms: C_4  and  O_11
REMARK    5  A    between atoms: C_5  and  O_13
REMARK    6  A    between atoms: C_15  and  O_16
REMARK                            x       y       z     vdW  Elec       q    Type
REMARK                         _______ _______ _______ _____ _____    ______ ____
ROOT
ATOM      1  O   UNL     1      38.620 -23.985 -13.589  0.00  0.00    -0.328 OA
ATOM      2  C   UNL     1      37.673 -25.665 -15.077  0.00  0.00    +0.194 C 
ATOM      3  C   UNL     1      38.879 -24.758 -14.767  0.00  0.00    +0.239 C 
ATOM      4  C   UNL     1      37.246 -26.500 -13.870  0.00  0.00    +0.171 C 
ATOM      5  C   UNL     1      37.086 -25.618 -12.635  0.00  0.00    +0.169 C 
ATOM      6  C   UNL     1      38.317 -24.748 -12.426  0.00  0.00    +0.176 C 
ENDROOT
BRANCH   2   7
ATOM      7  O   UNL     1      37.987 -26.533 -16.166  0.00  0.00    -0.378 OA
ATOM      8  H   UNL     1      38.938 -26.485 -16.353  0.00  0.00    +0.211 HD
ENDBRANCH   2   7
BRANCH   3   9
ATOM      9  O   UNL     1      38.997 -23.857 -15.880  0.00  0.00    -0.360 OA
ATOM     10  H   UNL     1      38.322 -24.071 -16.542  0.00  0.00    +0.213 HD
ENDBRANCH   3   9
BRANCH   4  11
ATOM     11  O   UNL     1      35.992 -27.115 -14.172  0.00  0.00    -0.379 OA
ATOM     12  H   UNL     1      35.520 -27.311 -13.348  0.00  0.00    +0.211 HD
ENDBRANCH   4  11
BRANCH   5  13
ATOM     13  O   UNL     1      36.887 -26.446 -11.495  0.00  0.00    -0.379 OA
ATOM     14  H   UNL     1      37.017 -27.375 -11.744  0.00  0.00    +0.211 HD
ENDBRANCH   5  13
BRANCH   3  15
ATOM     15  C   UNL     1      40.206 -25.518 -14.649  0.00  0.00    +0.196 C 
BRANCH  15  16
ATOM     16  O   UNL     1      40.607 -25.920 -15.944  0.00  0.00    -0.378 OA
ATOM     17  H   UNL     1      39.878 -25.775 -16.569  0.00  0.00    +0.211 HD
ENDBRANCH  15  16
ENDBRANCH   3  15
TORSDOF 6
ENDMDL
MODEL 9
REMARK VINA RESULT:      -5.7      1.677      2.903
REMARK  Name = 6992107
REMARK  6 active torsions:
REMARK  status: ('A' for Active; 'I' for Inactive)
REMARK    1  A    between atoms: C_2  and  O_7
REMARK    2  A    between atoms: C_3  and  O_9
REMARK    3  A    between atoms: C_3  and  C_15
REMARK    4  A    between atoms: C_4  and  O_11
REMARK    5  A    between atoms: C_5  and  O_13
REMARK    6  A    between atoms: C_15  and  O_16
REMARK                            x       y       z     vdW  Elec       q    Type
REMARK                         _______ _______ _______ _____ _____    ______ ____
ROOT
ATOM      1  O   UNL     1      35.715 -24.799 -15.361  0.00  0.00    -0.328 OA
ATOM      2  C   UNL     1      37.171 -23.706 -13.743  0.00  0.00    +0.194 C 
ATOM      3  C   UNL     1      35.722 -23.963 -14.198  0.00  0.00    +0.239 C 
ATOM      4  C   UNL     1      37.970 -24.999 -13.581  0.00  0.00    +0.171 C 
ATOM      5  C   UNL     1      37.832 -25.875 -14.822  0.00  0.00    +0.169 C 
ATOM      6  C   UNL     1      36.369 -26.053 -15.202  0.00  0.00    +0.176 C 
ENDROOT
BRANCH   2   7
ATOM      7  O   UNL     1      37.172 -22.991 -12.508  0.00  0.00    -0.378 OA
ATOM      8  H   UNL     1      37.102 -23.620 -11.772  0.00  0.00    +0.211 HD
ENDBRANCH   2   7
BRANCH   3   9
ATOM      9  O   UNL     1      35.185 -22.681 -14.561  0.00  0.00    -0.360 OA
ATOM     10  H   UNL     1      35.902 -22.029 -14.600  0.00  0.00    +0.213 HD
ENDBRANCH   3   9
BRANCH   4  11
ATOM     11  O   UNL     1      39.346 -24.656 -13.401  0.00  0.00    -0.379 OA
ATOM     12  H   UNL     1      39.806 -25.384 -12.957  0.00  0.00    +0.211 HD
ENDBRANCH   4  11
BRANCH   5  13
ATOM     13  O   UNL     1      38.415 -27.147 -14.561  0.00  0.00    -0.379 OA
ATOM     14  H   UNL     1      37.729 -27.831 -14.600  0.00  0.00    +0.211 HD
ENDBRANCH   5  13
BRANCH   3  15
ATOM     15  C   UNL     1      34.826 -24.541 -13.096  0.00  0.00    +0.196 C 
BRANCH  15  16
ATOM     16  O   UNL     1      34.380 -23.477 -12.278  0.00  0.00    -0.378 OA
ATOM     17  H   UNL     1      35.072 -22.798 -12.224  0.00  0.00    +0.211 HD
ENDBRANCH  15  16
ENDBRANCH   3  15
TORSDOF 6
ENDMDL
