MODEL 1
REMARK VINA RESULT:      -8.5      0.000      0.000
REMARK  Name = 4636204
REMARK  4 active torsions:
REMARK  status: ('A' for Active; 'I' for Inactive)
REMARK    1  A    between atoms: N_2  and  C_16
REMARK    2  A    between atoms: C_5  and  C_10
REMARK    3  A    between atoms: C_16  and  C_17
REMARK    4  A    between atoms: C_17  and  C_18
REMARK                            x       y       z     vdW  Elec       q    Type
REMARK                         _______ _______ _______ _____ _____    ______ ____
ROOT
ATOM      1  S   UNL     1      33.245 -23.385 -15.698  0.00  0.00    -0.072 S 
ATOM      2  N   UNL     1      34.960 -24.756 -14.264  0.00  0.00    -0.312 N 
ATOM      3  N   UNL     1      35.778 -22.693 -17.130  0.00  0.00    -0.150 NA
ATOM      4  N   UNL     1      35.902 -23.608 -16.083  0.00  0.00    -0.127 NA
ATOM      5  C   UNL     1      34.670 -22.610 -17.803  0.00  0.00    +0.092 C 
ATOM      6  C   UNL     1      33.438 -23.416 -17.487  0.00  0.00    +0.112 C 
ATOM      7  C   UNL     1      34.876 -23.933 -15.354  0.00  0.00    +0.177 C 
ATOM      8  H   UNL     1      34.134 -24.968 -13.771  0.00  0.00    +0.149 HD
ENDROOT
BRANCH   5  10
ATOM      9 CL   UNL     1      34.446 -18.838 -22.455  0.00  0.00    -0.082 Cl
ATOM     10  C   UNL     1      34.614 -21.672 -18.960  0.00  0.00    +0.016 C 
ATOM     11  C   UNL     1      33.381 -21.284 -19.475  0.00  0.00    +0.002 C 
ATOM     12  C   UNL     1      35.795 -21.192 -19.516  0.00  0.00    +0.002 C 
ATOM     13  C   UNL     1      33.329 -20.406 -20.557  0.00  0.00    +0.011 C 
ATOM     14  C   UNL     1      35.743 -20.313 -20.599  0.00  0.00    +0.011 C 
ATOM     15  C   UNL     1      34.510 -19.921 -21.120  0.00  0.00    +0.058 C 
ENDBRANCH   5  10
BRANCH   2  16
ATOM     16  C   UNL     1      36.203 -25.327 -13.803  0.00  0.00    +0.093 C 
BRANCH  16  17
ATOM     17  C   UNL     1      36.748 -24.543 -12.612  0.00  0.00    +0.047 C 
BRANCH  17  18
ATOM     18  C   UNL     1      38.246 -24.621 -12.512  0.00  0.00    -0.024 C 
ATOM     19  C   UNL     1      39.021 -25.269 -13.388  0.00  0.00    -0.005 C 
ENDBRANCH  17  18
ENDBRANCH  16  17
ENDBRANCH   2  16
TORSDOF 4
ENDMDL
MODEL 2
REMARK VINA RESULT:      -8.5      7.186     11.346
REMARK  Name = 4636204
REMARK  4 active torsions:
REMARK  status: ('A' for Active; 'I' for Inactive)
REMARK    1  A    between atoms: N_2  and  C_16
REMARK    2  A    between atoms: C_5  and  C_10
REMARK    3  A    between atoms: C_16  and  C_17
REMARK    4  A    between atoms: C_17  and  C_18
REMARK                            x       y       z     vdW  Elec       q    Type
REMARK                         _______ _______ _______ _____ _____    ______ ____
ROOT
ATOM      1  S   UNL     1      32.761 -14.475 -21.355  0.00  0.00    -0.072 S 
ATOM      2  N   UNL     1      33.305 -12.837 -23.329  0.00  0.00    -0.312 N 
ATOM      3  N   UNL     1      34.544 -16.228 -22.998  0.00  0.00    -0.150 NA
ATOM      4  N   UNL     1      34.374 -14.923 -23.466  0.00  0.00    -0.127 NA
ATOM      5  C   UNL     1      34.457 -16.487 -21.728  0.00  0.00    +0.092 C 
ATOM      6  C   UNL     1      34.113 -15.456 -20.686  0.00  0.00    +0.112 C 
ATOM      7  C   UNL     1      33.573 -14.095 -22.863  0.00  0.00    +0.177 C 
ATOM      8  H   UNL     1      32.698 -12.263 -22.808  0.00  0.00    +0.149 HD
ENDROOT
BRANCH   5  10
ATOM      9 CL   UNL     1      35.513 -22.095 -19.894  0.00  0.00    -0.082 Cl
ATOM     10  C   UNL     1      34.720 -17.882 -21.271  0.00  0.00    +0.016 C 
ATOM     11  C   UNL     1      36.031 -18.324 -21.122  0.00  0.00    +0.002 C 
ATOM     12  C   UNL     1      33.652 -18.730 -20.999  0.00  0.00    +0.002 C 
ATOM     13  C   UNL     1      36.276 -19.628 -20.696  0.00  0.00    +0.011 C 
ATOM     14  C   UNL     1      33.898 -20.036 -20.572  0.00  0.00    +0.011 C 
ATOM     15  C   UNL     1      35.210 -20.485 -20.421  0.00  0.00    +0.058 C 
ENDBRANCH   5  10
BRANCH   2  16
ATOM     16  C   UNL     1      33.871 -12.313 -24.549  0.00  0.00    +0.093 C 
BRANCH  16  17
ATOM     17  C   UNL     1      33.836 -10.786 -24.547  0.00  0.00    +0.047 C 
BRANCH  17  18
ATOM     18  C   UNL     1      35.137 -10.182 -24.995  0.00  0.00    -0.024 C 
ATOM     19  C   UNL     1      35.654 -10.344 -26.218  0.00  0.00    -0.005 C 
ENDBRANCH  17  18
ENDBRANCH  16  17
ENDBRANCH   2  16
TORSDOF 4
ENDMDL
MODEL 3
REMARK VINA RESULT:      -8.2      5.707     10.040
REMARK  Name = 4636204
REMARK  4 active torsions:
REMARK  status: ('A' for Active; 'I' for Inactive)
REMARK    1  A    between atoms: N_2  and  C_16
REMARK    2  A    between atoms: C_5  and  C_10
REMARK    3  A    between atoms: C_16  and  C_17
REMARK    4  A    between atoms: C_17  and  C_18
REMARK                            x       y       z     vdW  Elec       q    Type
REMARK                         _______ _______ _______ _____ _____    ______ ____
ROOT
ATOM      1  S   UNL     1      35.389 -18.035 -23.780  0.00  0.00    -0.072 S 
ATOM      2  N   UNL     1      34.732 -15.501 -23.934  0.00  0.00    -0.312 N 
ATOM      3  N   UNL     1      34.199 -17.650 -21.063  0.00  0.00    -0.150 NA
ATOM      4  N   UNL     1      34.142 -16.544 -21.915  0.00  0.00    -0.127 NA
ATOM      5  C   UNL     1      34.200 -18.854 -21.549  0.00  0.00    +0.092 C 
ATOM      6  C   UNL     1      34.207 -19.161 -23.023  0.00  0.00    +0.112 C 
ATOM      7  C   UNL     1      34.684 -16.582 -23.096  0.00  0.00    +0.177 C 
ATOM      8  H   UNL     1      35.146 -15.612 -24.820  0.00  0.00    +0.149 HD
ENDROOT
BRANCH   5  10
ATOM      9 CL   UNL     1      34.145 -23.464 -17.719  0.00  0.00    -0.082 Cl
ATOM     10  C   UNL     1      34.186 -20.001 -20.597  0.00  0.00    +0.016 C 
ATOM     11  C   UNL     1      32.974 -20.479 -20.109  0.00  0.00    +0.002 C 
ATOM     12  C   UNL     1      35.386 -20.584 -20.202  0.00  0.00    +0.002 C 
ATOM     13  C   UNL     1      32.961 -21.551 -19.218  0.00  0.00    +0.011 C 
ATOM     14  C   UNL     1      35.373 -21.657 -19.310  0.00  0.00    +0.011 C 
ATOM     15  C   UNL     1      34.160 -22.140 -18.818  0.00  0.00    +0.058 C 
ENDBRANCH   5  10
BRANCH   2  16
ATOM     16  C   UNL     1      34.204 -14.205 -23.578  0.00  0.00    +0.093 C 
BRANCH  16  17
ATOM     17  C   UNL     1      32.979 -13.871 -24.426  0.00  0.00    +0.047 C 
BRANCH  17  18
ATOM     18  C   UNL     1      33.036 -14.501 -25.789  0.00  0.00    -0.024 C 
ATOM     19  C   UNL     1      33.180 -13.810 -26.926  0.00  0.00    -0.005 C 
ENDBRANCH  17  18
ENDBRANCH  16  17
ENDBRANCH   2  16
TORSDOF 4
ENDMDL
MODEL 4
REMARK VINA RESULT:      -8.1      5.999      8.468
REMARK  Name = 4636204
REMARK  4 active torsions:
REMARK  status: ('A' for Active; 'I' for Inactive)
REMARK    1  A    between atoms: N_2  and  C_16
REMARK    2  A    between atoms: C_5  and  C_10
REMARK    3  A    between atoms: C_16  and  C_17
REMARK    4  A    between atoms: C_17  and  C_18
REMARK                            x       y       z     vdW  Elec       q    Type
REMARK                         _______ _______ _______ _____ _____    ______ ____
ROOT
ATOM      1  S   UNL     1      34.773 -17.999 -23.281  0.00  0.00    -0.072 S 
ATOM      2  N   UNL     1      36.101 -19.415 -21.519  0.00  0.00    -0.312 N 
ATOM      3  N   UNL     1      34.548 -16.198 -20.904  0.00  0.00    -0.150 NA
ATOM      4  N   UNL     1      35.318 -17.349 -20.724  0.00  0.00    -0.127 NA
ATOM      5  C   UNL     1      34.446 -15.652 -22.078  0.00  0.00    +0.092 C 
ATOM      6  C   UNL     1      35.070 -16.224 -23.323  0.00  0.00    +0.112 C 
ATOM      7  C   UNL     1      35.432 -18.232 -21.672  0.00  0.00    +0.177 C 
ATOM      8  H   UNL     1      36.157 -20.026 -22.289  0.00  0.00    +0.149 HD
ENDROOT
BRANCH   5  10
ATOM      9 CL   UNL     1      31.347 -10.546 -22.576  0.00  0.00    -0.082 Cl
ATOM     10  C   UNL     1      33.675 -14.382 -22.203  0.00  0.00    +0.016 C 
ATOM     11  C   UNL     1      33.864 -13.566 -23.313  0.00  0.00    +0.002 C 
ATOM     12  C   UNL     1      32.774 -14.023 -21.206  0.00  0.00    +0.002 C 
ATOM     13  C   UNL     1      33.143 -12.378 -23.429  0.00  0.00    +0.011 C 
ATOM     14  C   UNL     1      32.052 -12.834 -21.322  0.00  0.00    +0.011 C 
ATOM     15  C   UNL     1      32.237 -12.012 -22.433  0.00  0.00    +0.058 C 
ENDBRANCH   5  10
BRANCH   2  16
ATOM     16  C   UNL     1      36.728 -19.810 -20.280  0.00  0.00    +0.093 C 
BRANCH  16  17
ATOM     17  C   UNL     1      36.237 -21.188 -19.842  0.00  0.00    +0.047 C 
BRANCH  17  18
ATOM     18  C   UNL     1      34.739 -21.255 -19.736  0.00  0.00    -0.024 C 
ATOM     19  C   UNL     1      34.074 -22.283 -19.196  0.00  0.00    -0.005 C 
ENDBRANCH  17  18
ENDBRANCH  16  17
ENDBRANCH   2  16
TORSDOF 4
ENDMDL
MODEL 5
REMARK VINA RESULT:      -8.1     10.236     13.326
REMARK  Name = 4636204
REMARK  4 active torsions:
REMARK  status: ('A' for Active; 'I' for Inactive)
REMARK    1  A    between atoms: N_2  and  C_16
REMARK    2  A    between atoms: C_5  and  C_10
REMARK    3  A    between atoms: C_16  and  C_17
REMARK    4  A    between atoms: C_17  and  C_18
REMARK                            x       y       z     vdW  Elec       q    Type
REMARK                         _______ _______ _______ _____ _____    ______ ____
ROOT
ATOM      1  S   UNL     1      34.317 -10.876 -24.752  0.00  0.00    -0.072 S 
ATOM      2  N   UNL     1      32.690  -9.240 -23.506  0.00  0.00    -0.312 N 
ATOM      3  N   UNL     1      32.987 -12.800 -22.887  0.00  0.00    -0.150 NA
ATOM      4  N   UNL     1      32.512 -11.487 -22.848  0.00  0.00    -0.127 NA
ATOM      5  C   UNL     1      33.495 -13.283 -23.980  0.00  0.00    +0.092 C 
ATOM      6  C   UNL     1      33.673 -12.483 -25.243  0.00  0.00    +0.112 C 
ATOM      7  C   UNL     1      33.059 -10.556 -23.571  0.00  0.00    +0.177 C 
ATOM      8  H   UNL     1      33.141  -8.596 -24.098  0.00  0.00    +0.149 HD
ENDROOT
BRANCH   5  10
ATOM      9 CL   UNL     1      35.197 -19.029 -24.026  0.00  0.00    -0.082 Cl
ATOM     10  C   UNL     1      33.918 -14.712 -23.993  0.00  0.00    +0.016 C 
ATOM     11  C   UNL     1      33.726 -15.479 -25.136  0.00  0.00    +0.002 C 
ATOM     12  C   UNL     1      34.502 -15.267 -22.858  0.00  0.00    +0.002 C 
ATOM     13  C   UNL     1      34.122 -16.816 -25.147  0.00  0.00    +0.011 C 
ATOM     14  C   UNL     1      34.899 -16.605 -22.869  0.00  0.00    +0.011 C 
ATOM     15  C   UNL     1      34.708 -17.379 -24.013  0.00  0.00    +0.058 C 
ENDBRANCH   5  10
BRANCH   2  16
ATOM     16  C   UNL     1      31.668  -8.753 -22.609  0.00  0.00    +0.093 C 
BRANCH  16  17
ATOM     17  C   UNL     1      32.239  -7.696 -21.666  0.00  0.00    +0.047 C 
BRANCH  17  18
ATOM     18  C   UNL     1      32.357  -8.193 -20.252  0.00  0.00    -0.024 C 
ATOM     19  C   UNL     1      31.985  -9.415 -19.856  0.00  0.00    -0.005 C 
ENDBRANCH  17  18
ENDBRANCH  16  17
ENDBRANCH   2  16
TORSDOF 4
ENDMDL
MODEL 6
REMARK VINA RESULT:      -8.0      6.619     10.825
REMARK  Name = 4636204
REMARK  4 active torsions:
REMARK  status: ('A' for Active; 'I' for Inactive)
REMARK    1  A    between atoms: N_2  and  C_16
REMARK    2  A    between atoms: C_5  and  C_10
REMARK    3  A    between atoms: C_16  and  C_17
REMARK    4  A    between atoms: C_17  and  C_18
REMARK                            x       y       z     vdW  Elec       q    Type
REMARK                         _______ _______ _______ _____ _____    ______ ____
ROOT
ATOM      1  S   UNL     1      35.324 -16.276 -23.744  0.00  0.00    -0.072 S 
ATOM      2  N   UNL     1      34.005 -14.010 -23.809  0.00  0.00    -0.312 N 
ATOM      3  N   UNL     1      33.539 -16.655 -21.374  0.00  0.00    -0.150 NA
ATOM      4  N   UNL     1      33.340 -15.481 -22.104  0.00  0.00    -0.127 NA
ATOM      5  C   UNL     1      33.991 -17.724 -21.958  0.00  0.00    +0.092 C 
ATOM      6  C   UNL     1      34.391 -17.777 -23.408  0.00  0.00    +0.112 C 
ATOM      7  C   UNL     1      34.101 -15.186 -23.115  0.00  0.00    +0.177 C 
ATOM      8  H   UNL     1      34.607 -13.866 -24.574  0.00  0.00    +0.149 HD
ENDROOT
BRANCH   5  10
ATOM      9 CL   UNL     1      34.483 -22.744 -18.721  0.00  0.00    -0.082 Cl
ATOM     10  C   UNL     1      34.114 -18.972 -21.153  0.00  0.00    +0.016 C 
ATOM     11  C   UNL     1      35.371 -19.515 -20.908  0.00  0.00    +0.002 C 
ATOM     12  C   UNL     1      32.969 -19.586 -20.653  0.00  0.00    +0.002 C 
ATOM     13  C   UNL     1      35.486 -20.682 -20.154  0.00  0.00    +0.011 C 
ATOM     14  C   UNL     1      33.084 -20.754 -19.899  0.00  0.00    +0.011 C 
ATOM     15  C   UNL     1      34.342 -21.303 -19.651  0.00  0.00    +0.058 C 
ENDBRANCH   5  10
BRANCH   2  16
ATOM     16  C   UNL     1      33.062 -12.972 -23.469  0.00  0.00    +0.093 C 
BRANCH  16  17
ATOM     17  C   UNL     1      33.634 -11.595 -23.799  0.00  0.00    +0.047 C 
BRANCH  17  18
ATOM     18  C   UNL     1      34.166 -11.516 -25.202  0.00  0.00    -0.024 C 
ATOM     19  C   UNL     1      35.058 -10.608 -25.613  0.00  0.00    -0.005 C 
ENDBRANCH  17  18
ENDBRANCH  16  17
ENDBRANCH   2  16
TORSDOF 4
ENDMDL
MODEL 7
REMARK VINA RESULT:      -8.0      7.192     10.840
REMARK  Name = 4636204
REMARK  4 active torsions:
REMARK  status: ('A' for Active; 'I' for Inactive)
REMARK    1  A    between atoms: N_2  and  C_16
REMARK    2  A    between atoms: C_5  and  C_10
REMARK    3  A    between atoms: C_16  and  C_17
REMARK    4  A    between atoms: C_17  and  C_18
REMARK                            x       y       z     vdW  Elec       q    Type
REMARK                         _______ _______ _______ _____ _____    ______ ____
ROOT
ATOM      1  S   UNL     1      34.224 -14.251 -23.215  0.00  0.00    -0.072 S 
ATOM      2  N   UNL     1      32.424 -12.518 -22.423  0.00  0.00    -0.312 N 
ATOM      3  N   UNL     1      33.176 -15.670 -20.799  0.00  0.00    -0.150 NA
ATOM      4  N   UNL     1      32.540 -14.469 -21.124  0.00  0.00    -0.127 NA
ATOM      5  C   UNL     1      33.723 -16.396 -21.727  0.00  0.00    +0.092 C 
ATOM      6  C   UNL     1      33.780 -15.995 -23.177  0.00  0.00    +0.112 C 
ATOM      7  C   UNL     1      32.955 -13.741 -22.117  0.00  0.00    +0.177 C 
ATOM      8  H   UNL     1      32.781 -12.032 -23.202  0.00  0.00    +0.149 HD
ENDROOT
BRANCH   5  10
ATOM      9 CL   UNL     1      36.133 -21.658 -20.171  0.00  0.00    -0.082 Cl
ATOM     10  C   UNL     1      34.323 -17.704 -21.339  0.00  0.00    +0.016 C 
ATOM     11  C   UNL     1      35.706 -17.847 -21.306  0.00  0.00    +0.002 C 
ATOM     12  C   UNL     1      33.494 -18.773 -21.015  0.00  0.00    +0.002 C 
ATOM     13  C   UNL     1      36.267 -19.071 -20.943  0.00  0.00    +0.011 C 
ATOM     14  C   UNL     1      34.055 -19.998 -20.652  0.00  0.00    +0.011 C 
ATOM     15  C   UNL     1      35.442 -20.147 -20.617  0.00  0.00    +0.058 C 
ENDBRANCH   5  10
BRANCH   2  16
ATOM     16  C   UNL     1      31.363 -11.906 -21.658  0.00  0.00    +0.093 C 
BRANCH  16  17
ATOM     17  C   UNL     1      31.629 -10.415 -21.464  0.00  0.00    +0.047 C 
BRANCH  17  18
ATOM     18  C   UNL     1      31.709 -10.030 -20.014  0.00  0.00    -0.024 C 
ATOM     19  C   UNL     1      31.362 -10.838 -19.006  0.00  0.00    -0.005 C 
ENDBRANCH  17  18
ENDBRANCH  16  17
ENDBRANCH   2  16
TORSDOF 4
ENDMDL
MODEL 8
REMARK VINA RESULT:      -7.9      8.081     10.873
REMARK  Name = 4636204
REMARK  4 active torsions:
REMARK  status: ('A' for Active; 'I' for Inactive)
REMARK    1  A    between atoms: N_2  and  C_16
REMARK    2  A    between atoms: C_5  and  C_10
REMARK    3  A    between atoms: C_16  and  C_17
REMARK    4  A    between atoms: C_17  and  C_18
REMARK                            x       y       z     vdW  Elec       q    Type
REMARK                         _______ _______ _______ _____ _____    ______ ____
ROOT
ATOM      1  S   UNL     1      34.270 -14.956 -20.647  0.00  0.00    -0.072 S 
ATOM      2  N   UNL     1      35.041 -17.115 -21.920  0.00  0.00    -0.312 N 
ATOM      3  N   UNL     1      33.962 -14.021 -23.471  0.00  0.00    -0.150 NA
ATOM      4  N   UNL     1      34.352 -15.353 -23.310  0.00  0.00    -0.127 NA
ATOM      5  C   UNL     1      33.239 -13.434 -22.566  0.00  0.00    +0.092 C 
ATOM      6  C   UNL     1      32.825 -14.087 -21.274  0.00  0.00    +0.112 C 
ATOM      7  C   UNL     1      34.575 -15.845 -22.128  0.00  0.00    +0.177 C 
ATOM      8  H   UNL     1      35.171 -17.422 -20.994  0.00  0.00    +0.149 HD
ENDROOT
BRANCH   5  10
ATOM      9 CL   UNL     1      31.417  -7.816 -23.584  0.00  0.00    -0.082 Cl
ATOM     10  C   UNL     1      32.786 -12.037 -22.820  0.00  0.00    +0.016 C 
ATOM     11  C   UNL     1      33.470 -11.245 -23.737  0.00  0.00    +0.002 C 
ATOM     12  C   UNL     1      31.683 -11.535 -22.136  0.00  0.00    +0.002 C 
ATOM     13  C   UNL     1      33.046  -9.938 -23.974  0.00  0.00    +0.011 C 
ATOM     14  C   UNL     1      31.259 -10.227 -22.374  0.00  0.00    +0.011 C 
ATOM     15  C   UNL     1      31.940  -9.429 -23.292  0.00  0.00    +0.058 C 
ENDBRANCH   5  10
BRANCH   2  16
ATOM     16  C   UNL     1      35.352 -18.025 -22.997  0.00  0.00    +0.093 C 
BRANCH  16  17
ATOM     17  C   UNL     1      34.810 -19.420 -22.697  0.00  0.00    +0.047 C 
BRANCH  17  18
ATOM     18  C   UNL     1      34.396 -19.578 -21.260  0.00  0.00    -0.024 C 
ATOM     19  C   UNL     1      33.212 -20.065 -20.873  0.00  0.00    -0.005 C 
ENDBRANCH  17  18
ENDBRANCH  16  17
ENDBRANCH   2  16
TORSDOF 4
ENDMDL
MODEL 9
REMARK VINA RESULT:      -7.9      9.720     13.222
REMARK  Name = 4636204
REMARK  4 active torsions:
REMARK  status: ('A' for Active; 'I' for Inactive)
REMARK    1  A    between atoms: N_2  and  C_16
REMARK    2  A    between atoms: C_5  and  C_10
REMARK    3  A    between atoms: C_16  and  C_17
REMARK    4  A    between atoms: C_17  and  C_18
REMARK                            x       y       z     vdW  Elec       q    Type
REMARK                         _______ _______ _______ _____ _____    ______ ____
ROOT
ATOM      1  S   UNL     1      31.945 -12.548 -21.983  0.00  0.00    -0.072 S 
ATOM      2  N   UNL     1      32.380 -10.111 -22.846  0.00  0.00    -0.312 N 
ATOM      3  N   UNL     1      33.803 -13.133 -24.252  0.00  0.00    -0.150 NA
ATOM      4  N   UNL     1      33.559 -11.782 -23.999  0.00  0.00    -0.127 NA
ATOM      5  C   UNL     1      33.743 -14.004 -23.290  0.00  0.00    +0.092 C 
ATOM      6  C   UNL     1      33.354 -13.662 -21.877  0.00  0.00    +0.112 C 
ATOM      7  C   UNL     1      32.720 -11.416 -23.076  0.00  0.00    +0.177 C 
ATOM      8  H   UNL     1      31.748  -9.911 -22.117  0.00  0.00    +0.149 HD
ENDROOT
BRANCH   5  10
ATOM      9 CL   UNL     1      35.119 -19.706 -24.521  0.00  0.00    -0.082 Cl
ATOM     10  C   UNL     1      34.086 -15.422 -23.597  0.00  0.00    +0.016 C 
ATOM     11  C   UNL     1      33.898 -15.914 -24.884  0.00  0.00    +0.002 C 
ATOM     12  C   UNL     1      34.589 -16.242 -22.592  0.00  0.00    +0.002 C 
ATOM     13  C   UNL     1      34.218 -17.241 -25.171  0.00  0.00    +0.011 C 
ATOM     14  C   UNL     1      34.909 -17.570 -22.879  0.00  0.00    +0.011 C 
ATOM     15  C   UNL     1      34.723 -18.069 -24.168  0.00  0.00    +0.058 C 
ENDBRANCH   5  10
BRANCH   2  16
ATOM     16  C   UNL     1      32.904  -9.012 -23.622  0.00  0.00    +0.093 C 
BRANCH  16  17
ATOM     17  C   UNL     1      33.880  -8.183 -22.791  0.00  0.00    +0.047 C 
BRANCH  17  18
ATOM     18  C   UNL     1      34.814  -7.371 -23.644  0.00  0.00    -0.024 C 
ATOM     19  C   UNL     1      34.439  -6.714 -24.746  0.00  0.00    -0.005 C 
ENDBRANCH  17  18
ENDBRANCH  16  17
ENDBRANCH   2  16
TORSDOF 4
ENDMDL
