MODEL 1
REMARK VINA RESULT:      -6.7      0.000      0.000
REMARK  Name = 10297
REMARK  4 active torsions:
REMARK  status: ('A' for Active; 'I' for Inactive)
REMARK    1  A    between atoms: C_1  and  C_2
REMARK    2  A    between atoms: C_1  and  O_8
REMARK    3  A    between atoms: C_1  and  C_10
REMARK    4  A    between atoms: C_10  and  N_12
REMARK                            x       y       z     vdW  Elec       q    Type
REMARK                         _______ _______ _______ _____ _____    ______ ____
ROOT
ATOM      1  C   UNL     1      35.439 -18.089 -21.996  0.00  0.00    +0.113 C 
ENDROOT
BRANCH   1   2
ATOM      2  C   UNL     1      34.898 -19.235 -21.167  0.00  0.00    +0.002 C 
ATOM      3  C   UNL     1      33.531 -19.345 -20.978  0.00  0.00    -0.002 C 
ATOM      4  C   UNL     1      35.782 -20.144 -20.614  0.00  0.00    -0.002 C 
ATOM      5  C   UNL     1      33.032 -20.400 -20.214  0.00  0.00    -0.000 C 
ATOM      6  C   UNL     1      35.283 -21.199 -19.849  0.00  0.00    -0.000 C 
ATOM      7  C   UNL     1      33.908 -21.326 -19.650  0.00  0.00    -0.000 C 
ENDBRANCH   1   2
BRANCH   1   8
ATOM      8  O   UNL     1      36.837 -18.334 -22.175  0.00  0.00    -0.382 OA
ATOM      9  H   UNL     1      37.237 -18.560 -21.323  0.00  0.00    +0.211 HD
ENDBRANCH   1   8
BRANCH   1  10
ATOM     10  C   UNL     1      34.748 -17.937 -23.370  0.00  0.00    -0.034 C 
ATOM     11  C   UNL     1      34.895 -19.185 -24.243  0.00  0.00    -0.021 C 
BRANCH  10  12
ATOM     12  N   UNL     1      35.338 -16.804 -24.094  0.00  0.00    +0.384 N 
ATOM     13  H   UNL     1      34.596 -16.190 -24.426  0.00  0.00    -0.089 HD
ATOM     14  H   UNL     1      35.874 -17.153 -24.890  0.00  0.00    -0.089 HD
ATOM     15  H   UNL     1      35.957 -16.287 -23.470  0.00  0.00    -0.089 HD
ENDBRANCH  10  12
ENDBRANCH   1  10
TORSDOF 4
ENDMDL
MODEL 2
REMARK VINA RESULT:      -6.4      1.483      1.622
REMARK  Name = 10297
REMARK  4 active torsions:
REMARK  status: ('A' for Active; 'I' for Inactive)
REMARK    1  A    between atoms: C_1  and  C_2
REMARK    2  A    between atoms: C_1  and  O_8
REMARK    3  A    between atoms: C_1  and  C_10
REMARK    4  A    between atoms: C_10  and  N_12
REMARK                            x       y       z     vdW  Elec       q    Type
REMARK                         _______ _______ _______ _____ _____    ______ ____
ROOT
ATOM      1  C   UNL     1      35.504 -18.185 -21.915  0.00  0.00    +0.113 C 
ENDROOT
BRANCH   1   2
ATOM      2  C   UNL     1      34.902 -19.314 -21.105  0.00  0.00    +0.002 C 
ATOM      3  C   UNL     1      33.525 -19.415 -21.006  0.00  0.00    -0.002 C 
ATOM      4  C   UNL     1      35.742 -20.219 -20.481  0.00  0.00    -0.002 C 
ATOM      5  C   UNL     1      32.971 -20.455 -20.260  0.00  0.00    -0.000 C 
ATOM      6  C   UNL     1      35.187 -21.259 -19.733  0.00  0.00    -0.000 C 
ATOM      7  C   UNL     1      33.802 -21.375 -19.623  0.00  0.00    -0.000 C 
ENDBRANCH   1   2
BRANCH   1   8
ATOM      8  O   UNL     1      35.698 -18.685 -23.241  0.00  0.00    -0.382 OA
ATOM      9  H   UNL     1      35.167 -19.486 -23.365  0.00  0.00    +0.211 HD
ENDBRANCH   1   8
BRANCH   1  10
ATOM     10  C   UNL     1      34.627 -16.913 -21.953  0.00  0.00    -0.034 C 
ATOM     11  C   UNL     1      34.940 -16.020 -23.155  0.00  0.00    -0.021 C 
BRANCH  10  12
ATOM     12  N   UNL     1      34.849 -16.126 -20.733  0.00  0.00    +0.384 N 
ATOM     13  H   UNL     1      35.842 -15.917 -20.640  0.00  0.00    -0.089 HD
ATOM     14  H   UNL     1      34.536 -16.662 -19.923  0.00  0.00    -0.089 HD
ATOM     15  H   UNL     1      34.320 -15.256 -20.789  0.00  0.00    -0.089 HD
ENDBRANCH  10  12
ENDBRANCH   1  10
TORSDOF 4
ENDMDL
MODEL 3
REMARK VINA RESULT:      -6.4      2.124      4.416
REMARK  Name = 10297
REMARK  4 active torsions:
REMARK  status: ('A' for Active; 'I' for Inactive)
REMARK    1  A    between atoms: C_1  and  C_2
REMARK    2  A    between atoms: C_1  and  O_8
REMARK    3  A    between atoms: C_1  and  C_10
REMARK    4  A    between atoms: C_10  and  N_12
REMARK                            x       y       z     vdW  Elec       q    Type
REMARK                         _______ _______ _______ _____ _____    ______ ____
ROOT
ATOM      1  C   UNL     1      35.823 -18.546 -21.473  0.00  0.00    +0.113 C 
ENDROOT
BRANCH   1   2
ATOM      2  C   UNL     1      35.283 -18.073 -22.807  0.00  0.00    +0.002 C 
ATOM      3  C   UNL     1      34.970 -19.007 -23.779  0.00  0.00    -0.002 C 
ATOM      4  C   UNL     1      35.118 -16.717 -23.024  0.00  0.00    -0.002 C 
ATOM      5  C   UNL     1      34.474 -18.570 -25.007  0.00  0.00    -0.000 C 
ATOM      6  C   UNL     1      34.622 -16.280 -24.253  0.00  0.00    -0.000 C 
ATOM      7  C   UNL     1      34.301 -17.207 -25.244  0.00  0.00    -0.000 C 
ENDBRANCH   1   2
BRANCH   1   8
ATOM      8  O   UNL     1      35.470 -17.552 -20.508  0.00  0.00    -0.382 OA
ATOM      9  H   UNL     1      36.198 -16.919 -20.415  0.00  0.00    +0.211 HD
ENDBRANCH   1   8
BRANCH   1  10
ATOM     10  C   UNL     1      35.276 -19.924 -21.037  0.00  0.00    -0.034 C 
ATOM     11  C   UNL     1      33.796 -19.873 -20.649  0.00  0.00    -0.021 C 
BRANCH  10  12
ATOM     12  N   UNL     1      36.033 -20.408 -19.875  0.00  0.00    +0.384 N 
ATOM     13  H   UNL     1      36.544 -19.632 -19.456  0.00  0.00    -0.089 HD
ATOM     14  H   UNL     1      36.691 -21.128 -20.176  0.00  0.00    -0.089 HD
ATOM     15  H   UNL     1      35.389 -20.803 -19.190  0.00  0.00    -0.089 HD
ENDBRANCH  10  12
ENDBRANCH   1  10
TORSDOF 4
ENDMDL
MODEL 4
REMARK VINA RESULT:      -6.1      2.079      4.195
REMARK  Name = 10297
REMARK  4 active torsions:
REMARK  status: ('A' for Active; 'I' for Inactive)
REMARK    1  A    between atoms: C_1  and  C_2
REMARK    2  A    between atoms: C_1  and  O_8
REMARK    3  A    between atoms: C_1  and  C_10
REMARK    4  A    between atoms: C_10  and  N_12
REMARK                            x       y       z     vdW  Elec       q    Type
REMARK                         _______ _______ _______ _____ _____    ______ ____
ROOT
ATOM      1  C   UNL     1      34.973 -20.240 -20.845  0.00  0.00    +0.113 C 
ENDROOT
BRANCH   1   2
ATOM      2  C   UNL     1      34.956 -19.026 -21.749  0.00  0.00    +0.002 C 
ATOM      3  C   UNL     1      34.924 -19.206 -23.121  0.00  0.00    -0.002 C 
ATOM      4  C   UNL     1      34.974 -17.763 -21.184  0.00  0.00    -0.002 C 
ATOM      5  C   UNL     1      34.908 -18.087 -23.954  0.00  0.00    -0.000 C 
ATOM      6  C   UNL     1      34.960 -16.644 -22.017  0.00  0.00    -0.000 C 
ATOM      7  C   UNL     1      34.926 -16.807 -23.402  0.00  0.00    -0.000 C 
ENDBRANCH   1   2
BRANCH   1   8
ATOM      8  O   UNL     1      36.082 -20.078 -19.957  0.00  0.00    -0.382 OA
ATOM      9  H   UNL     1      35.801 -20.273 -19.050  0.00  0.00    +0.211 HD
ENDBRANCH   1   8
BRANCH   1  10
ATOM     10  C   UNL     1      33.670 -20.429 -20.035  0.00  0.00    -0.034 C 
ATOM     11  C   UNL     1      33.605 -21.789 -19.337  0.00  0.00    -0.021 C 
BRANCH  10  12
ATOM     12  N   UNL     1      32.513 -20.323 -20.932  0.00  0.00    +0.384 N 
ATOM     13  H   UNL     1      32.340 -21.227 -21.372  0.00  0.00    -0.089 HD
ATOM     14  H   UNL     1      32.705 -19.625 -21.652  0.00  0.00    -0.089 HD
ATOM     15  H   UNL     1      31.692 -20.041 -20.397  0.00  0.00    -0.089 HD
ENDBRANCH  10  12
ENDBRANCH   1  10
TORSDOF 4
ENDMDL
MODEL 5
REMARK VINA RESULT:      -6.1      2.548      3.634
REMARK  Name = 10297
REMARK  4 active torsions:
REMARK  status: ('A' for Active; 'I' for Inactive)
REMARK    1  A    between atoms: C_1  and  C_2
REMARK    2  A    between atoms: C_1  and  O_8
REMARK    3  A    between atoms: C_1  and  C_10
REMARK    4  A    between atoms: C_10  and  N_12
REMARK                            x       y       z     vdW  Elec       q    Type
REMARK                         _______ _______ _______ _____ _____    ______ ____
ROOT
ATOM      1  C   UNL     1      34.814 -16.102 -24.613  0.00  0.00    +0.113 C 
ENDROOT
BRANCH   1   2
ATOM      2  C   UNL     1      34.858 -17.099 -23.476  0.00  0.00    +0.002 C 
ATOM      3  C   UNL     1      34.988 -16.638 -22.177  0.00  0.00    -0.002 C 
ATOM      4  C   UNL     1      34.768 -18.451 -23.760  0.00  0.00    -0.002 C 
ATOM      5  C   UNL     1      35.028 -17.558 -21.129  0.00  0.00    -0.000 C 
ATOM      6  C   UNL     1      34.809 -19.371 -22.711  0.00  0.00    -0.000 C 
ATOM      7  C   UNL     1      34.939 -18.923 -21.397  0.00  0.00    -0.000 C 
ENDBRANCH   1   2
BRANCH   1   8
ATOM      8  O   UNL     1      34.864 -16.856 -25.827  0.00  0.00    -0.382 OA
ATOM      9  H   UNL     1      35.473 -16.429 -26.449  0.00  0.00    +0.211 HD
ENDBRANCH   1   8
BRANCH   1  10
ATOM     10  C   UNL     1      33.558 -15.201 -24.602  0.00  0.00    -0.034 C 
ATOM     11  C   UNL     1      32.997 -14.957 -26.004  0.00  0.00    -0.021 C 
BRANCH  10  12
ATOM     12  N   UNL     1      33.893 -13.898 -24.014  0.00  0.00    +0.384 N 
ATOM     13  H   UNL     1      34.057 -13.221 -24.759  0.00  0.00    -0.089 HD
ATOM     14  H   UNL     1      34.735 -13.989 -23.445  0.00  0.00    -0.089 HD
ATOM     15  H   UNL     1      33.121 -13.580 -23.428  0.00  0.00    -0.089 HD
ENDBRANCH  10  12
ENDBRANCH   1  10
TORSDOF 4
ENDMDL
MODEL 6
REMARK VINA RESULT:      -6.1      2.218      4.368
REMARK  Name = 10297
REMARK  4 active torsions:
REMARK  status: ('A' for Active; 'I' for Inactive)
REMARK    1  A    between atoms: C_1  and  C_2
REMARK    2  A    between atoms: C_1  and  O_8
REMARK    3  A    between atoms: C_1  and  C_10
REMARK    4  A    between atoms: C_10  and  N_12
REMARK                            x       y       z     vdW  Elec       q    Type
REMARK                         _______ _______ _______ _____ _____    ______ ____
ROOT
ATOM      1  C   UNL     1      34.354 -19.471 -20.794  0.00  0.00    +0.113 C 
ENDROOT
BRANCH   1   2
ATOM      2  C   UNL     1      34.555 -18.596 -22.013  0.00  0.00    +0.002 C 
ATOM      3  C   UNL     1      34.629 -19.185 -23.263  0.00  0.00    -0.002 C 
ATOM      4  C   UNL     1      34.662 -17.226 -21.850  0.00  0.00    -0.002 C 
ATOM      5  C   UNL     1      34.814 -18.378 -24.386  0.00  0.00    -0.000 C 
ATOM      6  C   UNL     1      34.849 -16.419 -22.973  0.00  0.00    -0.000 C 
ATOM      7  C   UNL     1      34.924 -16.996 -24.240  0.00  0.00    -0.000 C 
ENDBRANCH   1   2
BRANCH   1   8
ATOM      8  O   UNL     1      33.130 -20.184 -20.995  0.00  0.00    -0.382 OA
ATOM      9  H   UNL     1      32.725 -19.903 -21.829  0.00  0.00    +0.211 HD
ENDBRANCH   1   8
BRANCH   1  10
ATOM     10  C   UNL     1      35.510 -20.466 -20.547  0.00  0.00    -0.034 C 
ATOM     11  C   UNL     1      35.171 -21.507 -19.478  0.00  0.00    -0.021 C 
BRANCH  10  12
ATOM     12  N   UNL     1      36.703 -19.733 -20.104  0.00  0.00    +0.384 N 
ATOM     13  H   UNL     1      37.067 -19.178 -20.878  0.00  0.00    -0.089 HD
ATOM     14  H   UNL     1      37.414 -20.397 -19.797  0.00  0.00    -0.089 HD
ATOM     15  H   UNL     1      36.456 -19.117 -19.330  0.00  0.00    -0.089 HD
ENDBRANCH  10  12
ENDBRANCH   1  10
TORSDOF 4
ENDMDL
MODEL 7
REMARK VINA RESULT:      -6.0      1.510      2.247
REMARK  Name = 10297
REMARK  4 active torsions:
REMARK  status: ('A' for Active; 'I' for Inactive)
REMARK    1  A    between atoms: C_1  and  C_2
REMARK    2  A    between atoms: C_1  and  O_8
REMARK    3  A    between atoms: C_1  and  C_10
REMARK    4  A    between atoms: C_10  and  N_12
REMARK                            x       y       z     vdW  Elec       q    Type
REMARK                         _______ _______ _______ _____ _____    ______ ____
ROOT
ATOM      1  C   UNL     1      34.227 -18.107 -21.898  0.00  0.00    +0.113 C 
ENDROOT
BRANCH   1   2
ATOM      2  C   UNL     1      34.697 -19.275 -21.058  0.00  0.00    +0.002 C 
ATOM      3  C   UNL     1      36.052 -19.435 -20.821  0.00  0.00    -0.002 C 
ATOM      4  C   UNL     1      33.763 -20.157 -20.546  0.00  0.00    -0.002 C 
ATOM      5  C   UNL     1      36.485 -20.511 -20.046  0.00  0.00    -0.000 C 
ATOM      6  C   UNL     1      34.196 -21.235 -19.772  0.00  0.00    -0.000 C 
ATOM      7  C   UNL     1      35.557 -21.410 -19.523  0.00  0.00    -0.000 C 
ENDBRANCH   1   2
BRANCH   1   8
ATOM      8  O   UNL     1      33.643 -17.160 -21.000  0.00  0.00    -0.382 OA
ATOM      9  H   UNL     1      33.865 -16.261 -21.289  0.00  0.00    +0.211 HD
ENDBRANCH   1   8
BRANCH   1  10
ATOM     10  C   UNL     1      35.356 -17.435 -22.714  0.00  0.00    -0.034 C 
ATOM     11  C   UNL     1      35.050 -15.974 -23.048  0.00  0.00    -0.021 C 
BRANCH  10  12
ATOM     12  N   UNL     1      35.546 -18.159 -23.978  0.00  0.00    +0.384 N 
ATOM     13  H   UNL     1      36.451 -17.912 -24.377  0.00  0.00    -0.089 HD
ATOM     14  H   UNL     1      34.805 -17.903 -24.630  0.00  0.00    -0.089 HD
ATOM     15  H   UNL     1      35.512 -19.163 -23.803  0.00  0.00    -0.089 HD
ENDBRANCH  10  12
ENDBRANCH   1  10
TORSDOF 4
ENDMDL
MODEL 8
REMARK VINA RESULT:      -5.9      1.796      2.304
REMARK  Name = 10297
REMARK  4 active torsions:
REMARK  status: ('A' for Active; 'I' for Inactive)
REMARK    1  A    between atoms: C_1  and  C_2
REMARK    2  A    between atoms: C_1  and  O_8
REMARK    3  A    between atoms: C_1  and  C_10
REMARK    4  A    between atoms: C_10  and  N_12
REMARK                            x       y       z     vdW  Elec       q    Type
REMARK                         _______ _______ _______ _____ _____    ______ ____
ROOT
ATOM      1  C   UNL     1      34.032 -19.236 -21.368  0.00  0.00    +0.113 C 
ENDROOT
BRANCH   1   2
ATOM      2  C   UNL     1      34.321 -20.364 -20.400  0.00  0.00    +0.002 C 
ATOM      3  C   UNL     1      33.265 -21.076 -19.858  0.00  0.00    -0.002 C 
ATOM      4  C   UNL     1      35.634 -20.656 -20.077  0.00  0.00    -0.002 C 
ATOM      5  C   UNL     1      33.531 -22.115 -18.967  0.00  0.00    -0.000 C 
ATOM      6  C   UNL     1      35.900 -21.695 -19.183  0.00  0.00    -0.000 C 
ATOM      7  C   UNL     1      34.848 -22.423 -18.629  0.00  0.00    -0.000 C 
ENDBRANCH   1   2
BRANCH   1   8
ATOM      8  O   UNL     1      32.937 -18.494 -20.824  0.00  0.00    -0.382 OA
ATOM      9  H   UNL     1      32.136 -18.678 -21.337  0.00  0.00    +0.211 HD
ENDBRANCH   1   8
BRANCH   1  10
ATOM     10  C   UNL     1      35.238 -18.300 -21.607  0.00  0.00    -0.034 C 
ATOM     11  C   UNL     1      34.947 -16.852 -21.207  0.00  0.00    -0.021 C 
BRANCH  10  12
ATOM     12  N   UNL     1      35.596 -18.313 -23.031  0.00  0.00    +0.384 N 
ATOM     13  H   UNL     1      35.937 -19.240 -23.287  0.00  0.00    -0.089 HD
ATOM     14  H   UNL     1      36.327 -17.623 -23.204  0.00  0.00    -0.089 HD
ATOM     15  H   UNL     1      34.775 -18.085 -23.591  0.00  0.00    -0.089 HD
ENDBRANCH  10  12
ENDBRANCH   1  10
TORSDOF 4
ENDMDL
MODEL 9
REMARK VINA RESULT:      -5.9      3.283      4.933
REMARK  Name = 10297
REMARK  4 active torsions:
REMARK  status: ('A' for Active; 'I' for Inactive)
REMARK    1  A    between atoms: C_1  and  C_2
REMARK    2  A    between atoms: C_1  and  O_8
REMARK    3  A    between atoms: C_1  and  C_10
REMARK    4  A    between atoms: C_10  and  N_12
REMARK                            x       y       z     vdW  Elec       q    Type
REMARK                         _______ _______ _______ _____ _____    ______ ____
ROOT
ATOM      1  C   UNL     1      35.162 -16.656 -21.809  0.00  0.00    +0.113 C 
ENDROOT
BRANCH   1   2
ATOM      2  C   UNL     1      34.145 -15.535 -21.850  0.00  0.00    +0.002 C 
ATOM      3  C   UNL     1      33.595 -15.078 -20.665  0.00  0.00    -0.002 C 
ATOM      4  C   UNL     1      33.786 -14.994 -23.071  0.00  0.00    -0.002 C 
ATOM      5  C   UNL     1      32.658 -14.045 -20.702  0.00  0.00    -0.000 C 
ATOM      6  C   UNL     1      32.848 -13.961 -23.109  0.00  0.00    -0.000 C 
ATOM      7  C   UNL     1      32.285 -13.488 -21.925  0.00  0.00    -0.000 C 
ENDBRANCH   1   2
BRANCH   1   8
ATOM      8  O   UNL     1      35.334 -17.008 -20.433  0.00  0.00    -0.382 OA
ATOM      9  H   UNL     1      34.680 -16.537 -19.895  0.00  0.00    +0.211 HD
ENDBRANCH   1   8
BRANCH   1  10
ATOM     10  C   UNL     1      34.747 -17.901 -22.626  0.00  0.00    -0.034 C 
ATOM     11  C   UNL     1      34.398 -19.097 -21.737  0.00  0.00    -0.021 C 
BRANCH  10  12
ATOM     12  N   UNL     1      35.849 -18.298 -23.510  0.00  0.00    +0.384 N 
ATOM     13  H   UNL     1      35.571 -19.115 -24.053  0.00  0.00    -0.089 HD
ATOM     14  H   UNL     1      36.669 -18.526 -22.948  0.00  0.00    -0.089 HD
ATOM     15  H   UNL     1      36.073 -17.529 -24.141  0.00  0.00    -0.089 HD
ENDBRANCH  10  12
ENDBRANCH   1  10
TORSDOF 4
ENDMDL
