MODEL 1
REMARK VINA RESULT:      -9.0      0.000      0.000
REMARK  Name = 46937118
REMARK  9 active torsions:
REMARK  status: ('A' for Active; 'I' for Inactive)
REMARK    1  A    between atoms: N_2  and  C_17
REMARK    2  A    between atoms: C_3  and  C_5
REMARK    3  A    between atoms: C_5  and  N_8
REMARK    4  A    between atoms: C_9  and  C_11
REMARK    5  A    between atoms: C_11  and  N_13
REMARK    6  A    between atoms: C_17  and  C_18
REMARK    7  A    between atoms: C_17  and  C_22
REMARK    8  A    between atoms: C_18  and  O_20
REMARK    9  A    between atoms: C_22  and  C_23
REMARK                            x       y       z     vdW  Elec       q    Type
REMARK                         _______ _______ _______ _____ _____    ______ ____
ROOT
ATOM      1  O   UNL     1      35.018 -15.783 -20.230  0.00  0.00    -0.273 OA
ATOM      2  N   UNL     1      34.286 -16.652 -22.252  0.00  0.00    -0.302 N 
ATOM      3  C   UNL     1      34.417 -15.658 -21.295  0.00  0.00    +0.240 C 
ATOM      4  H   UNL     1      33.784 -16.452 -23.076  0.00  0.00    +0.150 HD
ENDROOT
BRANCH   3   5
ATOM      5  C   UNL     1      33.708 -14.374 -21.710  0.00  0.00    +0.149 C 
ATOM      6  C   UNL     1      32.510 -14.118 -20.805  0.00  0.00    +0.031 C 
BRANCH   5   8
ATOM      7  O   UNL     1      33.943 -12.415 -23.806  0.00  0.00    -0.277 OA
ATOM      8  N   UNL     1      33.273 -14.518 -23.096  0.00  0.00    -0.300 N 
ATOM      9  C   UNL     1      33.433 -13.512 -24.027  0.00  0.00    +0.202 C 
ATOM     10  H   UNL     1      32.851 -15.362 -23.377  0.00  0.00    +0.150 HD
BRANCH   9  11
ATOM     11  C   UNL     1      32.880 -13.918 -25.388  0.00  0.00    +0.013 C 
ATOM     12  C   UNL     1      33.324 -15.333 -25.737  0.00  0.00    -0.015 C 
BRANCH  11  13
ATOM     13  N   UNL     1      33.376 -12.972 -26.384  0.00  0.00    +0.387 N 
ATOM     14  H   UNL     1      32.608 -12.683 -26.991  0.00  0.00    -0.089 HD
ATOM     15  H   UNL     1      34.103 -13.417 -26.944  0.00  0.00    -0.089 HD
ATOM     16  H   UNL     1      33.763 -12.154 -25.913  0.00  0.00    -0.089 HD
ENDBRANCH  11  13
ENDBRANCH   9  11
ENDBRANCH   5   8
ENDBRANCH   3   5
BRANCH   2  17
ATOM     17  C   UNL     1      34.860 -17.973 -22.091  0.00  0.00    +0.103 C 
BRANCH  17  18
ATOM     18  C   UNL     1      35.539 -18.436 -23.397  0.00  0.00    +0.129 C 
ATOM     19  C   UNL     1      34.754 -19.521 -24.127  0.00  0.00    +0.033 C 
BRANCH  18  20
ATOM     20  O   UNL     1      35.720 -17.323 -24.269  0.00  0.00    -0.383 OA
ATOM     21  H   UNL     1      36.041 -17.633 -25.129  0.00  0.00    +0.210 HD
ENDBRANCH  18  20
ENDBRANCH  17  18
BRANCH  17  22
ATOM     22  C   UNL     1      33.763 -18.935 -21.595  0.00  0.00    +0.048 C 
BRANCH  22  23
ATOM     23  C   UNL     1      34.266 -20.012 -20.667  0.00  0.00    -0.020 C 
ATOM     24  C   UNL     1      35.636 -20.172 -20.460  0.00  0.00    -0.004 C 
ATOM     25  C   UNL     1      33.360 -20.848 -20.014  0.00  0.00    -0.004 C 
ATOM     26  C   UNL     1      36.100 -21.169 -19.602  0.00  0.00    -0.000 C 
ATOM     27  C   UNL     1      33.824 -21.845 -19.155  0.00  0.00    -0.000 C 
ATOM     28  C   UNL     1      35.194 -22.005 -18.950  0.00  0.00    -0.000 C 
ENDBRANCH  22  23
ENDBRANCH  17  22
ENDBRANCH   2  17
TORSDOF 9
ENDMDL
MODEL 2
REMARK VINA RESULT:      -8.6      7.089     10.969
REMARK  Name = 46937118
REMARK  9 active torsions:
REMARK  status: ('A' for Active; 'I' for Inactive)
REMARK    1  A    between atoms: N_2  and  C_17
REMARK    2  A    between atoms: C_3  and  C_5
REMARK    3  A    between atoms: C_5  and  N_8
REMARK    4  A    between atoms: C_9  and  C_11
REMARK    5  A    between atoms: C_11  and  N_13
REMARK    6  A    between atoms: C_17  and  C_18
REMARK    7  A    between atoms: C_17  and  C_22
REMARK    8  A    between atoms: C_18  and  O_20
REMARK    9  A    between atoms: C_22  and  C_23
REMARK                            x       y       z     vdW  Elec       q    Type
REMARK                         _______ _______ _______ _____ _____    ______ ____
ROOT
ATOM      1  O   UNL     1      35.712 -22.407 -15.500  0.00  0.00    -0.273 OA
ATOM      2  N   UNL     1      33.957 -23.901 -15.766  0.00  0.00    -0.302 N 
ATOM      3  C   UNL     1      35.180 -23.489 -15.260  0.00  0.00    +0.240 C 
ATOM      4  H   UNL     1      33.616 -24.789 -15.514  0.00  0.00    +0.150 HD
ENDROOT
BRANCH   3   5
ATOM      5  C   UNL     1      35.813 -24.552 -14.369  0.00  0.00    +0.149 C 
ATOM      6  C   UNL     1      35.694 -24.151 -12.904  0.00  0.00    +0.031 C 
BRANCH   5   8
ATOM      7  O   UNL     1      37.486 -26.863 -13.987  0.00  0.00    -0.277 OA
ATOM      8  N   UNL     1      37.218 -24.688 -14.744  0.00  0.00    -0.300 N 
ATOM      9  C   UNL     1      37.932 -25.845 -14.514  0.00  0.00    +0.202 C 
ATOM     10  H   UNL     1      37.670 -23.927 -15.175  0.00  0.00    +0.150 HD
BRANCH   9  11
ATOM     11  C   UNL     1      39.375 -25.714 -14.987  0.00  0.00    +0.013 C 
ATOM     12  C   UNL     1      40.325 -25.736 -13.796  0.00  0.00    -0.015 C 
BRANCH  11  13
ATOM     13  N   UNL     1      39.506 -24.455 -15.715  0.00  0.00    +0.387 N 
ATOM     14  H   UNL     1      38.579 -24.105 -15.959  0.00  0.00    -0.089 HD
ATOM     15  H   UNL     1      40.046 -24.609 -16.567  0.00  0.00    -0.089 HD
ATOM     16  H   UNL     1      39.984 -23.770 -15.129  0.00  0.00    -0.089 HD
ENDBRANCH  11  13
ENDBRANCH   9  11
ENDBRANCH   5   8
ENDBRANCH   3   5
BRANCH   2  17
ATOM     17  C   UNL     1      33.160 -23.075 -16.651  0.00  0.00    +0.103 C 
BRANCH  17  18
ATOM     18  C   UNL     1      31.660 -23.208 -16.316  0.00  0.00    +0.129 C 
ATOM     19  C   UNL     1      31.333 -22.819 -14.877  0.00  0.00    +0.033 C 
BRANCH  18  20
ATOM     20  O   UNL     1      30.892 -22.399 -17.204  0.00  0.00    -0.383 OA
ATOM     21  H   UNL     1      30.104 -22.888 -17.488  0.00  0.00    +0.210 HD
ENDBRANCH  18  20
ENDBRANCH  17  18
BRANCH  17  22
ATOM     22  C   UNL     1      33.497 -23.440 -18.110  0.00  0.00    +0.048 C 
BRANCH  22  23
ATOM     23  C   UNL     1      34.016 -22.282 -18.926  0.00  0.00    -0.020 C 
ATOM     24  C   UNL     1      35.389 -22.068 -19.041  0.00  0.00    -0.004 C 
ATOM     25  C   UNL     1      33.121 -21.426 -19.568  0.00  0.00    -0.004 C 
ATOM     26  C   UNL     1      35.868 -20.997 -19.796  0.00  0.00    -0.000 C 
ATOM     27  C   UNL     1      33.599 -20.355 -20.323  0.00  0.00    -0.000 C 
ATOM     28  C   UNL     1      34.973 -20.141 -20.437  0.00  0.00    -0.000 C 
ENDBRANCH  22  23
ENDBRANCH  17  22
ENDBRANCH   2  17
TORSDOF 9
ENDMDL
MODEL 3
REMARK VINA RESULT:      -8.3      3.200      5.738
REMARK  Name = 46937118
REMARK  9 active torsions:
REMARK  status: ('A' for Active; 'I' for Inactive)
REMARK    1  A    between atoms: N_2  and  C_17
REMARK    2  A    between atoms: C_3  and  C_5
REMARK    3  A    between atoms: C_5  and  N_8
REMARK    4  A    between atoms: C_9  and  C_11
REMARK    5  A    between atoms: C_11  and  N_13
REMARK    6  A    between atoms: C_17  and  C_18
REMARK    7  A    between atoms: C_17  and  C_22
REMARK    8  A    between atoms: C_18  and  O_20
REMARK    9  A    between atoms: C_22  and  C_23
REMARK                            x       y       z     vdW  Elec       q    Type
REMARK                         _______ _______ _______ _____ _____    ______ ____
ROOT
ATOM      1  O   UNL     1      33.444 -12.682 -25.583  0.00  0.00    -0.273 OA
ATOM      2  N   UNL     1      33.328 -12.557 -23.270  0.00  0.00    -0.302 N 
ATOM      3  C   UNL     1      33.450 -12.025 -24.545  0.00  0.00    +0.240 C 
ATOM      4  H   UNL     1      33.344 -11.945 -22.499  0.00  0.00    +0.150 HD
ENDROOT
BRANCH   3   5
ATOM      5  C   UNL     1      33.610 -10.510 -24.514  0.00  0.00    +0.149 C 
ATOM      6  C   UNL     1      35.066 -10.129 -24.751  0.00  0.00    +0.031 C 
BRANCH   5   8
ATOM      7  O   UNL     1      31.630  -8.485 -24.000  0.00  0.00    -0.277 OA
ATOM      8  N   UNL     1      33.168 -10.028 -23.208  0.00  0.00    -0.300 N 
ATOM      9  C   UNL     1      32.207  -9.048 -23.072  0.00  0.00    +0.202 C 
ATOM     10  H   UNL     1      33.569 -10.417 -22.397  0.00  0.00    +0.150 HD
BRANCH   9  11
ATOM     11  C   UNL     1      31.944  -8.724 -21.606  0.00  0.00    +0.013 C 
ATOM     12  C   UNL     1      33.019  -7.786 -21.072  0.00  0.00    -0.015 C 
BRANCH  11  13
ATOM     13  N   UNL     1      31.944  -9.974 -20.853  0.00  0.00    +0.387 N 
ATOM     14  H   UNL     1      31.729  -9.782 -19.874  0.00  0.00    -0.089 HD
ATOM     15  H   UNL     1      32.863 -10.412 -20.920  0.00  0.00    -0.089 HD
ATOM     16  H   UNL     1      31.239 -10.603 -21.238  0.00  0.00    -0.089 HD
ENDBRANCH  11  13
ENDBRANCH   9  11
ENDBRANCH   5   8
ENDBRANCH   3   5
BRANCH   2  17
ATOM     17  C   UNL     1      33.176 -13.978 -23.027  0.00  0.00    +0.103 C 
BRANCH  17  18
ATOM     18  C   UNL     1      32.319 -14.227 -21.769  0.00  0.00    +0.129 C 
ATOM     19  C   UNL     1      33.137 -14.705 -20.573  0.00  0.00    +0.033 C 
BRANCH  18  20
ATOM     20  O   UNL     1      31.624 -13.035 -21.413  0.00  0.00    -0.383 OA
ATOM     21  H   UNL     1      31.689 -12.393 -22.137  0.00  0.00    +0.210 HD
ENDBRANCH  18  20
ENDBRANCH  17  18
BRANCH  17  22
ATOM     22  C   UNL     1      34.574 -14.622 -22.956  0.00  0.00    +0.048 C 
BRANCH  22  23
ATOM     23  C   UNL     1      34.618 -16.045 -23.455  0.00  0.00    -0.020 C 
ATOM     24  C   UNL     1      34.194 -16.345 -24.749  0.00  0.00    -0.004 C 
ATOM     25  C   UNL     1      35.086 -17.062 -22.621  0.00  0.00    -0.004 C 
ATOM     26  C   UNL     1      34.236 -17.661 -25.210  0.00  0.00    -0.000 C 
ATOM     27  C   UNL     1      35.127 -18.378 -23.082  0.00  0.00    -0.000 C 
ATOM     28  C   UNL     1      34.702 -18.677 -24.377  0.00  0.00    -0.000 C 
ENDBRANCH  22  23
ENDBRANCH  17  22
ENDBRANCH   2  17
TORSDOF 9
ENDMDL
MODEL 4
REMARK VINA RESULT:      -8.3      2.114      2.977
REMARK  Name = 46937118
REMARK  9 active torsions:
REMARK  status: ('A' for Active; 'I' for Inactive)
REMARK    1  A    between atoms: N_2  and  C_17
REMARK    2  A    between atoms: C_3  and  C_5
REMARK    3  A    between atoms: C_5  and  N_8
REMARK    4  A    between atoms: C_9  and  C_11
REMARK    5  A    between atoms: C_11  and  N_13
REMARK    6  A    between atoms: C_17  and  C_18
REMARK    7  A    between atoms: C_17  and  C_22
REMARK    8  A    between atoms: C_18  and  O_20
REMARK    9  A    between atoms: C_22  and  C_23
REMARK                            x       y       z     vdW  Elec       q    Type
REMARK                         _______ _______ _______ _____ _____    ______ ____
ROOT
ATOM      1  O   UNL     1      34.889 -14.331 -22.127  0.00  0.00    -0.273 OA
ATOM      2  N   UNL     1      34.122 -15.714 -23.825  0.00  0.00    -0.302 N 
ATOM      3  C   UNL     1      34.222 -14.510 -23.144  0.00  0.00    +0.240 C 
ATOM      4  H   UNL     1      33.561 -15.755 -24.632  0.00  0.00    +0.150 HD
ENDROOT
BRANCH   3   5
ATOM      5  C   UNL     1      33.386 -13.417 -23.799  0.00  0.00    +0.149 C 
ATOM      6  C   UNL     1      32.801 -13.917 -25.113  0.00  0.00    +0.031 C 
BRANCH   5   8
ATOM      7  O   UNL     1      32.721 -10.650 -23.365  0.00  0.00    -0.277 OA
ATOM      8  N   UNL     1      34.247 -12.261 -24.036  0.00  0.00    -0.300 N 
ATOM      9  C   UNL     1      33.828 -10.969 -23.795  0.00  0.00    +0.202 C 
ATOM     10  H   UNL     1      35.157 -12.409 -24.381  0.00  0.00    +0.150 HD
BRANCH   9  11
ATOM     11  C   UNL     1      34.914  -9.957 -24.140  0.00  0.00    +0.013 C 
ATOM     12  C   UNL     1      34.339  -8.546 -24.140  0.00  0.00    -0.015 C 
BRANCH  11  13
ATOM     13  N   UNL     1      35.445 -10.286 -25.460  0.00  0.00    +0.387 N 
ATOM     14  H   UNL     1      34.717 -10.733 -26.018  0.00  0.00    -0.089 HD
ATOM     15  H   UNL     1      36.235 -10.923 -25.359  0.00  0.00    -0.089 HD
ATOM     16  H   UNL     1      35.754  -9.432 -25.925  0.00  0.00    -0.089 HD
ENDBRANCH  11  13
ENDBRANCH   9  11
ENDBRANCH   5   8
ENDBRANCH   3   5
BRANCH   2  17
ATOM     17  C   UNL     1      34.813 -16.914 -23.397  0.00  0.00    +0.103 C 
BRANCH  17  18
ATOM     18  C   UNL     1      35.092 -17.840 -24.598  0.00  0.00    +0.129 C 
ATOM     19  C   UNL     1      34.200 -19.077 -24.619  0.00  0.00    +0.033 C 
BRANCH  18  20
ATOM     20  O   UNL     1      34.921 -17.119 -25.815  0.00  0.00    -0.383 OA
ATOM     21  H   UNL     1      35.390 -16.272 -25.759  0.00  0.00    +0.210 HD
ENDBRANCH  18  20
ENDBRANCH  17  18
BRANCH  17  22
ATOM     22  C   UNL     1      33.993 -17.587 -22.279  0.00  0.00    +0.048 C 
BRANCH  22  23
ATOM     23  C   UNL     1      34.757 -18.632 -21.503  0.00  0.00    -0.020 C 
ATOM     24  C   UNL     1      34.079 -19.694 -20.906  0.00  0.00    -0.004 C 
ATOM     25  C   UNL     1      36.144 -18.536 -21.385  0.00  0.00    -0.004 C 
ATOM     26  C   UNL     1      34.786 -20.659 -20.190  0.00  0.00    -0.000 C 
ATOM     27  C   UNL     1      36.852 -19.501 -20.668  0.00  0.00    -0.000 C 
ATOM     28  C   UNL     1      36.172 -20.562 -20.070  0.00  0.00    -0.000 C 
ENDBRANCH  22  23
ENDBRANCH  17  22
ENDBRANCH   2  17
TORSDOF 9
ENDMDL
MODEL 5
REMARK VINA RESULT:      -8.3      1.760      2.202
REMARK  Name = 46937118
REMARK  9 active torsions:
REMARK  status: ('A' for Active; 'I' for Inactive)
REMARK    1  A    between atoms: N_2  and  C_17
REMARK    2  A    between atoms: C_3  and  C_5
REMARK    3  A    between atoms: C_5  and  N_8
REMARK    4  A    between atoms: C_9  and  C_11
REMARK    5  A    between atoms: C_11  and  N_13
REMARK    6  A    between atoms: C_17  and  C_18
REMARK    7  A    between atoms: C_17  and  C_22
REMARK    8  A    between atoms: C_18  and  O_20
REMARK    9  A    between atoms: C_22  and  C_23
REMARK                            x       y       z     vdW  Elec       q    Type
REMARK                         _______ _______ _______ _____ _____    ______ ____
ROOT
ATOM      1  O   UNL     1      35.223 -15.706 -20.204  0.00  0.00    -0.273 OA
ATOM      2  N   UNL     1      33.848 -17.012 -21.540  0.00  0.00    -0.302 N 
ATOM      3  C   UNL     1      34.128 -15.934 -20.715  0.00  0.00    +0.240 C 
ATOM      4  H   UNL     1      32.937 -17.106 -21.902  0.00  0.00    +0.150 HD
ENDROOT
BRANCH   3   5
ATOM      5  C   UNL     1      32.904 -15.053 -20.497  0.00  0.00    +0.149 C 
ATOM      6  C   UNL     1      31.652 -15.912 -20.370  0.00  0.00    +0.031 C 
BRANCH   5   8
ATOM      7  O   UNL     1      31.884 -12.361 -20.460  0.00  0.00    -0.277 OA
ATOM      8  N   UNL     1      32.781 -14.146 -21.635  0.00  0.00    -0.300 N 
ATOM      9  C   UNL     1      32.276 -12.869 -21.509  0.00  0.00    +0.202 C 
ATOM     10  H   UNL     1      33.070 -14.458 -22.524  0.00  0.00    +0.150 HD
BRANCH   9  11
ATOM     11  C   UNL     1      32.245 -12.146 -22.850  0.00  0.00    +0.013 C 
ATOM     12  C   UNL     1      33.476 -12.506 -23.672  0.00  0.00    -0.015 C 
BRANCH  11  13
ATOM     13  N   UNL     1      32.210 -10.708 -22.595  0.00  0.00    +0.387 N 
ATOM     14  H   UNL     1      31.243 -10.408 -22.473  0.00  0.00    -0.089 HD
ATOM     15  H   UNL     1      32.623 -10.213 -23.385  0.00  0.00    -0.089 HD
ATOM     16  H   UNL     1      32.740 -10.500 -21.748  0.00  0.00    -0.089 HD
ENDBRANCH  11  13
ENDBRANCH   9  11
ENDBRANCH   5   8
ENDBRANCH   3   5
BRANCH   2  17
ATOM     17  C   UNL     1      34.842 -18.006 -21.893  0.00  0.00    +0.103 C 
BRANCH  17  18
ATOM     18  C   UNL     1      35.505 -17.659 -23.242  0.00  0.00    +0.129 C 
ATOM     19  C   UNL     1      34.723 -18.178 -24.444  0.00  0.00    +0.033 C 
BRANCH  18  20
ATOM     20  O   UNL     1      35.656 -16.246 -23.357  0.00  0.00    -0.383 OA
ATOM     21  H   UNL     1      34.875 -15.805 -22.987  0.00  0.00    +0.210 HD
ENDBRANCH  18  20
ENDBRANCH  17  18
BRANCH  17  22
ATOM     22  C   UNL     1      34.181 -19.398 -21.874  0.00  0.00    +0.048 C 
BRANCH  22  23
ATOM     23  C   UNL     1      34.647 -20.282 -20.743  0.00  0.00    -0.020 C 
ATOM     24  C   UNL     1      33.720 -21.009 -19.998  0.00  0.00    -0.004 C 
ATOM     25  C   UNL     1      36.007 -20.372 -20.444  0.00  0.00    -0.004 C 
ATOM     26  C   UNL     1      34.152 -21.826 -18.953  0.00  0.00    -0.000 C 
ATOM     27  C   UNL     1      36.439 -21.188 -19.399  0.00  0.00    -0.000 C 
ATOM     28  C   UNL     1      35.511 -21.915 -18.653  0.00  0.00    -0.000 C 
ENDBRANCH  22  23
ENDBRANCH  17  22
ENDBRANCH   2  17
TORSDOF 9
ENDMDL
MODEL 6
REMARK VINA RESULT:      -8.2      7.600     11.143
REMARK  Name = 46937118
REMARK  9 active torsions:
REMARK  status: ('A' for Active; 'I' for Inactive)
REMARK    1  A    between atoms: N_2  and  C_17
REMARK    2  A    between atoms: C_3  and  C_5
REMARK    3  A    between atoms: C_5  and  N_8
REMARK    4  A    between atoms: C_9  and  C_11
REMARK    5  A    between atoms: C_11  and  N_13
REMARK    6  A    between atoms: C_17  and  C_18
REMARK    7  A    between atoms: C_17  and  C_22
REMARK    8  A    between atoms: C_18  and  O_20
REMARK    9  A    between atoms: C_22  and  C_23
REMARK                            x       y       z     vdW  Elec       q    Type
REMARK                         _______ _______ _______ _____ _____    ______ ____
ROOT
ATOM      1  O   UNL     1      34.990 -25.067 -15.692  0.00  0.00    -0.273 OA
ATOM      2  N   UNL     1      34.641 -22.958 -16.594  0.00  0.00    -0.302 N 
ATOM      3  C   UNL     1      35.327 -23.893 -15.835  0.00  0.00    +0.240 C 
ATOM      4  H   UNL     1      34.994 -22.040 -16.646  0.00  0.00    +0.150 HD
ENDROOT
BRANCH   3   5
ATOM      5  C   UNL     1      36.559 -23.291 -15.170  0.00  0.00    +0.149 C 
ATOM      6  C   UNL     1      37.232 -22.298 -16.109  0.00  0.00    +0.031 C 
BRANCH   5   8
ATOM      7  O   UNL     1      38.075 -23.591 -12.741  0.00  0.00    -0.277 OA
ATOM      8  N   UNL     1      37.479 -24.377 -14.839  0.00  0.00    -0.300 N 
ATOM      9  C   UNL     1      38.159 -24.425 -13.640  0.00  0.00    +0.202 C 
ATOM     10  H   UNL     1      37.617 -25.099 -15.494  0.00  0.00    +0.150 HD
BRANCH   9  11
ATOM     11  C   UNL     1      39.060 -25.652 -13.560  0.00  0.00    +0.013 C 
ATOM     12  C   UNL     1      40.370 -25.395 -14.295  0.00  0.00    -0.015 C 
BRANCH  11  13
ATOM     13  N   UNL     1      38.355 -26.780 -14.162  0.00  0.00    +0.387 N 
ATOM     14  H   UNL     1      38.782 -27.653 -13.853  0.00  0.00    -0.089 HD
ATOM     15  H   UNL     1      38.413 -26.714 -15.179  0.00  0.00    -0.089 HD
ATOM     16  H   UNL     1      37.375 -26.760 -13.877  0.00  0.00    -0.089 HD
ENDBRANCH  11  13
ENDBRANCH   9  11
ENDBRANCH   5   8
ENDBRANCH   3   5
BRANCH   2  17
ATOM     17  C   UNL     1      33.427 -23.277 -17.318  0.00  0.00    +0.103 C 
BRANCH  17  18
ATOM     18  C   UNL     1      33.585 -22.955 -18.818  0.00  0.00    +0.129 C 
ATOM     19  C   UNL     1      34.630 -21.877 -19.091  0.00  0.00    +0.033 C 
BRANCH  18  20
ATOM     20  O   UNL     1      33.936 -24.137 -19.533  0.00  0.00    -0.383 OA
ATOM     21  H   UNL     1      33.295 -24.838 -19.335  0.00  0.00    +0.210 HD
ENDBRANCH  18  20
ENDBRANCH  17  18
BRANCH  17  22
ATOM     22  C   UNL     1      32.245 -22.545 -16.654  0.00  0.00    +0.048 C 
BRANCH  22  23
ATOM     23  C   UNL     1      31.268 -23.461 -15.960  0.00  0.00    -0.020 C 
ATOM     24  C   UNL     1      31.691 -24.254 -14.894  0.00  0.00    -0.004 C 
ATOM     25  C   UNL     1      29.940 -23.514 -16.385  0.00  0.00    -0.004 C 
ATOM     26  C   UNL     1      30.787 -25.101 -14.253  0.00  0.00    -0.000 C 
ATOM     27  C   UNL     1      29.036 -24.361 -15.744  0.00  0.00    -0.000 C 
ATOM     28  C   UNL     1      29.460 -25.155 -14.678  0.00  0.00    -0.000 C 
ENDBRANCH  22  23
ENDBRANCH  17  22
ENDBRANCH   2  17
TORSDOF 9
ENDMDL
MODEL 7
REMARK VINA RESULT:      -8.2      7.158     11.247
REMARK  Name = 46937118
REMARK  9 active torsions:
REMARK  status: ('A' for Active; 'I' for Inactive)
REMARK    1  A    between atoms: N_2  and  C_17
REMARK    2  A    between atoms: C_3  and  C_5
REMARK    3  A    between atoms: C_5  and  N_8
REMARK    4  A    between atoms: C_9  and  C_11
REMARK    5  A    between atoms: C_11  and  N_13
REMARK    6  A    between atoms: C_17  and  C_18
REMARK    7  A    between atoms: C_17  and  C_22
REMARK    8  A    between atoms: C_18  and  O_20
REMARK    9  A    between atoms: C_22  and  C_23
REMARK                            x       y       z     vdW  Elec       q    Type
REMARK                         _______ _______ _______ _____ _____    ______ ____
ROOT
ATOM      1  O   UNL     1      36.415 -22.380 -15.629  0.00  0.00    -0.273 OA
ATOM      2  N   UNL     1      34.735 -23.958 -15.895  0.00  0.00    -0.302 N 
ATOM      3  C   UNL     1      36.013 -23.539 -15.555  0.00  0.00    +0.240 C 
ATOM      4  H   UNL     1      34.509 -24.911 -15.801  0.00  0.00    +0.150 HD
ENDROOT
BRANCH   3   5
ATOM      5  C   UNL     1      36.884 -24.699 -15.087  0.00  0.00    +0.149 C 
ATOM      6  C   UNL     1      36.171 -26.024 -15.328  0.00  0.00    +0.031 C 
BRANCH   5   8
ATOM      7  O   UNL     1      34.942 -24.508 -12.970  0.00  0.00    -0.277 OA
ATOM      8  N   UNL     1      37.155 -24.523 -13.663  0.00  0.00    -0.300 N 
ATOM      9  C   UNL     1      36.146 -24.442 -12.726  0.00  0.00    +0.202 C 
ATOM     10  H   UNL     1      38.090 -24.460 -13.361  0.00  0.00    +0.150 HD
BRANCH   9  11
ATOM     11  C   UNL     1      36.703 -24.245 -11.321  0.00  0.00    +0.013 C 
ATOM     12  C   UNL     1      35.593 -24.392 -10.287  0.00  0.00    -0.015 C 
BRANCH  11  13
ATOM     13  N   UNL     1      37.292 -22.911 -11.245  0.00  0.00    +0.387 N 
ATOM     14  H   UNL     1      36.550 -22.216 -11.154  0.00  0.00    -0.089 HD
ATOM     15  H   UNL     1      37.828 -22.727 -12.093  0.00  0.00    -0.089 HD
ATOM     16  H   UNL     1      37.909 -22.857 -10.434  0.00  0.00    -0.089 HD
ENDBRANCH  11  13
ENDBRANCH   9  11
ENDBRANCH   5   8
ENDBRANCH   3   5
BRANCH   2  17
ATOM     17  C   UNL     1      33.718 -23.047 -16.382  0.00  0.00    +0.103 C 
BRANCH  17  18
ATOM     18  C   UNL     1      32.444 -23.140 -15.518  0.00  0.00    +0.129 C 
ATOM     19  C   UNL     1      31.162 -23.171 -16.344  0.00  0.00    +0.033 C 
BRANCH  18  20
ATOM     20  O   UNL     1      32.500 -24.305 -14.698  0.00  0.00    -0.383 OA
ATOM     21  H   UNL     1      33.415 -24.619 -14.643  0.00  0.00    +0.210 HD
ENDBRANCH  18  20
ENDBRANCH  17  18
BRANCH  17  22
ATOM     22  C   UNL     1      33.469 -23.333 -17.876  0.00  0.00    +0.048 C 
BRANCH  22  23
ATOM     23  C   UNL     1      33.944 -22.236 -18.797  0.00  0.00    -0.020 C 
ATOM     24  C   UNL     1      33.018 -21.425 -19.452  0.00  0.00    -0.004 C 
ATOM     25  C   UNL     1      35.310 -22.034 -18.993  0.00  0.00    -0.004 C 
ATOM     26  C   UNL     1      33.458 -20.412 -20.304  0.00  0.00    -0.000 C 
ATOM     27  C   UNL     1      35.750 -21.020 -19.844  0.00  0.00    -0.000 C 
ATOM     28  C   UNL     1      34.823 -20.210 -20.500  0.00  0.00    -0.000 C 
ENDBRANCH  22  23
ENDBRANCH  17  22
ENDBRANCH   2  17
TORSDOF 9
ENDMDL
MODEL 8
REMARK VINA RESULT:      -8.1      2.393      7.552
REMARK  Name = 46937118
REMARK  9 active torsions:
REMARK  status: ('A' for Active; 'I' for Inactive)
REMARK    1  A    between atoms: N_2  and  C_17
REMARK    2  A    between atoms: C_3  and  C_5
REMARK    3  A    between atoms: C_5  and  N_8
REMARK    4  A    between atoms: C_9  and  C_11
REMARK    5  A    between atoms: C_11  and  N_13
REMARK    6  A    between atoms: C_17  and  C_18
REMARK    7  A    between atoms: C_17  and  C_22
REMARK    8  A    between atoms: C_18  and  O_20
REMARK    9  A    between atoms: C_22  and  C_23
REMARK                            x       y       z     vdW  Elec       q    Type
REMARK                         _______ _______ _______ _____ _____    ______ ____
ROOT
ATOM      1  O   UNL     1      33.457 -15.656 -22.004  0.00  0.00    -0.273 OA
ATOM      2  N   UNL     1      33.910 -15.569 -24.278  0.00  0.00    -0.302 N 
ATOM      3  C   UNL     1      34.009 -16.110 -23.005  0.00  0.00    +0.240 C 
ATOM      4  H   UNL     1      34.392 -16.008 -25.016  0.00  0.00    +0.150 HD
ENDROOT
BRANCH   3   5
ATOM      5  C   UNL     1      34.907 -17.341 -22.979  0.00  0.00    +0.149 C 
ATOM      6  C   UNL     1      35.046 -17.921 -24.381  0.00  0.00    +0.031 C 
BRANCH   5   8
ATOM      7  O   UNL     1      36.183 -18.651 -20.756  0.00  0.00    -0.277 OA
ATOM      8  N   UNL     1      34.308 -18.326 -22.081  0.00  0.00    -0.300 N 
ATOM      9  C   UNL     1      35.012 -18.897 -21.041  0.00  0.00    +0.202 C 
ATOM     10  H   UNL     1      33.371 -18.591 -22.224  0.00  0.00    +0.150 HD
BRANCH   9  11
ATOM     11  C   UNL     1      34.158 -19.899 -20.273  0.00  0.00    +0.013 C 
ATOM     12  C   UNL     1      34.946 -21.179 -20.020  0.00  0.00    -0.015 C 
BRANCH  11  13
ATOM     13  N   UNL     1      32.966 -20.187 -21.066  0.00  0.00    +0.387 N 
ATOM     14  H   UNL     1      32.946 -21.179 -21.302  0.00  0.00    -0.089 HD
ATOM     15  H   UNL     1      32.984 -19.634 -21.922  0.00  0.00    -0.089 HD
ATOM     16  H   UNL     1      32.133 -19.950 -20.526  0.00  0.00    -0.089 HD
ENDBRANCH  11  13
ENDBRANCH   9  11
ENDBRANCH   5   8
ENDBRANCH   3   5
BRANCH   2  17
ATOM     17  C   UNL     1      33.125 -14.386 -24.566  0.00  0.00    +0.103 C 
BRANCH  17  18
ATOM     18  C   UNL     1      32.683 -14.371 -26.044  0.00  0.00    +0.129 C 
ATOM     19  C   UNL     1      33.389 -13.299 -26.868  0.00  0.00    +0.033 C 
BRANCH  18  20
ATOM     20  O   UNL     1      32.923 -15.647 -26.633  0.00  0.00    -0.383 OA
ATOM     21  H   UNL     1      33.541 -15.550 -27.375  0.00  0.00    +0.210 HD
ENDBRANCH  18  20
ENDBRANCH  17  18
BRANCH  17  22
ATOM     22  C   UNL     1      33.933 -13.140 -24.154  0.00  0.00    +0.048 C 
BRANCH  22  23
ATOM     23  C   UNL     1      33.115 -12.083 -23.455  0.00  0.00    -0.020 C 
ATOM     24  C   UNL     1      32.184 -12.449 -22.483  0.00  0.00    -0.004 C 
ATOM     25  C   UNL     1      33.291 -10.737 -23.780  0.00  0.00    -0.004 C 
ATOM     26  C   UNL     1      31.428 -11.471 -21.837  0.00  0.00    -0.000 C 
ATOM     27  C   UNL     1      32.535  -9.759 -23.134  0.00  0.00    -0.000 C 
ATOM     28  C   UNL     1      31.603 -10.126 -22.163  0.00  0.00    -0.000 C 
ENDBRANCH  22  23
ENDBRANCH  17  22
ENDBRANCH   2  17
TORSDOF 9
ENDMDL
MODEL 9
REMARK VINA RESULT:      -8.0      2.806      7.796
REMARK  Name = 46937118
REMARK  9 active torsions:
REMARK  status: ('A' for Active; 'I' for Inactive)
REMARK    1  A    between atoms: N_2  and  C_17
REMARK    2  A    between atoms: C_3  and  C_5
REMARK    3  A    between atoms: C_5  and  N_8
REMARK    4  A    between atoms: C_9  and  C_11
REMARK    5  A    between atoms: C_11  and  N_13
REMARK    6  A    between atoms: C_17  and  C_18
REMARK    7  A    between atoms: C_17  and  C_22
REMARK    8  A    between atoms: C_18  and  O_20
REMARK    9  A    between atoms: C_22  and  C_23
REMARK                            x       y       z     vdW  Elec       q    Type
REMARK                         _______ _______ _______ _____ _____    ______ ____
ROOT
ATOM      1  O   UNL     1      31.959 -13.509 -22.162  0.00  0.00    -0.273 OA
ATOM      2  N   UNL     1      33.553 -14.047 -23.759  0.00  0.00    -0.302 N 
ATOM      3  C   UNL     1      32.915 -14.186 -22.536  0.00  0.00    +0.240 C 
ATOM      4  H   UNL     1      34.312 -14.639 -23.966  0.00  0.00    +0.150 HD
ENDROOT
BRANCH   3   5
ATOM      5  C   UNL     1      33.551 -15.279 -21.686  0.00  0.00    +0.149 C 
ATOM      6  C   UNL     1      34.403 -14.661 -20.584  0.00  0.00    +0.031 C 
BRANCH   5   8
ATOM      7  O   UNL     1      34.228 -18.048 -21.284  0.00  0.00    -0.277 OA
ATOM      8  N   UNL     1      34.376 -16.114 -22.554  0.00  0.00    -0.300 N 
ATOM      9  C   UNL     1      34.641 -17.438 -22.268  0.00  0.00    +0.202 C 
ATOM     10  H   UNL     1      34.755 -15.720 -23.373  0.00  0.00    +0.150 HD
BRANCH   9  11
ATOM     11  C   UNL     1      35.536 -18.070 -23.328  0.00  0.00    +0.013 C 
ATOM     12  C   UNL     1      34.871 -19.313 -23.906  0.00  0.00    -0.015 C 
BRANCH  11  13
ATOM     13  N   UNL     1      36.808 -18.420 -22.704  0.00  0.00    +0.387 N 
ATOM     14  H   UNL     1      37.039 -17.729 -21.990  0.00  0.00    -0.089 HD
ATOM     15  H   UNL     1      37.542 -18.435 -23.413  0.00  0.00    -0.089 HD
ATOM     16  H   UNL     1      36.733 -19.342 -22.273  0.00  0.00    -0.089 HD
ENDBRANCH  11  13
ENDBRANCH   9  11
ENDBRANCH   5   8
ENDBRANCH   3   5
BRANCH   2  17
ATOM     17  C   UNL     1      33.147 -13.066 -24.746  0.00  0.00    +0.103 C 
BRANCH  17  18
ATOM     18  C   UNL     1      32.702 -13.758 -26.051  0.00  0.00    +0.129 C 
ATOM     19  C   UNL     1      33.415 -13.217 -27.287  0.00  0.00    +0.033 C 
BRANCH  18  20
ATOM     20  O   UNL     1      32.930 -15.161 -25.956  0.00  0.00    -0.383 OA
ATOM     21  H   UNL     1      33.253 -15.378 -25.068  0.00  0.00    +0.210 HD
ENDBRANCH  18  20
ENDBRANCH  17  18
BRANCH  17  22
ATOM     22  C   UNL     1      34.295 -12.057 -24.946  0.00  0.00    +0.048 C 
BRANCH  22  23
ATOM     23  C   UNL     1      34.050 -10.714 -24.304  0.00  0.00    -0.020 C 
ATOM     24  C   UNL     1      32.904 -10.506 -23.538  0.00  0.00    -0.004 C 
ATOM     25  C   UNL     1      34.971  -9.681 -24.477  0.00  0.00    -0.004 C 
ATOM     26  C   UNL     1      32.678  -9.264 -22.944  0.00  0.00    -0.000 C 
ATOM     27  C   UNL     1      34.746  -8.439 -23.884  0.00  0.00    -0.000 C 
ATOM     28  C   UNL     1      33.598  -8.230 -23.118  0.00  0.00    -0.000 C 
ENDBRANCH  22  23
ENDBRANCH  17  22
ENDBRANCH   2  17
TORSDOF 9
ENDMDL
