MODEL 1
REMARK VINA RESULT:      -5.3      0.000      0.000
REMARK  Name = 5227
REMARK  6 active torsions:
REMARK  status: ('A' for Active; 'I' for Inactive)
REMARK    1  A    between atoms: C_1  and  S_2
REMARK    2  A    between atoms: C_1  and  C_9
REMARK    3  A    between atoms: S_2  and  C_5
REMARK    4  A    between atoms: C_9  and  C_10
REMARK    5  A    between atoms: C_10  and  C_11
REMARK    6  A    between atoms: C_11  and  N_12
REMARK                            x       y       z     vdW  Elec       q    Type
REMARK                         _______ _______ _______ _____ _____    ______ ____
ROOT
ATOM      1  C   UNL     1      34.759 -20.204 -20.518  0.00  0.00    +0.065 C 
ENDROOT
BRANCH   1   2
ATOM      2  S   UNL     1      35.377 -21.599 -19.535  0.00  0.00    -0.081 S 
BRANCH   2   5
ATOM      3  N   UNL     1      32.761 -21.677 -19.221  0.00  0.00    -0.338 N 
ATOM      4  N   UNL     1      33.905 -23.707 -18.838  0.00  0.00    -0.280 NA
ATOM      5  C   UNL     1      33.885 -22.452 -19.151  0.00  0.00    +0.144 C 
ATOM      6  H   UNL     1      32.832 -20.728 -19.468  0.00  0.00    +0.144 HD
ATOM      7  H   UNL     1      31.879 -22.070 -19.025  0.00  0.00    +0.144 HD
ATOM      8  H   UNL     1      34.761 -24.194 -18.810  0.00  0.00    +0.189 HD
ENDBRANCH   2   5
ENDBRANCH   1   2
BRANCH   1   9
ATOM      9  C   UNL     1      35.913 -19.329 -20.998  0.00  0.00    +0.010 C 
BRANCH   9  10
ATOM     10  C   UNL     1      35.397 -18.146 -21.823  0.00  0.00    -0.022 C 
BRANCH  10  11
ATOM     11  C   UNL     1      35.574 -18.397 -23.320  0.00  0.00    -0.078 C 
BRANCH  11  12
ATOM     12  N   UNL     1      35.421 -17.153 -24.064  0.00  0.00    +0.384 N 
ATOM     13  C   UNL     1      35.033 -16.061 -23.168  0.00  0.00    -0.101 C 
ATOM     14  C   UNL     1      34.434 -17.308 -25.133  0.00  0.00    -0.101 C 
ATOM     15  H   UNL     1      36.322 -16.922 -24.485  0.00  0.00    -0.080 HD
ENDBRANCH  11  12
ENDBRANCH  10  11
ENDBRANCH   9  10
ENDBRANCH   1   9
TORSDOF 6
ENDMDL
MODEL 2
REMARK VINA RESULT:      -5.2      1.097      1.606
REMARK  Name = 5227
REMARK  6 active torsions:
REMARK  status: ('A' for Active; 'I' for Inactive)
REMARK    1  A    between atoms: C_1  and  S_2
REMARK    2  A    between atoms: C_1  and  C_9
REMARK    3  A    between atoms: S_2  and  C_5
REMARK    4  A    between atoms: C_9  and  C_10
REMARK    5  A    between atoms: C_10  and  C_11
REMARK    6  A    between atoms: C_11  and  N_12
REMARK                            x       y       z     vdW  Elec       q    Type
REMARK                         _______ _______ _______ _____ _____    ______ ____
ROOT
ATOM      1  C   UNL     1      34.943 -19.305 -20.993  0.00  0.00    +0.065 C 
ENDROOT
BRANCH   1   2
ATOM      2  S   UNL     1      35.312 -20.839 -20.095  0.00  0.00    -0.081 S 
BRANCH   2   5
ATOM      3  N   UNL     1      33.638 -22.709 -19.290  0.00  0.00    -0.338 N 
ATOM      4  N   UNL     1      32.686 -20.592 -19.722  0.00  0.00    -0.280 NA
ATOM      5  C   UNL     1      33.697 -21.397 -19.668  0.00  0.00    +0.144 C 
ATOM      6  H   UNL     1      34.456 -23.255 -19.276  0.00  0.00    +0.144 HD
ATOM      7  H   UNL     1      32.775 -23.109 -19.031  0.00  0.00    +0.144 HD
ATOM      8  H   UNL     1      32.815 -19.657 -20.006  0.00  0.00    +0.189 HD
ENDBRANCH   2   5
ENDBRANCH   1   2
BRANCH   1   9
ATOM      9  C   UNL     1      34.832 -19.571 -22.492  0.00  0.00    +0.010 C 
BRANCH   9  10
ATOM     10  C   UNL     1      35.564 -18.491 -23.295  0.00  0.00    -0.022 C 
BRANCH  10  11
ATOM     11  C   UNL     1      35.320 -17.103 -22.705  0.00  0.00    -0.078 C 
BRANCH  11  12
ATOM     12  N   UNL     1      35.262 -16.105 -23.766  0.00  0.00    +0.384 N 
ATOM     13  C   UNL     1      34.485 -14.941 -23.336  0.00  0.00    -0.101 C 
ATOM     14  C   UNL     1      34.686 -16.678 -24.983  0.00  0.00    -0.101 C 
ATOM     15  H   UNL     1      36.215 -15.801 -23.969  0.00  0.00    -0.080 HD
ENDBRANCH  11  12
ENDBRANCH  10  11
ENDBRANCH   9  10
ENDBRANCH   1   9
TORSDOF 6
ENDMDL
MODEL 3
REMARK VINA RESULT:      -5.2      3.916      6.799
REMARK  Name = 5227
REMARK  6 active torsions:
REMARK  status: ('A' for Active; 'I' for Inactive)
REMARK    1  A    between atoms: C_1  and  S_2
REMARK    2  A    between atoms: C_1  and  C_9
REMARK    3  A    between atoms: S_2  and  C_5
REMARK    4  A    between atoms: C_9  and  C_10
REMARK    5  A    between atoms: C_10  and  C_11
REMARK    6  A    between atoms: C_11  and  N_12
REMARK                            x       y       z     vdW  Elec       q    Type
REMARK                         _______ _______ _______ _____ _____    ______ ____
ROOT
ATOM      1  C   UNL     1      34.453 -15.217 -23.221  0.00  0.00    +0.065 C 
ENDROOT
BRANCH   1   2
ATOM      2  S   UNL     1      33.344 -14.142 -24.174  0.00  0.00    -0.081 S 
BRANCH   2   5
ATOM      3  N   UNL     1      32.260 -14.539 -26.544  0.00  0.00    -0.338 N 
ATOM      4  N   UNL     1      33.989 -16.030 -25.938  0.00  0.00    -0.280 NA
ATOM      5  C   UNL     1      33.217 -15.021 -25.694  0.00  0.00    +0.144 C 
ATOM      6  H   UNL     1      31.714 -13.764 -26.282  0.00  0.00    +0.144 HD
ATOM      7  H   UNL     1      32.119 -14.967 -27.420  0.00  0.00    +0.144 HD
ATOM      8  H   UNL     1      34.655 -16.314 -25.270  0.00  0.00    +0.189 HD
ENDBRANCH   2   5
ENDBRANCH   1   2
BRANCH   1   9
ATOM      9  C   UNL     1      34.459 -14.817 -21.748  0.00  0.00    +0.010 C 
BRANCH   9  10
ATOM     10  C   UNL     1      34.662 -16.040 -20.849  0.00  0.00    -0.022 C 
BRANCH  10  11
ATOM     11  C   UNL     1      35.087 -17.260 -21.664  0.00  0.00    -0.078 C 
BRANCH  11  12
ATOM     12  N   UNL     1      35.186 -18.434 -20.806  0.00  0.00    +0.384 N 
ATOM     13  C   UNL     1      36.494 -19.075 -20.958  0.00  0.00    -0.101 C 
ATOM     14  C   UNL     1      34.116 -19.386 -21.107  0.00  0.00    -0.101 C 
ATOM     15  H   UNL     1      35.086 -18.129 -19.837  0.00  0.00    -0.080 HD
ENDBRANCH  11  12
ENDBRANCH  10  11
ENDBRANCH   9  10
ENDBRANCH   1   9
TORSDOF 6
ENDMDL
MODEL 4
REMARK VINA RESULT:      -5.1      4.644      6.667
REMARK  Name = 5227
REMARK  6 active torsions:
REMARK  status: ('A' for Active; 'I' for Inactive)
REMARK    1  A    between atoms: C_1  and  S_2
REMARK    2  A    between atoms: C_1  and  C_9
REMARK    3  A    between atoms: S_2  and  C_5
REMARK    4  A    between atoms: C_9  and  C_10
REMARK    5  A    between atoms: C_10  and  C_11
REMARK    6  A    between atoms: C_11  and  N_12
REMARK                            x       y       z     vdW  Elec       q    Type
REMARK                         _______ _______ _______ _____ _____    ______ ____
ROOT
ATOM      1  C   UNL     1      36.673 -23.810 -15.112  0.00  0.00    +0.065 C 
ENDROOT
BRANCH   1   2
ATOM      2  S   UNL     1      38.045 -24.957 -14.794  0.00  0.00    -0.081 S 
BRANCH   2   5
ATOM      3  N   UNL     1      37.015 -27.073 -13.606  0.00  0.00    -0.338 N 
ATOM      4  N   UNL     1      36.866 -27.040 -15.963  0.00  0.00    -0.280 NA
ATOM      5  C   UNL     1      37.223 -26.514 -14.836  0.00  0.00    +0.144 C 
ATOM      6  H   UNL     1      37.318 -26.606 -12.795  0.00  0.00    +0.144 HD
ATOM      7  H   UNL     1      36.559 -27.943 -13.532  0.00  0.00    +0.144 HD
ATOM      8  H   UNL     1      37.055 -26.570 -16.808  0.00  0.00    +0.189 HD
ENDBRANCH   2   5
ENDBRANCH   1   2
BRANCH   1   9
ATOM      9  C   UNL     1      37.123 -22.669 -16.019  0.00  0.00    +0.010 C 
BRANCH   9  10
ATOM     10  C   UNL     1      36.038 -22.324 -17.043  0.00  0.00    -0.022 C 
BRANCH  10  11
ATOM     11  C   UNL     1      36.627 -21.590 -18.247  0.00  0.00    -0.078 C 
BRANCH  11  12
ATOM     12  N   UNL     1      35.783 -21.782 -19.420  0.00  0.00    +0.384 N 
ATOM     13  C   UNL     1      35.715 -20.552 -20.212  0.00  0.00    -0.101 C 
ATOM     14  C   UNL     1      34.439 -22.207 -19.025  0.00  0.00    -0.101 C 
ATOM     15  H   UNL     1      36.200 -22.515 -19.995  0.00  0.00    -0.080 HD
ENDBRANCH  11  12
ENDBRANCH  10  11
ENDBRANCH   9  10
ENDBRANCH   1   9
TORSDOF 6
ENDMDL
MODEL 5
REMARK VINA RESULT:      -5.1      3.107      6.482
REMARK  Name = 5227
REMARK  6 active torsions:
REMARK  status: ('A' for Active; 'I' for Inactive)
REMARK    1  A    between atoms: C_1  and  S_2
REMARK    2  A    between atoms: C_1  and  C_9
REMARK    3  A    between atoms: S_2  and  C_5
REMARK    4  A    between atoms: C_9  and  C_10
REMARK    5  A    between atoms: C_10  and  C_11
REMARK    6  A    between atoms: C_11  and  N_12
REMARK                            x       y       z     vdW  Elec       q    Type
REMARK                         _______ _______ _______ _____ _____    ______ ____
ROOT
ATOM      1  C   UNL     1      34.538 -18.014 -24.907  0.00  0.00    +0.065 C 
ENDROOT
BRANCH   1   2
ATOM      2  S   UNL     1      34.628 -16.394 -24.092  0.00  0.00    -0.081 S 
BRANCH   2   5
ATOM      3  N   UNL     1      33.135 -14.274 -24.566  0.00  0.00    -0.338 N 
ATOM      4  N   UNL     1      33.403 -15.770 -26.373  0.00  0.00    -0.280 NA
ATOM      5  C   UNL     1      33.625 -15.408 -25.151  0.00  0.00    +0.144 C 
ATOM      6  H   UNL     1      33.352 -14.070 -23.628  0.00  0.00    +0.144 HD
ATOM      7  H   UNL     1      32.565 -13.659 -25.083  0.00  0.00    +0.144 HD
ATOM      8  H   UNL     1      33.794 -16.605 -26.719  0.00  0.00    +0.189 HD
ENDBRANCH   2   5
ENDBRANCH   1   2
BRANCH   1   9
ATOM      9  C   UNL     1      34.931 -19.126 -23.939  0.00  0.00    +0.010 C 
BRANCH   9  10
ATOM     10  C   UNL     1      34.538 -18.767 -22.503  0.00  0.00    -0.022 C 
BRANCH  10  11
ATOM     11  C   UNL     1      35.645 -19.136 -21.518  0.00  0.00    -0.078 C 
BRANCH  11  12
ATOM     12  N   UNL     1      35.087 -19.831 -20.365  0.00  0.00    +0.384 N 
ATOM     13  C   UNL     1      35.835 -21.060 -20.091  0.00  0.00    -0.101 C 
ATOM     14  C   UNL     1      33.671 -20.136 -20.581  0.00  0.00    -0.101 C 
ATOM     15  H   UNL     1      35.166 -19.216 -19.554  0.00  0.00    -0.080 HD
ENDBRANCH  11  12
ENDBRANCH  10  11
ENDBRANCH   9  10
ENDBRANCH   1   9
TORSDOF 6
ENDMDL
MODEL 6
REMARK VINA RESULT:      -5.1      2.070      6.360
REMARK  Name = 5227
REMARK  6 active torsions:
REMARK  status: ('A' for Active; 'I' for Inactive)
REMARK    1  A    between atoms: C_1  and  S_2
REMARK    2  A    between atoms: C_1  and  C_9
REMARK    3  A    between atoms: S_2  and  C_5
REMARK    4  A    between atoms: C_9  and  C_10
REMARK    5  A    between atoms: C_10  and  C_11
REMARK    6  A    between atoms: C_11  and  N_12
REMARK                            x       y       z     vdW  Elec       q    Type
REMARK                         _______ _______ _______ _____ _____    ______ ____
ROOT
ATOM      1  C   UNL     1      34.646 -19.100 -21.223  0.00  0.00    +0.065 C 
ENDROOT
BRANCH   1   2
ATOM      2  S   UNL     1      34.614 -17.290 -21.369  0.00  0.00    -0.081 S 
BRANCH   2   5
ATOM      3  N   UNL     1      35.832 -18.188 -23.528  0.00  0.00    -0.338 N 
ATOM      4  N   UNL     1      35.368 -15.873 -23.494  0.00  0.00    -0.280 NA
ATOM      5  C   UNL     1      35.337 -17.049 -22.957  0.00  0.00    +0.144 C 
ATOM      6  H   UNL     1      35.767 -19.046 -23.051  0.00  0.00    +0.144 HD
ATOM      7  H   UNL     1      36.252 -18.150 -24.418  0.00  0.00    +0.144 HD
ATOM      8  H   UNL     1      34.988 -15.101 -23.014  0.00  0.00    +0.189 HD
ENDBRANCH   2   5
ENDBRANCH   1   2
BRANCH   1   9
ATOM      9  C   UNL     1      33.263 -19.636 -20.863  0.00  0.00    +0.010 C 
BRANCH   9  10
ATOM     10  C   UNL     1      33.372 -20.852 -19.938  0.00  0.00    -0.022 C 
BRANCH  10  11
ATOM     11  C   UNL     1      34.831 -21.234 -19.697  0.00  0.00    -0.078 C 
BRANCH  11  12
ATOM     12  N   UNL     1      34.914 -22.367 -18.784  0.00  0.00    +0.384 N 
ATOM     13  C   UNL     1      33.593 -22.690 -18.242  0.00  0.00    -0.101 C 
ATOM     14  C   UNL     1      35.855 -22.087 -17.697  0.00  0.00    -0.101 C 
ATOM     15  H   UNL     1      35.255 -23.174 -19.308  0.00  0.00    -0.080 HD
ENDBRANCH  11  12
ENDBRANCH  10  11
ENDBRANCH   9  10
ENDBRANCH   1   9
TORSDOF 6
ENDMDL
MODEL 7
REMARK VINA RESULT:      -5.1      4.205      5.504
REMARK  Name = 5227
REMARK  6 active torsions:
REMARK  status: ('A' for Active; 'I' for Inactive)
REMARK    1  A    between atoms: C_1  and  S_2
REMARK    2  A    between atoms: C_1  and  C_9
REMARK    3  A    between atoms: S_2  and  C_5
REMARK    4  A    between atoms: C_9  and  C_10
REMARK    5  A    between atoms: C_10  and  C_11
REMARK    6  A    between atoms: C_11  and  N_12
REMARK                            x       y       z     vdW  Elec       q    Type
REMARK                         _______ _______ _______ _____ _____    ______ ____
ROOT
ATOM      1  C   UNL     1      34.439 -15.674 -20.617  0.00  0.00    +0.065 C 
ENDROOT
BRANCH   1   2
ATOM      2  S   UNL     1      34.339 -17.309 -21.400  0.00  0.00    -0.081 S 
BRANCH   2   5
ATOM      3  N   UNL     1      36.282 -18.205 -22.940  0.00  0.00    -0.338 N 
ATOM      4  N   UNL     1      35.469 -16.049 -23.456  0.00  0.00    -0.280 NA
ATOM      5  C   UNL     1      35.462 -17.129 -22.744  0.00  0.00    +0.144 C 
ATOM      6  H   UNL     1      36.212 -18.990 -22.352  0.00  0.00    +0.144 HD
ATOM      7  H   UNL     1      36.942 -18.195 -23.671  0.00  0.00    +0.144 HD
ATOM      8  H   UNL     1      34.843 -15.317 -23.248  0.00  0.00    +0.189 HD
ENDBRANCH   2   5
ENDBRANCH   1   2
BRANCH   1   9
ATOM      9  C   UNL     1      33.061 -15.024 -20.548  0.00  0.00    +0.010 C 
BRANCH   9  10
ATOM     10  C   UNL     1      33.000 -13.775 -21.433  0.00  0.00    -0.022 C 
BRANCH  10  11
ATOM     11  C   UNL     1      32.467 -14.111 -22.825  0.00  0.00    -0.078 C 
BRANCH  11  12
ATOM     12  N   UNL     1      33.424 -13.704 -23.846  0.00  0.00    +0.384 N 
ATOM     13  C   UNL     1      33.608 -12.251 -23.830  0.00  0.00    -0.101 C 
ATOM     14  C   UNL     1      32.985 -14.145 -25.171  0.00  0.00    -0.101 C 
ATOM     15  H   UNL     1      34.320 -14.146 -23.637  0.00  0.00    -0.080 HD
ENDBRANCH  11  12
ENDBRANCH  10  11
ENDBRANCH   9  10
ENDBRANCH   1   9
TORSDOF 6
ENDMDL
MODEL 8
REMARK VINA RESULT:      -5.0      1.330      1.994
REMARK  Name = 5227
REMARK  6 active torsions:
REMARK  status: ('A' for Active; 'I' for Inactive)
REMARK    1  A    between atoms: C_1  and  S_2
REMARK    2  A    between atoms: C_1  and  C_9
REMARK    3  A    between atoms: S_2  and  C_5
REMARK    4  A    between atoms: C_9  and  C_10
REMARK    5  A    between atoms: C_10  and  C_11
REMARK    6  A    between atoms: C_11  and  N_12
REMARK                            x       y       z     vdW  Elec       q    Type
REMARK                         _______ _______ _______ _____ _____    ______ ____
ROOT
ATOM      1  C   UNL     1      33.192 -21.062 -20.000  0.00  0.00    +0.065 C 
ENDROOT
BRANCH   1   2
ATOM      2  S   UNL     1      34.565 -21.978 -19.245  0.00  0.00    -0.081 S 
BRANCH   2   5
ATOM      3  N   UNL     1      32.392 -22.674 -17.926  0.00  0.00    -0.338 N 
ATOM      4  N   UNL     1      34.427 -23.515 -17.074  0.00  0.00    -0.280 NA
ATOM      5  C   UNL     1      33.750 -22.823 -17.932  0.00  0.00    +0.144 C 
ATOM      6  H   UNL     1      31.953 -22.130 -18.618  0.00  0.00    +0.144 HD
ATOM      7  H   UNL     1      31.851 -23.114 -17.230  0.00  0.00    +0.144 HD
ATOM      8  H   UNL     1      35.408 -23.571 -17.149  0.00  0.00    +0.189 HD
ENDBRANCH   2   5
ENDBRANCH   1   2
BRANCH   1   9
ATOM      9  C   UNL     1      33.700 -19.803 -20.695  0.00  0.00    +0.010 C 
BRANCH   9  10
ATOM     10  C   UNL     1      35.220 -19.854 -20.877  0.00  0.00    -0.022 C 
BRANCH  10  11
ATOM     11  C   UNL     1      35.770 -18.501 -21.324  0.00  0.00    -0.078 C 
BRANCH  11  12
ATOM     12  N   UNL     1      34.929 -17.934 -22.372  0.00  0.00    +0.384 N 
ATOM     13  C   UNL     1      35.385 -18.373 -23.692  0.00  0.00    -0.101 C 
ATOM     14  C   UNL     1      34.925 -16.472 -22.297  0.00  0.00    -0.101 C 
ATOM     15  H   UNL     1      33.975 -18.269 -22.230  0.00  0.00    -0.080 HD
ENDBRANCH  11  12
ENDBRANCH  10  11
ENDBRANCH   9  10
ENDBRANCH   1   9
TORSDOF 6
ENDMDL
MODEL 9
REMARK VINA RESULT:      -5.0      2.579      6.233
REMARK  Name = 5227
REMARK  6 active torsions:
REMARK  status: ('A' for Active; 'I' for Inactive)
REMARK    1  A    between atoms: C_1  and  S_2
REMARK    2  A    between atoms: C_1  and  C_9
REMARK    3  A    between atoms: S_2  and  C_5
REMARK    4  A    between atoms: C_9  and  C_10
REMARK    5  A    between atoms: C_10  and  C_11
REMARK    6  A    between atoms: C_11  and  N_12
REMARK                            x       y       z     vdW  Elec       q    Type
REMARK                         _______ _______ _______ _____ _____    ______ ____
ROOT
ATOM      1  C   UNL     1      35.359 -17.682 -22.515  0.00  0.00    +0.065 C 
ENDROOT
BRANCH   1   2
ATOM      2  S   UNL     1      34.917 -16.203 -23.471  0.00  0.00    -0.081 S 
BRANCH   2   5
ATOM      3  N   UNL     1      34.500 -18.271 -25.052  0.00  0.00    -0.338 N 
ATOM      4  N   UNL     1      33.978 -16.156 -25.964  0.00  0.00    -0.280 NA
ATOM      5  C   UNL     1      34.404 -16.909 -25.001  0.00  0.00    +0.144 C 
ATOM      6  H   UNL     1      34.835 -18.771 -24.273  0.00  0.00    +0.144 HD
ATOM      7  H   UNL     1      34.233 -18.754 -25.868  0.00  0.00    +0.144 HD
ATOM      8  H   UNL     1      33.941 -15.179 -25.846  0.00  0.00    +0.189 HD
ENDBRANCH   2   5
ENDBRANCH   1   2
BRANCH   1   9
ATOM      9  C   UNL     1      34.321 -17.953 -21.431  0.00  0.00    +0.010 C 
BRANCH   9  10
ATOM     10  C   UNL     1      34.094 -19.457 -21.254  0.00  0.00    -0.022 C 
BRANCH  10  11
ATOM     11  C   UNL     1      35.381 -20.164 -20.831  0.00  0.00    -0.078 C 
BRANCH  11  12
ATOM     12  N   UNL     1      35.218 -20.770 -19.515  0.00  0.00    +0.384 N 
ATOM     13  C   UNL     1      36.422 -21.512 -19.137  0.00  0.00    -0.101 C 
ATOM     14  C   UNL     1      34.050 -21.653 -19.495  0.00  0.00    -0.101 C 
ATOM     15  H   UNL     1      35.071 -20.022 -18.836  0.00  0.00    -0.080 HD
ENDBRANCH  11  12
ENDBRANCH  10  11
ENDBRANCH   9  10
ENDBRANCH   1   9
TORSDOF 6
ENDMDL
