MODEL 1
REMARK VINA RESULT:     -11.8      0.000      0.000
REMARK  Name = 446744
REMARK  2 active torsions:
REMARK  status: ('A' for Active; 'I' for Inactive)
REMARK    1  A    between atoms: C_1  and  C_8
REMARK    2  A    between atoms: C_1  and  N_18
REMARK                            x       y       z     vdW  Elec       q    Type
REMARK                         _______ _______ _______ _____ _____    ______ ____
ROOT
ATOM      1  C   UNL     1      35.897 -17.611 -22.535  0.00  0.00    +0.152 C 
ENDROOT
BRANCH   1   8
ATOM      2  N   UNL     1      34.906 -15.654 -23.567  0.00  0.00    -0.392 NA
ATOM      3  N   UNL     1      34.174 -17.105 -25.806  0.00  0.00    -0.200 NA
ATOM      4  N   UNL     1      33.241 -15.208 -26.750  0.00  0.00    -0.271 NA
ATOM      5  N   UNL     1      33.283 -13.107 -25.593  0.00  0.00    -0.310 NA
ATOM      6  N   UNL     1      34.290 -12.969 -23.460  0.00  0.00    -0.329 N 
ATOM      7  N   UNL     1      32.295 -13.285 -27.708  0.00  0.00    -0.283 N 
ATOM      8  C   UNL     1      35.180 -16.960 -23.673  0.00  0.00    +0.133 C 
ATOM      9  C   UNL     1      34.821 -17.679 -24.775  0.00  0.00    +0.193 C 
ATOM     10  C   UNL     1      34.259 -15.081 -24.600  0.00  0.00    +0.248 C 
ATOM     11  C   UNL     1      33.884 -15.800 -25.736  0.00  0.00    +0.131 C 
ATOM     12  C   UNL     1      33.927 -13.740 -24.595  0.00  0.00    +0.231 C 
ATOM     13  C   UNL     1      32.973 -13.893 -26.630  0.00  0.00    +0.207 C 
ATOM     14  H   UNL     1      34.069 -12.010 -23.425  0.00  0.00    +0.145 HD
ATOM     15  H   UNL     1      34.763 -13.392 -22.708  0.00  0.00    +0.145 HD
ATOM     16  H   UNL     1      32.043 -13.819 -28.495  0.00  0.00    +0.156 HD
ATOM     17  H   UNL     1      32.074 -12.327 -27.672  0.00  0.00    +0.156 HD
ENDBRANCH   1   8
BRANCH   1  18
ATOM     18  N   UNL     1      34.921 -18.010 -21.512  0.00  0.00    -0.280 N 
ATOM     19  C   UNL     1      34.033 -17.002 -21.060  0.00  0.00    +0.052 C 
ATOM     20  C   UNL     1      35.141 -19.262 -20.883  0.00  0.00    +0.052 C 
ATOM     21  C   UNL     1      32.713 -17.281 -20.649  0.00  0.00    +0.014 C 
ATOM     22  C   UNL     1      34.086 -20.081 -20.431  0.00  0.00    +0.014 C 
ATOM     23  C   UNL     1      32.080 -18.599 -20.766  0.00  0.00    +0.001 C 
ATOM     24  C   UNL     1      32.667 -19.796 -20.672  0.00  0.00    +0.001 C 
ATOM     25  C   UNL     1      34.468 -15.657 -20.979  0.00  0.00    +0.015 C 
ATOM     26  C   UNL     1      36.462 -19.723 -20.662  0.00  0.00    +0.015 C 
ATOM     27  C   UNL     1      31.883 -16.235 -20.196  0.00  0.00    +0.001 C 
ATOM     28  C   UNL     1      34.371 -21.310 -19.801  0.00  0.00    +0.001 C 
ATOM     29  C   UNL     1      33.638 -14.634 -20.519  0.00  0.00    +0.001 C 
ATOM     30  C   UNL     1      36.729 -20.937 -20.027  0.00  0.00    +0.001 C 
ATOM     31  C   UNL     1      32.343 -14.923 -20.125  0.00  0.00    +0.000 C 
ATOM     32  C   UNL     1      35.681 -21.731 -19.594  0.00  0.00    +0.000 C 
ENDBRANCH   1  18
TORSDOF 2
ENDMDL
MODEL 2
REMARK VINA RESULT:     -10.6      3.716      7.776
REMARK  Name = 446744
REMARK  2 active torsions:
REMARK  status: ('A' for Active; 'I' for Inactive)
REMARK    1  A    between atoms: C_1  and  C_8
REMARK    2  A    between atoms: C_1  and  N_18
REMARK                            x       y       z     vdW  Elec       q    Type
REMARK                         _______ _______ _______ _____ _____    ______ ____
ROOT
ATOM      1  C   UNL     1      31.427 -12.017 -23.138  0.00  0.00    +0.152 C 
ENDROOT
BRANCH   1   8
ATOM      2  N   UNL     1      32.622 -13.885 -24.117  0.00  0.00    -0.392 NA
ATOM      3  N   UNL     1      33.557 -14.690 -21.640  0.00  0.00    -0.200 NA
ATOM      4  N   UNL     1      34.681 -16.460 -22.622  0.00  0.00    -0.271 NA
ATOM      5  N   UNL     1      34.591 -16.815 -24.992  0.00  0.00    -0.310 NA
ATOM      6  N   UNL     1      33.339 -15.339 -26.348  0.00  0.00    -0.329 N 
ATOM      7  N   UNL     1      35.821 -18.255 -23.616  0.00  0.00    -0.283 N 
ATOM      8  C   UNL     1      32.306 -13.217 -23.001  0.00  0.00    +0.133 C 
ATOM      9  C   UNL     1      32.765 -13.610 -21.777  0.00  0.00    +0.193 C 
ATOM     10  C   UNL     1      33.415 -14.965 -23.978  0.00  0.00    +0.248 C 
ATOM     11  C   UNL     1      33.894 -15.383 -22.735  0.00  0.00    +0.131 C 
ATOM     12  C   UNL     1      33.803 -15.727 -25.063  0.00  0.00    +0.231 C 
ATOM     13  C   UNL     1      34.991 -17.122 -23.753  0.00  0.00    +0.207 C 
ATOM     14  H   UNL     1      33.598 -15.860 -27.142  0.00  0.00    +0.145 HD
ATOM     15  H   UNL     1      32.760 -14.549 -26.444  0.00  0.00    +0.145 HD
ATOM     16  H   UNL     1      36.143 -18.524 -22.726  0.00  0.00    +0.156 HD
ATOM     17  H   UNL     1      36.079 -18.775 -24.410  0.00  0.00    +0.156 HD
ENDBRANCH   1   8
BRANCH   1  18
ATOM     18  N   UNL     1      32.147 -10.832 -22.650  0.00  0.00    -0.280 N 
ATOM     19  C   UNL     1      33.185 -10.338 -23.479  0.00  0.00    +0.052 C 
ATOM     20  C   UNL     1      31.929 -10.474 -21.295  0.00  0.00    +0.052 C 
ATOM     21  C   UNL     1      33.510  -8.968 -23.555  0.00  0.00    +0.014 C 
ATOM     22  C   UNL     1      31.953  -9.137 -20.850  0.00  0.00    +0.014 C 
ATOM     23  C   UNL     1      32.740  -7.906 -22.899  0.00  0.00    +0.001 C 
ATOM     24  C   UNL     1      32.075  -7.978 -21.742  0.00  0.00    +0.001 C 
ATOM     25  C   UNL     1      33.963 -11.234 -24.253  0.00  0.00    +0.015 C 
ATOM     26  C   UNL     1      31.702 -11.479 -20.324  0.00  0.00    +0.015 C 
ATOM     27  C   UNL     1      34.564  -8.542 -24.390  0.00  0.00    +0.001 C 
ATOM     28  C   UNL     1      31.742  -8.847 -19.486  0.00  0.00    +0.001 C 
ATOM     29  C   UNL     1      35.010 -10.798 -25.066  0.00  0.00    +0.001 C 
ATOM     30  C   UNL     1      31.505 -11.178 -18.975  0.00  0.00    +0.001 C 
ATOM     31  C   UNL     1      35.313  -9.449 -25.133  0.00  0.00    +0.000 C 
ATOM     32  C   UNL     1      31.526  -9.858 -18.555  0.00  0.00    +0.000 C 
ENDBRANCH   1  18
TORSDOF 2
ENDMDL
MODEL 3
REMARK VINA RESULT:     -10.4      9.021     12.200
REMARK  Name = 446744
REMARK  2 active torsions:
REMARK  status: ('A' for Active; 'I' for Inactive)
REMARK    1  A    between atoms: C_1  and  C_8
REMARK    2  A    between atoms: C_1  and  N_18
REMARK                            x       y       z     vdW  Elec       q    Type
REMARK                         _______ _______ _______ _____ _____    ______ ____
ROOT
ATOM      1  C   UNL     1      34.131 -24.194 -13.962  0.00  0.00    +0.152 C 
ENDROOT
BRANCH   1   8
ATOM      2  N   UNL     1      36.467 -24.531 -13.405  0.00  0.00    -0.392 NA
ATOM      3  N   UNL     1      36.757 -26.415 -15.410  0.00  0.00    -0.200 NA
ATOM      4  N   UNL     1      38.983 -26.701 -14.839  0.00  0.00    -0.271 NA
ATOM      5  N   UNL     1      39.965 -25.454 -13.041  0.00  0.00    -0.310 NA
ATOM      6  N   UNL     1      38.645 -23.911 -11.833  0.00  0.00    -0.329 N 
ATOM      7  N   UNL     1      41.239 -26.993 -14.262  0.00  0.00    -0.283 N 
ATOM      8  C   UNL     1      35.443 -24.870 -14.197  0.00  0.00    +0.133 C 
ATOM      9  C   UNL     1      35.581 -25.799 -15.187  0.00  0.00    +0.193 C 
ATOM     10  C   UNL     1      37.643 -25.148 -13.629  0.00  0.00    +0.248 C 
ATOM     11  C   UNL     1      37.804 -26.101 -14.636  0.00  0.00    +0.131 C 
ATOM     12  C   UNL     1      38.763 -24.874 -12.870  0.00  0.00    +0.231 C 
ATOM     13  C   UNL     1      40.004 -26.350 -14.034  0.00  0.00    +0.207 C 
ATOM     14  H   UNL     1      39.425 -23.693 -11.273  0.00  0.00    +0.145 HD
ATOM     15  H   UNL     1      37.784 -23.462 -11.674  0.00  0.00    +0.145 HD
ATOM     16  H   UNL     1      41.322 -27.660 -14.981  0.00  0.00    +0.156 HD
ATOM     17  H   UNL     1      42.019 -26.773 -13.703  0.00  0.00    +0.156 HD
ENDBRANCH   1   8
BRANCH   1  18
ATOM     18  N   UNL     1      33.747 -23.449 -15.169  0.00  0.00    -0.280 N 
ATOM     19  C   UNL     1      34.801 -22.850 -15.903  0.00  0.00    +0.052 C 
ATOM     20  C   UNL     1      32.365 -23.168 -15.325  0.00  0.00    +0.052 C 
ATOM     21  C   UNL     1      34.761 -22.699 -17.305  0.00  0.00    +0.014 C 
ATOM     22  C   UNL     1      31.744 -23.093 -16.587  0.00  0.00    +0.014 C 
ATOM     23  C   UNL     1      33.704 -23.252 -18.158  0.00  0.00    +0.001 C 
ATOM     24  C   UNL     1      32.413 -23.420 -17.852  0.00  0.00    +0.001 C 
ATOM     25  C   UNL     1      35.941 -22.348 -15.228  0.00  0.00    +0.015 C 
ATOM     26  C   UNL     1      31.559 -22.921 -14.187  0.00  0.00    +0.015 C 
ATOM     27  C   UNL     1      35.836 -22.081 -17.976  0.00  0.00    +0.001 C 
ATOM     28  C   UNL     1      30.368 -22.796 -16.676  0.00  0.00    +0.001 C 
ATOM     29  C   UNL     1      36.993 -21.730 -15.905  0.00  0.00    +0.001 C 
ATOM     30  C   UNL     1      30.201 -22.617 -14.291  0.00  0.00    +0.001 C 
ATOM     31  C   UNL     1      36.940 -21.594 -17.282  0.00  0.00    +0.000 C 
ATOM     32  C   UNL     1      29.604 -22.553 -15.539  0.00  0.00    +0.000 C 
ENDBRANCH   1  18
TORSDOF 2
ENDMDL
MODEL 4
REMARK VINA RESULT:     -10.4      3.554      7.601
REMARK  Name = 446744
REMARK  2 active torsions:
REMARK  status: ('A' for Active; 'I' for Inactive)
REMARK    1  A    between atoms: C_1  and  C_8
REMARK    2  A    between atoms: C_1  and  N_18
REMARK                            x       y       z     vdW  Elec       q    Type
REMARK                         _______ _______ _______ _____ _____    ______ ____
ROOT
ATOM      1  C   UNL     1      31.482 -12.167 -23.427  0.00  0.00    +0.152 C 
ENDROOT
BRANCH   1   8
ATOM      2  N   UNL     1      32.897 -13.868 -22.434  0.00  0.00    -0.392 NA
ATOM      3  N   UNL     1      33.563 -14.880 -24.922  0.00  0.00    -0.200 NA
ATOM      4  N   UNL     1      34.902 -16.486 -23.927  0.00  0.00    -0.271 NA
ATOM      5  N   UNL     1      35.127 -16.598 -21.542  0.00  0.00    -0.310 NA
ATOM      6  N   UNL     1      33.968 -15.049 -20.185  0.00  0.00    -0.329 N 
ATOM      7  N   UNL     1      36.259 -18.114 -22.920  0.00  0.00    -0.283 N 
ATOM      8  C   UNL     1      32.406 -13.334 -23.559  0.00  0.00    +0.133 C 
ATOM      9  C   UNL     1      32.732 -13.830 -24.788  0.00  0.00    +0.193 C 
ATOM     10  C   UNL     1      33.728 -14.919 -22.570  0.00  0.00    +0.248 C 
ATOM     11  C   UNL     1      34.073 -15.440 -23.818  0.00  0.00    +0.131 C 
ATOM     12  C   UNL     1      34.291 -15.546 -21.475  0.00  0.00    +0.231 C 
ATOM     13  C   UNL     1      35.387 -17.013 -22.786  0.00  0.00    +0.207 C 
ATOM     14  H   UNL     1      34.352 -15.474 -19.384  0.00  0.00    +0.145 HD
ATOM     15  H   UNL     1      33.360 -14.281 -20.091  0.00  0.00    +0.145 HD
ATOM     16  H   UNL     1      36.484 -18.459 -23.814  0.00  0.00    +0.156 HD
ATOM     17  H   UNL     1      36.643 -18.538 -22.118  0.00  0.00    +0.156 HD
ENDBRANCH   1   8
BRANCH   1  18
ATOM     18  N   UNL     1      32.213 -11.036 -22.839  0.00  0.00    -0.280 N 
ATOM     19  C   UNL     1      33.250 -10.477 -23.627  0.00  0.00    +0.052 C 
ATOM     20  C   UNL     1      32.005 -10.799 -21.456  0.00  0.00    +0.052 C 
ATOM     21  C   UNL     1      33.584  -9.107 -23.582  0.00  0.00    +0.014 C 
ATOM     22  C   UNL     1      32.041  -9.508 -20.893  0.00  0.00    +0.014 C 
ATOM     23  C   UNL     1      32.826  -8.104 -22.828  0.00  0.00    +0.001 C 
ATOM     24  C   UNL     1      32.167  -8.274 -21.678  0.00  0.00    +0.001 C 
ATOM     25  C   UNL     1      34.017 -11.305 -24.482  0.00  0.00    +0.015 C 
ATOM     26  C   UNL     1      31.776 -11.885 -20.577  0.00  0.00    +0.015 C 
ATOM     27  C   UNL     1      34.637  -8.615 -24.381  0.00  0.00    +0.001 C 
ATOM     28  C   UNL     1      31.840  -9.340 -19.507  0.00  0.00    +0.001 C 
ATOM     29  C   UNL     1      35.063 -10.805 -25.259  0.00  0.00    +0.001 C 
ATOM     30  C   UNL     1      31.589 -11.705 -19.206  0.00  0.00    +0.001 C 
ATOM     31  C   UNL     1      35.375  -9.457 -25.207  0.00  0.00    +0.000 C 
ATOM     32  C   UNL     1      31.622 -10.429 -18.669  0.00  0.00    +0.000 C 
ENDBRANCH   1  18
TORSDOF 2
ENDMDL
MODEL 5
REMARK VINA RESULT:     -10.1      4.330      7.613
REMARK  Name = 446744
REMARK  2 active torsions:
REMARK  status: ('A' for Active; 'I' for Inactive)
REMARK    1  A    between atoms: C_1  and  C_8
REMARK    2  A    between atoms: C_1  and  N_18
REMARK                            x       y       z     vdW  Elec       q    Type
REMARK                         _______ _______ _______ _____ _____    ______ ____
ROOT
ATOM      1  C   UNL     1      33.635 -23.705 -18.245  0.00  0.00    +0.152 C 
ENDROOT
BRANCH   1   8
ATOM      2  N   UNL     1      34.925 -21.982 -19.361  0.00  0.00    -0.392 NA
ATOM      3  N   UNL     1      32.650 -20.487 -19.857  0.00  0.00    -0.200 NA
ATOM      4  N   UNL     1      33.926 -18.868 -20.914  0.00  0.00    -0.271 NA
ATOM      5  N   UNL     1      36.304 -19.109 -21.113  0.00  0.00    -0.310 NA
ATOM      6  N   UNL     1      37.363 -21.023 -20.220  0.00  0.00    -0.329 N 
ATOM      7  N   UNL     1      35.217 -17.228 -21.985  0.00  0.00    -0.283 N 
ATOM      8  C   UNL     1      33.716 -22.399 -18.966  0.00  0.00    +0.133 C 
ATOM      9  C   UNL     1      32.592 -21.665 -19.209  0.00  0.00    +0.193 C 
ATOM     10  C   UNL     1      34.983 -20.802 -20.009  0.00  0.00    +0.248 C 
ATOM     11  C   UNL     1      33.843 -20.038 -20.267  0.00  0.00    +0.131 C 
ATOM     12  C   UNL     1      36.178 -20.279 -20.460  0.00  0.00    +0.231 C 
ATOM     13  C   UNL     1      35.149 -18.462 -21.305  0.00  0.00    +0.207 C 
ATOM     14  H   UNL     1      38.232 -20.678 -20.530  0.00  0.00    +0.145 HD
ATOM     15  H   UNL     1      37.316 -21.884 -19.746  0.00  0.00    +0.145 HD
ATOM     16  H   UNL     1      34.397 -16.711 -22.152  0.00  0.00    +0.156 HD
ATOM     17  H   UNL     1      36.087 -16.883 -22.293  0.00  0.00    +0.156 HD
ENDBRANCH   1   8
BRANCH   1  18
ATOM     18  N   UNL     1      33.655 -23.460 -16.796  0.00  0.00    -0.280 N 
ATOM     19  C   UNL     1      32.396 -23.301 -16.165  0.00  0.00    +0.052 C 
ATOM     20  C   UNL     1      34.913 -23.129 -16.229  0.00  0.00    +0.052 C 
ATOM     21  C   UNL     1      32.155 -23.709 -14.837  0.00  0.00    +0.014 C 
ATOM     22  C   UNL     1      35.273 -23.496 -14.917  0.00  0.00    +0.014 C 
ATOM     23  C   UNL     1      33.123 -24.446 -14.018  0.00  0.00    +0.001 C 
ATOM     24  C   UNL     1      34.457 -24.355 -14.051  0.00  0.00    +0.001 C 
ATOM     25  C   UNL     1      31.325 -22.689 -16.861  0.00  0.00    +0.015 C 
ATOM     26  C   UNL     1      35.853 -22.379 -16.976  0.00  0.00    +0.015 C 
ATOM     27  C   UNL     1      30.883 -23.511 -14.261  0.00  0.00    +0.001 C 
ATOM     28  C   UNL     1      36.534 -23.125 -14.405  0.00  0.00    +0.001 C 
ATOM     29  C   UNL     1      30.074 -22.490 -16.275  0.00  0.00    +0.001 C 
ATOM     30  C   UNL     1      37.093 -22.010 -16.454  0.00  0.00    +0.001 C 
ATOM     31  C   UNL     1      29.853 -22.901 -14.971  0.00  0.00    +0.000 C 
ATOM     32  C   UNL     1      37.434 -22.383 -15.164  0.00  0.00    +0.000 C 
ENDBRANCH   1  18
TORSDOF 2
ENDMDL
MODEL 6
REMARK VINA RESULT:      -9.6      2.294      6.744
REMARK  Name = 446744
REMARK  2 active torsions:
REMARK  status: ('A' for Active; 'I' for Inactive)
REMARK    1  A    between atoms: C_1  and  C_8
REMARK    2  A    between atoms: C_1  and  N_18
REMARK                            x       y       z     vdW  Elec       q    Type
REMARK                         _______ _______ _______ _____ _____    ______ ____
ROOT
ATOM      1  C   UNL     1      34.659 -14.212 -21.726  0.00  0.00    +0.152 C 
ENDROOT
BRANCH   1   8
ATOM      2  N   UNL     1      34.898 -16.603 -21.398  0.00  0.00    -0.392 NA
ATOM      3  N   UNL     1      32.203 -16.877 -20.835  0.00  0.00    -0.200 NA
ATOM      4  N   UNL     1      32.482 -19.155 -20.533  0.00  0.00    -0.271 NA
ATOM      5  N   UNL     1      34.636 -20.178 -20.788  0.00  0.00    -0.310 NA
ATOM      6  N   UNL     1      36.502 -18.845 -21.356  0.00  0.00    -0.329 N 
ATOM      7  N   UNL     1      32.763 -21.465 -20.225  0.00  0.00    -0.283 N 
ATOM      8  C   UNL     1      34.073 -15.549 -21.403  0.00  0.00    +0.133 C 
ATOM      9  C   UNL     1      32.744 -15.679 -21.127  0.00  0.00    +0.193 C 
ATOM     10  C   UNL     1      34.356 -17.801 -21.106  0.00  0.00    +0.248 C 
ATOM     11  C   UNL     1      32.998 -17.954 -20.820  0.00  0.00    +0.131 C 
ATOM     12  C   UNL     1      35.116 -18.953 -21.071  0.00  0.00    +0.231 C 
ATOM     13  C   UNL     1      33.324 -20.206 -20.530  0.00  0.00    +0.207 C 
ATOM     14  H   UNL     1      37.072 -19.647 -21.339  0.00  0.00    +0.145 HD
ATOM     15  H   UNL     1      36.894 -17.967 -21.569  0.00  0.00    +0.145 HD
ATOM     16  H   UNL     1      31.802 -21.541 -20.028  0.00  0.00    +0.156 HD
ATOM     17  H   UNL     1      33.334 -22.267 -20.210  0.00  0.00    +0.156 HD
ENDBRANCH   1   8
BRANCH   1  18
ATOM     18  N   UNL     1      33.749 -13.488 -22.624  0.00  0.00    -0.280 N 
ATOM     19  C   UNL     1      32.878 -12.549 -22.017  0.00  0.00    +0.052 C 
ATOM     20  C   UNL     1      33.633 -13.992 -23.945  0.00  0.00    +0.052 C 
ATOM     21  C   UNL     1      32.459 -11.371 -22.669  0.00  0.00    +0.014 C 
ATOM     22  C   UNL     1      33.394 -13.159 -25.056  0.00  0.00    +0.014 C 
ATOM     23  C   UNL     1      32.970 -10.929 -23.971  0.00  0.00    +0.001 C 
ATOM     24  C   UNL     1      33.369 -11.693 -24.993  0.00  0.00    +0.001 C 
ATOM     25  C   UNL     1      32.371 -12.788 -20.717  0.00  0.00    +0.015 C 
ATOM     26  C   UNL     1      33.729 -15.385 -24.184  0.00  0.00    +0.015 C 
ATOM     27  C   UNL     1      31.580 -10.482 -22.016  0.00  0.00    +0.001 C 
ATOM     28  C   UNL     1      33.275 -13.723 -26.344  0.00  0.00    +0.001 C 
ATOM     29  C   UNL     1      31.493 -11.904 -20.088  0.00  0.00    +0.001 C 
ATOM     30  C   UNL     1      33.598 -15.930 -25.463  0.00  0.00    +0.001 C 
ATOM     31  C   UNL     1      31.095 -10.749 -20.740  0.00  0.00    +0.000 C 
ATOM     32  C   UNL     1      33.369 -15.097 -26.545  0.00  0.00    +0.000 C 
ENDBRANCH   1  18
TORSDOF 2
ENDMDL
MODEL 7
REMARK VINA RESULT:      -9.5      3.172      7.636
REMARK  Name = 446744
REMARK  2 active torsions:
REMARK  status: ('A' for Active; 'I' for Inactive)
REMARK    1  A    between atoms: C_1  and  C_8
REMARK    2  A    between atoms: C_1  and  N_18
REMARK                            x       y       z     vdW  Elec       q    Type
REMARK                         _______ _______ _______ _____ _____    ______ ____
ROOT
ATOM      1  C   UNL     1      32.026 -12.409 -22.854  0.00  0.00    +0.152 C 
ENDROOT
BRANCH   1   8
ATOM      2  N   UNL     1      33.219 -14.438 -23.436  0.00  0.00    -0.392 NA
ATOM      3  N   UNL     1      34.210 -14.689 -20.864  0.00  0.00    -0.200 NA
ATOM      4  N   UNL     1      35.331 -16.623 -21.469  0.00  0.00    -0.271 NA
ATOM      5  N   UNL     1      35.197 -17.477 -23.706  0.00  0.00    -0.310 NA
ATOM      6  N   UNL     1      33.905 -16.331 -25.319  0.00  0.00    -0.329 N 
ATOM      7  N   UNL     1      36.468 -18.583 -22.080  0.00  0.00    -0.283 N 
ATOM      8  C   UNL     1      32.919 -13.548 -22.482  0.00  0.00    +0.133 C 
ATOM      9  C   UNL     1      33.405 -13.667 -21.213  0.00  0.00    +0.193 C 
ATOM     10  C   UNL     1      34.024 -15.459 -23.086  0.00  0.00    +0.248 C 
ATOM     11  C   UNL     1      34.532 -15.598 -21.793  0.00  0.00    +0.131 C 
ATOM     12  C   UNL     1      34.397 -16.433 -23.991  0.00  0.00    +0.231 C 
ATOM     13  C   UNL     1      35.624 -17.510 -22.439  0.00  0.00    +0.207 C 
ATOM     14  H   UNL     1      34.152 -17.008 -25.989  0.00  0.00    +0.145 HD
ATOM     15  H   UNL     1      33.316 -15.583 -25.569  0.00  0.00    +0.145 HD
ATOM     16  H   UNL     1      36.809 -18.654 -21.160  0.00  0.00    +0.156 HD
ATOM     17  H   UNL     1      36.714 -19.260 -22.751  0.00  0.00    +0.156 HD
ENDBRANCH   1   8
BRANCH   1  18
ATOM     18  N   UNL     1      32.756 -11.490 -23.739  0.00  0.00    -0.280 N 
ATOM     19  C   UNL     1      32.750 -10.122 -23.372  0.00  0.00    +0.052 C 
ATOM     20  C   UNL     1      33.148 -12.008 -25.000  0.00  0.00    +0.052 C 
ATOM     21  C   UNL     1      33.833  -9.259 -23.640  0.00  0.00    +0.014 C 
ATOM     22  C   UNL     1      34.325 -11.596 -25.657  0.00  0.00    +0.014 C 
ATOM     23  C   UNL     1      35.114  -9.702 -24.200  0.00  0.00    +0.001 C 
ATOM     24  C   UNL     1      35.325 -10.700 -25.063  0.00  0.00    +0.001 C 
ATOM     25  C   UNL     1      31.616  -9.562 -22.734  0.00  0.00    +0.015 C 
ATOM     26  C   UNL     1      32.332 -12.956 -25.663  0.00  0.00    +0.015 C 
ATOM     27  C   UNL     1      33.760  -7.902 -23.261  0.00  0.00    +0.001 C 
ATOM     28  C   UNL     1      34.653 -12.138 -26.917  0.00  0.00    +0.001 C 
ATOM     29  C   UNL     1      31.554  -8.215 -22.374  0.00  0.00    +0.001 C 
ATOM     30  C   UNL     1      32.663 -13.476 -26.915  0.00  0.00    +0.001 C 
ATOM     31  C   UNL     1      32.628  -7.383 -22.640  0.00  0.00    +0.000 C 
ATOM     32  C   UNL     1      33.826 -13.065 -27.544  0.00  0.00    +0.000 C 
ENDBRANCH   1  18
TORSDOF 2
ENDMDL
MODEL 8
REMARK VINA RESULT:      -9.4      2.434      6.413
REMARK  Name = 446744
REMARK  2 active torsions:
REMARK  status: ('A' for Active; 'I' for Inactive)
REMARK    1  A    between atoms: C_1  and  C_8
REMARK    2  A    between atoms: C_1  and  N_18
REMARK                            x       y       z     vdW  Elec       q    Type
REMARK                         _______ _______ _______ _____ _____    ______ ____
ROOT
ATOM      1  C   UNL     1      36.164 -17.268 -21.614  0.00  0.00    +0.152 C 
ENDROOT
BRANCH   1   8
ATOM      2  N   UNL     1      34.626 -18.958 -20.804  0.00  0.00    -0.392 NA
ATOM      3  N   UNL     1      36.713 -20.616 -20.061  0.00  0.00    -0.200 NA
ATOM      4  N   UNL     1      35.205 -22.200 -19.301  0.00  0.00    -0.271 NA
ATOM      5  N   UNL     1      32.841 -21.819 -19.444  0.00  0.00    -0.310 NA
ATOM      6  N   UNL     1      32.037 -19.801 -20.373  0.00  0.00    -0.329 N 
ATOM      7  N   UNL     1      33.677 -23.806 -18.530  0.00  0.00    -0.283 N 
ATOM      8  C   UNL     1      35.903 -18.600 -20.989  0.00  0.00    +0.133 C 
ATOM      9  C   UNL     1      36.935 -19.414 -20.625  0.00  0.00    +0.193 C 
ATOM     10  C   UNL     1      34.406 -20.161 -20.239  0.00  0.00    +0.248 C 
ATOM     11  C   UNL     1      35.449 -21.008 -19.860  0.00  0.00    +0.131 C 
ATOM     12  C   UNL     1      33.129 -20.630 -20.003  0.00  0.00    +0.231 C 
ATOM     13  C   UNL     1      33.916 -22.547 -19.121  0.00  0.00    +0.207 C 
ATOM     14  H   UNL     1      31.114 -20.106 -20.219  0.00  0.00    +0.145 HD
ATOM     15  H   UNL     1      32.203 -18.923 -20.785  0.00  0.00    +0.145 HD
ATOM     16  H   UNL     1      34.433 -24.381 -18.273  0.00  0.00    +0.156 HD
ATOM     17  H   UNL     1      32.753 -24.110 -18.375  0.00  0.00    +0.156 HD
ENDBRANCH   1   8
BRANCH   1  18
ATOM     18  N   UNL     1      35.042 -16.919 -22.497  0.00  0.00    -0.280 N 
ATOM     19  C   UNL     1      34.149 -15.928 -22.020  0.00  0.00    +0.052 C 
ATOM     20  C   UNL     1      34.806 -17.789 -23.591  0.00  0.00    +0.052 C 
ATOM     21  C   UNL     1      33.481 -15.030 -22.879  0.00  0.00    +0.014 C 
ATOM     22  C   UNL     1      34.297 -17.337 -24.825  0.00  0.00    +0.014 C 
ATOM     23  C   UNL     1      33.732 -14.937 -24.321  0.00  0.00    +0.001 C 
ATOM     24  C   UNL     1      34.080 -15.923 -25.154  0.00  0.00    +0.001 C 
ATOM     25  C   UNL     1      33.873 -15.827 -20.635  0.00  0.00    +0.015 C 
ATOM     26  C   UNL     1      35.056 -19.177 -23.461  0.00  0.00    +0.015 C 
ATOM     27  C   UNL     1      32.593 -14.075 -22.344  0.00  0.00    +0.001 C 
ATOM     28  C   UNL     1      34.070 -18.256 -25.871  0.00  0.00    +0.001 C 
ATOM     29  C   UNL     1      32.983 -14.883 -20.121  0.00  0.00    +0.001 C 
ATOM     30  C   UNL     1      34.817 -20.077 -24.501  0.00  0.00    +0.001 C 
ATOM     31  C   UNL     1      32.340 -14.006 -20.977  0.00  0.00    +0.000 C 
ATOM     32  C   UNL     1      34.322 -19.615 -25.709  0.00  0.00    +0.000 C 
ENDBRANCH   1  18
TORSDOF 2
ENDMDL
MODEL 9
REMARK VINA RESULT:      -9.2      5.947      9.889
REMARK  Name = 446744
REMARK  2 active torsions:
REMARK  status: ('A' for Active; 'I' for Inactive)
REMARK    1  A    between atoms: C_1  and  C_8
REMARK    2  A    between atoms: C_1  and  N_18
REMARK                            x       y       z     vdW  Elec       q    Type
REMARK                         _______ _______ _______ _____ _____    ______ ____
ROOT
ATOM      1  C   UNL     1      35.032  -8.364 -23.612  0.00  0.00    +0.152 C 
ENDROOT
BRANCH   1   8
ATOM      2  N   UNL     1      33.924 -10.520 -23.655  0.00  0.00    -0.392 NA
ATOM      3  N   UNL     1      34.736 -10.977 -26.260  0.00  0.00    -0.200 NA
ATOM      4  N   UNL     1      33.662 -13.028 -26.251  0.00  0.00    -0.271 NA
ATOM      5  N   UNL     1      32.479 -13.792 -24.309  0.00  0.00    -0.310 NA
ATOM      6  N   UNL     1      32.408 -12.435 -22.376  0.00  0.00    -0.329 N 
ATOM      7  N   UNL     1      32.573 -15.107 -26.244  0.00  0.00    -0.283 N 
ATOM      8  C   UNL     1      34.661  -9.625 -24.323  0.00  0.00    +0.133 C 
ATOM      9  C   UNL     1      35.063  -9.846 -25.608  0.00  0.00    +0.193 C 
ATOM     10  C   UNL     1      33.597 -11.651 -24.308  0.00  0.00    +0.248 C 
ATOM     11  C   UNL     1      33.999 -11.896 -25.622  0.00  0.00    +0.131 C 
ATOM     12  C   UNL     1      32.840 -12.641 -23.713  0.00  0.00    +0.231 C 
ATOM     13  C   UNL     1      32.920 -13.919 -25.566  0.00  0.00    +0.207 C 
ATOM     14  H   UNL     1      31.866 -13.121 -21.923  0.00  0.00    +0.145 HD
ATOM     15  H   UNL     1      32.650 -11.607 -21.903  0.00  0.00    +0.145 HD
ATOM     16  H   UNL     1      32.872 -15.251 -27.170  0.00  0.00    +0.156 HD
ATOM     17  H   UNL     1      32.032 -15.793 -25.789  0.00  0.00    +0.156 HD
ENDBRANCH   1   8
BRANCH   1  18
ATOM     18  N   UNL     1      33.898  -7.431 -23.656  0.00  0.00    -0.280 N 
ATOM     19  C   UNL     1      33.825  -6.578 -24.786  0.00  0.00    +0.052 C 
ATOM     20  C   UNL     1      33.158  -7.279 -22.455  0.00  0.00    +0.052 C 
ATOM     21  C   UNL     1      32.599  -6.143 -25.331  0.00  0.00    +0.014 C 
ATOM     22  C   UNL     1      31.775  -7.012 -22.444  0.00  0.00    +0.014 C 
ATOM     23  C   UNL     1      31.287  -6.620 -24.881  0.00  0.00    +0.001 C 
ATOM     24  C   UNL     1      30.934  -6.991 -23.646  0.00  0.00    +0.001 C 
ATOM     25  C   UNL     1      35.012  -6.105 -25.396  0.00  0.00    +0.015 C 
ATOM     26  C   UNL     1      33.814  -7.367 -21.203  0.00  0.00    +0.015 C 
ATOM     27  C   UNL     1      32.594  -5.283 -26.449  0.00  0.00    +0.001 C 
ATOM     28  C   UNL     1      31.099  -6.858 -21.215  0.00  0.00    +0.001 C 
ATOM     29  C   UNL     1      34.991  -5.245 -26.495  0.00  0.00    +0.001 C 
ATOM     30  C   UNL     1      33.134  -7.201 -19.995  0.00  0.00    +0.001 C 
ATOM     31  C   UNL     1      33.779  -4.832 -27.022  0.00  0.00    +0.000 C 
ATOM     32  C   UNL     1      31.773  -6.945 -20.001  0.00  0.00    +0.000 C 
ENDBRANCH   1  18
TORSDOF 2
ENDMDL
