MODEL 1
REMARK VINA RESULT:      -6.6      0.000      0.000
REMARK  Name = 448220
REMARK  8 active torsions:
REMARK  status: ('A' for Active; 'I' for Inactive)
REMARK    1  A    between atoms: C_1  and  C_3
REMARK    2  A    between atoms: C_1  and  O_8
REMARK    3  A    between atoms: C_1  and  O_10
REMARK    4  A    between atoms: C_1  and  C_12
REMARK    5  A    between atoms: C_12  and  N_13
REMARK    6  A    between atoms: C_12  and  C_17
REMARK    7  A    between atoms: C_17  and  C_18
REMARK    8  A    between atoms: C_18  and  S_19
REMARK                            x       y       z     vdW  Elec       q    Type
REMARK                         _______ _______ _______ _____ _____    ______ ____
ROOT
ATOM      1  C   UNL     1      35.108 -18.364 -22.401  0.00  0.00    +0.198 C 
ENDROOT
BRANCH   1   3
ATOM      2  N   UNL     1      35.870 -19.984 -20.771  0.00  0.00    -0.243 NA
ATOM      3  C   UNL     1      34.801 -19.442 -21.364  0.00  0.00    +0.107 C 
ATOM      4  C   UNL     1      33.490 -19.758 -21.132  0.00  0.00    +0.019 C 
ATOM      5  C   UNL     1      33.245 -20.744 -20.183  0.00  0.00    +0.003 C 
ATOM      6  C   UNL     1      35.592 -20.938 -19.855  0.00  0.00    +0.099 C 
ATOM      7  C   UNL     1      34.311 -21.350 -19.527  0.00  0.00    +0.021 C 
ENDBRANCH   1   3
BRANCH   1   8
ATOM      8  O   UNL     1      34.481 -18.823 -23.606  0.00  0.00    -0.361 OA
ATOM      9  H   UNL     1      34.113 -19.685 -23.644  0.00  0.00    +0.213 HD
ENDBRANCH   1   8
BRANCH   1  10
ATOM     10  O   UNL     1      36.515 -18.289 -22.633  0.00  0.00    -0.361 OA
ATOM     11  H   UNL     1      37.070 -18.996 -22.372  0.00  0.00    +0.213 HD
ENDBRANCH   1  10
BRANCH   1  12
ATOM     12  C   UNL     1      34.539 -16.970 -21.988  0.00  0.00    -0.007 C 
BRANCH  12  13
ATOM     13  N   UNL     1      34.992 -16.629 -20.632  0.00  0.00    +0.385 N 
ATOM     14  H   UNL     1      35.110 -17.484 -20.089  0.00  0.00    -0.089 HD
ATOM     15  H   UNL     1      34.298 -16.033 -20.181  0.00  0.00    -0.089 HD
ATOM     16  H   UNL     1      35.883 -16.135 -20.685  0.00  0.00    -0.089 HD
ENDBRANCH  12  13
BRANCH  12  17
ATOM     17  C   UNL     1      34.837 -15.796 -22.958  0.00  0.00    -0.005 C 
BRANCH  17  18
ATOM     18  C   UNL     1      33.710 -15.228 -23.827  0.00  0.00    +0.056 C 
BRANCH  18  19
ATOM     19  S   UNL     1      33.267 -13.505 -23.467  0.00  0.00    -0.139 S 
ATOM     20  C   UNL     1      32.404 -13.778 -21.903  0.00  0.00    +0.069 C 
ENDBRANCH  18  19
ENDBRANCH  17  18
ENDBRANCH  12  17
ENDBRANCH   1  12
TORSDOF 8
ENDMDL
MODEL 2
REMARK VINA RESULT:      -6.4      1.892      2.189
REMARK  Name = 448220
REMARK  8 active torsions:
REMARK  status: ('A' for Active; 'I' for Inactive)
REMARK    1  A    between atoms: C_1  and  C_3
REMARK    2  A    between atoms: C_1  and  O_8
REMARK    3  A    between atoms: C_1  and  O_10
REMARK    4  A    between atoms: C_1  and  C_12
REMARK    5  A    between atoms: C_12  and  N_13
REMARK    6  A    between atoms: C_12  and  C_17
REMARK    7  A    between atoms: C_17  and  C_18
REMARK    8  A    between atoms: C_18  and  S_19
REMARK                            x       y       z     vdW  Elec       q    Type
REMARK                         _______ _______ _______ _____ _____    ______ ____
ROOT
ATOM      1  C   UNL     1      34.633 -17.089 -21.408  0.00  0.00    +0.198 C 
ENDROOT
BRANCH   1   3
ATOM      2  N   UNL     1      35.962 -18.971 -20.664  0.00  0.00    -0.243 NA
ATOM      3  C   UNL     1      34.728 -18.541 -20.944  0.00  0.00    +0.107 C 
ATOM      4  C   UNL     1      33.571 -19.266 -20.855  0.00  0.00    +0.019 C 
ATOM      5  C   UNL     1      33.692 -20.584 -20.430  0.00  0.00    +0.003 C 
ATOM      6  C   UNL     1      36.040 -20.257 -20.254  0.00  0.00    +0.099 C 
ATOM      7  C   UNL     1      34.946 -21.097 -20.121  0.00  0.00    +0.021 C 
ENDBRANCH   1   3
BRANCH   1   8
ATOM      8  O   UNL     1      35.229 -16.326 -20.351  0.00  0.00    -0.361 OA
ATOM      9  H   UNL     1      36.150 -16.150 -20.361  0.00  0.00    +0.213 HD
ENDBRANCH   1   8
BRANCH   1  10
ATOM     10  O   UNL     1      33.266 -16.697 -21.524  0.00  0.00    -0.361 OA
ATOM     11  H   UNL     1      33.042 -15.904 -21.971  0.00  0.00    +0.213 HD
ENDBRANCH   1  10
BRANCH   1  12
ATOM     12  C   UNL     1      35.395 -16.848 -22.750  0.00  0.00    -0.007 C 
BRANCH  12  13
ATOM     13  N   UNL     1      35.635 -18.133 -23.423  0.00  0.00    +0.385 N 
ATOM     14  H   UNL     1      35.106 -18.866 -22.953  0.00  0.00    -0.089 HD
ATOM     15  H   UNL     1      36.630 -18.354 -23.389  0.00  0.00    -0.089 HD
ATOM     16  H   UNL     1      35.335 -18.067 -24.396  0.00  0.00    -0.089 HD
ENDBRANCH  12  13
BRANCH  12  17
ATOM     17  C   UNL     1      34.741 -15.845 -23.736  0.00  0.00    -0.005 C 
BRANCH  17  18
ATOM     18  C   UNL     1      34.239 -16.341 -25.097  0.00  0.00    +0.056 C 
BRANCH  18  19
ATOM     19  S   UNL     1      33.205 -15.156 -26.003  0.00  0.00    -0.139 S 
ATOM     20  C   UNL     1      33.062 -13.895 -24.716  0.00  0.00    +0.069 C 
ENDBRANCH  18  19
ENDBRANCH  17  18
ENDBRANCH  12  17
ENDBRANCH   1  12
TORSDOF 8
ENDMDL
MODEL 3
REMARK VINA RESULT:      -6.4      5.734      8.117
REMARK  Name = 448220
REMARK  8 active torsions:
REMARK  status: ('A' for Active; 'I' for Inactive)
REMARK    1  A    between atoms: C_1  and  C_3
REMARK    2  A    between atoms: C_1  and  O_8
REMARK    3  A    between atoms: C_1  and  O_10
REMARK    4  A    between atoms: C_1  and  C_12
REMARK    5  A    between atoms: C_12  and  N_13
REMARK    6  A    between atoms: C_12  and  C_17
REMARK    7  A    between atoms: C_17  and  C_18
REMARK    8  A    between atoms: C_18  and  S_19
REMARK                            x       y       z     vdW  Elec       q    Type
REMARK                         _______ _______ _______ _____ _____    ______ ____
ROOT
ATOM      1  C   UNL     1      33.998 -22.839 -18.235  0.00  0.00    +0.198 C 
ENDROOT
BRANCH   1   3
ATOM      2  N   UNL     1      32.805 -21.143 -19.485  0.00  0.00    -0.243 NA
ATOM      3  C   UNL     1      34.005 -21.668 -19.216  0.00  0.00    +0.107 C 
ATOM      4  C   UNL     1      35.207 -21.263 -19.727  0.00  0.00    +0.019 C 
ATOM      5  C   UNL     1      35.178 -20.196 -20.618  0.00  0.00    +0.003 C 
ATOM      6  C   UNL     1      32.816 -20.108 -20.354  0.00  0.00    +0.099 C 
ATOM      7  C   UNL     1      33.964 -19.601 -20.942  0.00  0.00    +0.021 C 
ENDBRANCH   1   3
BRANCH   1   8
ATOM      8  O   UNL     1      35.325 -22.872 -17.694  0.00  0.00    -0.361 OA
ATOM      9  H   UNL     1      35.834 -23.658 -17.747  0.00  0.00    +0.213 HD
ENDBRANCH   1   8
BRANCH   1  10
ATOM     10  O   UNL     1      33.770 -24.064 -18.930  0.00  0.00    -0.361 OA
ATOM     11  H   UNL     1      33.046 -24.609 -18.693  0.00  0.00    +0.213 HD
ENDBRANCH   1  10
BRANCH   1  12
ATOM     12  C   UNL     1      32.949 -22.646 -17.093  0.00  0.00    -0.007 C 
BRANCH  12  13
ATOM     13  N   UNL     1      31.608 -22.986 -17.588  0.00  0.00    +0.385 N 
ATOM     14  H   UNL     1      31.523 -23.999 -17.670  0.00  0.00    -0.089 HD
ATOM     15  H   UNL     1      31.463 -22.558 -18.502  0.00  0.00    -0.089 HD
ATOM     16  H   UNL     1      30.906 -22.638 -16.935  0.00  0.00    -0.089 HD
ENDBRANCH  12  13
BRANCH  12  17
ATOM     17  C   UNL     1      33.235 -23.401 -15.769  0.00  0.00    -0.005 C 
BRANCH  17  18
ATOM     18  C   UNL     1      32.224 -23.321 -14.620  0.00  0.00    +0.056 C 
BRANCH  18  19
ATOM     19  S   UNL     1      31.793 -24.919 -13.875  0.00  0.00    -0.139 S 
ATOM     20  C   UNL     1      30.232 -25.199 -14.742  0.00  0.00    +0.069 C 
ENDBRANCH  18  19
ENDBRANCH  17  18
ENDBRANCH  12  17
ENDBRANCH   1  12
TORSDOF 8
ENDMDL
MODEL 4
REMARK VINA RESULT:      -6.3      2.704      3.829
REMARK  Name = 448220
REMARK  8 active torsions:
REMARK  status: ('A' for Active; 'I' for Inactive)
REMARK    1  A    between atoms: C_1  and  C_3
REMARK    2  A    between atoms: C_1  and  O_8
REMARK    3  A    between atoms: C_1  and  O_10
REMARK    4  A    between atoms: C_1  and  C_12
REMARK    5  A    between atoms: C_12  and  N_13
REMARK    6  A    between atoms: C_12  and  C_17
REMARK    7  A    between atoms: C_17  and  C_18
REMARK    8  A    between atoms: C_18  and  S_19
REMARK                            x       y       z     vdW  Elec       q    Type
REMARK                         _______ _______ _______ _____ _____    ______ ____
ROOT
ATOM      1  C   UNL     1      34.284 -15.331 -21.707  0.00  0.00    +0.198 C 
ENDROOT
BRANCH   1   3
ATOM      2  N   UNL     1      34.511 -17.742 -21.697  0.00  0.00    -0.243 NA
ATOM      3  C   UNL     1      34.514 -16.641 -22.457  0.00  0.00    +0.107 C 
ATOM      4  C   UNL     1      34.700 -16.585 -23.811  0.00  0.00    +0.019 C 
ATOM      5  C   UNL     1      34.908 -17.795 -24.463  0.00  0.00    +0.003 C 
ATOM      6  C   UNL     1      34.716 -18.898 -22.365  0.00  0.00    +0.099 C 
ATOM      7  C   UNL     1      34.917 -18.978 -23.734  0.00  0.00    +0.021 C 
ENDBRANCH   1   3
BRANCH   1   8
ATOM      8  O   UNL     1      34.912 -14.329 -22.517  0.00  0.00    -0.361 OA
ATOM      9  H   UNL     1      34.855 -14.377 -23.451  0.00  0.00    +0.213 HD
ENDBRANCH   1   8
BRANCH   1  10
ATOM     10  O   UNL     1      34.947 -15.363 -20.443  0.00  0.00    -0.361 OA
ATOM     11  H   UNL     1      35.514 -16.077 -20.230  0.00  0.00    +0.213 HD
ENDBRANCH   1  10
BRANCH   1  12
ATOM     12  C   UNL     1      32.765 -15.013 -21.528  0.00  0.00    -0.007 C 
BRANCH  12  13
ATOM     13  N   UNL     1      32.143 -16.030 -20.667  0.00  0.00    +0.385 N 
ATOM     14  H   UNL     1      32.868 -16.531 -20.155  0.00  0.00    -0.089 HD
ATOM     15  H   UNL     1      31.617 -16.687 -21.243  0.00  0.00    -0.089 HD
ATOM     16  H   UNL     1      31.511 -15.576 -20.007  0.00  0.00    -0.089 HD
ENDBRANCH  12  13
BRANCH  12  17
ATOM     17  C   UNL     1      32.421 -13.593 -21.006  0.00  0.00    -0.005 C 
BRANCH  17  18
ATOM     18  C   UNL     1      31.948 -12.520 -21.992  0.00  0.00    +0.056 C 
BRANCH  18  19
ATOM     19  S   UNL     1      30.930 -11.209 -21.256  0.00  0.00    -0.139 S 
ATOM     20  C   UNL     1      31.571 -11.294 -19.569  0.00  0.00    +0.069 C 
ENDBRANCH  18  19
ENDBRANCH  17  18
ENDBRANCH  12  17
ENDBRANCH   1  12
TORSDOF 8
ENDMDL
MODEL 5
REMARK VINA RESULT:      -6.3      3.953      5.532
REMARK  Name = 448220
REMARK  8 active torsions:
REMARK  status: ('A' for Active; 'I' for Inactive)
REMARK    1  A    between atoms: C_1  and  C_3
REMARK    2  A    between atoms: C_1  and  O_8
REMARK    3  A    between atoms: C_1  and  O_10
REMARK    4  A    between atoms: C_1  and  C_12
REMARK    5  A    between atoms: C_12  and  N_13
REMARK    6  A    between atoms: C_12  and  C_17
REMARK    7  A    between atoms: C_17  and  C_18
REMARK    8  A    between atoms: C_18  and  S_19
REMARK                            x       y       z     vdW  Elec       q    Type
REMARK                         _______ _______ _______ _____ _____    ______ ____
ROOT
ATOM      1  C   UNL     1      33.824 -22.568 -18.724  0.00  0.00    +0.198 C 
ENDROOT
BRANCH   1   3
ATOM      2  N   UNL     1      35.767 -22.513 -17.281  0.00  0.00    -0.243 NA
ATOM      3  C   UNL     1      34.465 -22.809 -17.359  0.00  0.00    +0.107 C 
ATOM      4  C   UNL     1      33.676 -23.295 -16.353  0.00  0.00    +0.019 C 
ATOM      5  C   UNL     1      34.291 -23.505 -15.124  0.00  0.00    +0.003 C 
ATOM      6  C   UNL     1      36.330 -22.729 -16.071  0.00  0.00    +0.099 C 
ATOM      7  C   UNL     1      35.643 -23.217 -14.971  0.00  0.00    +0.021 C 
ENDBRANCH   1   3
BRANCH   1   8
ATOM      8  O   UNL     1      32.431 -22.374 -18.446  0.00  0.00    -0.361 OA
ATOM      9  H   UNL     1      31.867 -22.016 -19.104  0.00  0.00    +0.213 HD
ENDBRANCH   1   8
BRANCH   1  10
ATOM     10  O   UNL     1      33.957 -23.729 -19.544  0.00  0.00    -0.361 OA
ATOM     11  H   UNL     1      33.282 -24.379 -19.548  0.00  0.00    +0.213 HD
ENDBRANCH   1  10
BRANCH   1  12
ATOM     12  C   UNL     1      34.416 -21.313 -19.441  0.00  0.00    -0.007 C 
BRANCH  12  13
ATOM     13  N   UNL     1      35.679 -21.668 -20.103  0.00  0.00    +0.385 N 
ATOM     14  H   UNL     1      35.480 -22.171 -20.966  0.00  0.00    -0.089 HD
ATOM     15  H   UNL     1      36.233 -22.260 -19.483  0.00  0.00    -0.089 HD
ATOM     16  H   UNL     1      36.201 -20.818 -20.317  0.00  0.00    -0.089 HD
ENDBRANCH  12  13
BRANCH  12  17
ATOM     17  C   UNL     1      33.475 -20.591 -20.442  0.00  0.00    -0.005 C 
BRANCH  17  18
ATOM     18  C   UNL     1      33.844 -19.195 -20.953  0.00  0.00    +0.056 C 
BRANCH  18  19
ATOM     19  S   UNL     1      34.652 -19.170 -22.579  0.00  0.00    -0.139 S 
ATOM     20  C   UNL     1      36.206 -18.388 -22.087  0.00  0.00    +0.069 C 
ENDBRANCH  18  19
ENDBRANCH  17  18
ENDBRANCH  12  17
ENDBRANCH   1  12
TORSDOF 8
ENDMDL
MODEL 6
REMARK VINA RESULT:      -6.3      5.095      7.700
REMARK  Name = 448220
REMARK  8 active torsions:
REMARK  status: ('A' for Active; 'I' for Inactive)
REMARK    1  A    between atoms: C_1  and  C_3
REMARK    2  A    between atoms: C_1  and  O_8
REMARK    3  A    between atoms: C_1  and  O_10
REMARK    4  A    between atoms: C_1  and  C_12
REMARK    5  A    between atoms: C_12  and  N_13
REMARK    6  A    between atoms: C_12  and  C_17
REMARK    7  A    between atoms: C_17  and  C_18
REMARK    8  A    between atoms: C_18  and  S_19
REMARK                            x       y       z     vdW  Elec       q    Type
REMARK                         _______ _______ _______ _____ _____    ______ ____
ROOT
ATOM      1  C   UNL     1      34.309 -22.603 -18.811  0.00  0.00    +0.198 C 
ENDROOT
BRANCH   1   3
ATOM      2  N   UNL     1      32.840 -20.976 -19.841  0.00  0.00    -0.243 NA
ATOM      3  C   UNL     1      34.112 -21.343 -19.652  0.00  0.00    +0.107 C 
ATOM      4  C   UNL     1      35.225 -20.707 -20.130  0.00  0.00    +0.019 C 
ATOM      5  C   UNL     1      35.011 -19.564 -20.892  0.00  0.00    +0.003 C 
ATOM      6  C   UNL     1      32.672 -19.861 -20.586  0.00  0.00    +0.099 C 
ATOM      7  C   UNL     1      33.713 -19.126 -21.129  0.00  0.00    +0.021 C 
ENDBRANCH   1   3
BRANCH   1   8
ATOM      8  O   UNL     1      35.712 -22.637 -18.523  0.00  0.00    -0.361 OA
ATOM      9  H   UNL     1      36.056 -22.144 -17.804  0.00  0.00    +0.213 HD
ENDBRANCH   1   8
BRANCH   1  10
ATOM     10  O   UNL     1      33.983 -23.762 -19.577  0.00  0.00    -0.361 OA
ATOM     11  H   UNL     1      33.795 -24.572 -19.145  0.00  0.00    +0.213 HD
ENDBRANCH   1  10
BRANCH   1  12
ATOM     12  C   UNL     1      33.482 -22.563 -17.487  0.00  0.00    -0.007 C 
BRANCH  12  13
ATOM     13  N   UNL     1      32.069 -22.851 -17.774  0.00  0.00    +0.385 N 
ATOM     14  H   UNL     1      31.621 -23.221 -16.936  0.00  0.00    -0.089 HD
ATOM     15  H   UNL     1      32.008 -23.538 -18.525  0.00  0.00    -0.089 HD
ATOM     16  H   UNL     1      31.599 -21.991 -18.060  0.00  0.00    -0.089 HD
ENDBRANCH  12  13
BRANCH  12  17
ATOM     17  C   UNL     1      33.987 -23.476 -16.339  0.00  0.00    -0.005 C 
BRANCH  17  18
ATOM     18  C   UNL     1      34.882 -22.887 -15.243  0.00  0.00    +0.056 C 
BRANCH  18  19
ATOM     19  S   UNL     1      36.521 -23.656 -15.106  0.00  0.00    -0.139 S 
ATOM     20  C   UNL     1      35.992 -25.381 -14.992  0.00  0.00    +0.069 C 
ENDBRANCH  18  19
ENDBRANCH  17  18
ENDBRANCH  12  17
ENDBRANCH   1  12
TORSDOF 8
ENDMDL
MODEL 7
REMARK VINA RESULT:      -6.2      9.634     10.839
REMARK  Name = 448220
REMARK  8 active torsions:
REMARK  status: ('A' for Active; 'I' for Inactive)
REMARK    1  A    between atoms: C_1  and  C_3
REMARK    2  A    between atoms: C_1  and  O_8
REMARK    3  A    between atoms: C_1  and  O_10
REMARK    4  A    between atoms: C_1  and  C_12
REMARK    5  A    between atoms: C_12  and  N_13
REMARK    6  A    between atoms: C_12  and  C_17
REMARK    7  A    between atoms: C_17  and  C_18
REMARK    8  A    between atoms: C_18  and  S_19
REMARK                            x       y       z     vdW  Elec       q    Type
REMARK                         _______ _______ _______ _____ _____    ______ ____
ROOT
ATOM      1  C   UNL     1      32.608 -24.038 -13.883  0.00  0.00    +0.198 C 
ENDROOT
BRANCH   1   3
ATOM      2  N   UNL     1      31.205 -23.031 -15.581  0.00  0.00    -0.243 NA
ATOM      3  C   UNL     1      31.293 -23.996 -14.659  0.00  0.00    +0.107 C 
ATOM      4  C   UNL     1      30.336 -24.926 -14.357  0.00  0.00    +0.019 C 
ATOM      5  C   UNL     1      29.151 -24.859 -15.081  0.00  0.00    +0.003 C 
ATOM      6  C   UNL     1      30.040 -22.998 -16.265  0.00  0.00    +0.099 C 
ATOM      7  C   UNL     1      28.993 -23.881 -16.056  0.00  0.00    +0.021 C 
ENDBRANCH   1   3
BRANCH   1   8
ATOM      8  O   UNL     1      32.583 -25.291 -13.187  0.00  0.00    -0.361 OA
ATOM      9  H   UNL     1      32.124 -25.366 -12.373  0.00  0.00    +0.213 HD
ENDBRANCH   1   8
BRANCH   1  10
ATOM     10  O   UNL     1      32.641 -22.991 -12.914  0.00  0.00    -0.361 OA
ATOM     11  H   UNL     1      33.345 -22.372 -12.917  0.00  0.00    +0.213 HD
ENDBRANCH   1  10
BRANCH   1  12
ATOM     12  C   UNL     1      33.851 -23.963 -14.825  0.00  0.00    -0.007 C 
BRANCH  12  13
ATOM     13  N   UNL     1      34.385 -22.593 -14.834  0.00  0.00    +0.385 N 
ATOM     14  H   UNL     1      35.385 -22.617 -14.639  0.00  0.00    -0.089 HD
ATOM     15  H   UNL     1      33.912 -22.039 -14.121  0.00  0.00    -0.089 HD
ATOM     16  H   UNL     1      34.228 -22.174 -15.751  0.00  0.00    -0.089 HD
ENDBRANCH  12  13
BRANCH  12  17
ATOM     17  C   UNL     1      34.990 -24.975 -14.534  0.00  0.00    -0.005 C 
BRANCH  17  18
ATOM     18  C   UNL     1      36.217 -24.524 -13.733  0.00  0.00    +0.056 C 
BRANCH  18  19
ATOM     19  S   UNL     1      35.962 -24.440 -11.938  0.00  0.00    -0.139 S 
ATOM     20  C   UNL     1      37.016 -23.013 -11.590  0.00  0.00    +0.069 C 
ENDBRANCH  18  19
ENDBRANCH  17  18
ENDBRANCH  12  17
ENDBRANCH   1  12
TORSDOF 8
ENDMDL
MODEL 8
REMARK VINA RESULT:      -6.0      3.031      3.938
REMARK  Name = 448220
REMARK  8 active torsions:
REMARK  status: ('A' for Active; 'I' for Inactive)
REMARK    1  A    between atoms: C_1  and  C_3
REMARK    2  A    between atoms: C_1  and  O_8
REMARK    3  A    between atoms: C_1  and  O_10
REMARK    4  A    between atoms: C_1  and  C_12
REMARK    5  A    between atoms: C_12  and  N_13
REMARK    6  A    between atoms: C_12  and  C_17
REMARK    7  A    between atoms: C_17  and  C_18
REMARK    8  A    between atoms: C_18  and  S_19
REMARK                            x       y       z     vdW  Elec       q    Type
REMARK                         _______ _______ _______ _____ _____    ______ ____
ROOT
ATOM      1  C   UNL     1      34.309 -15.279 -21.665  0.00  0.00    +0.198 C 
ENDROOT
BRANCH   1   3
ATOM      2  N   UNL     1      34.445 -16.515 -23.743  0.00  0.00    -0.243 NA
ATOM      3  C   UNL     1      34.600 -16.577 -22.416  0.00  0.00    +0.107 C 
ATOM      4  C   UNL     1      34.987 -17.669 -21.690  0.00  0.00    +0.019 C 
ATOM      5  C   UNL     1      35.243 -18.835 -22.404  0.00  0.00    +0.003 C 
ATOM      6  C   UNL     1      34.703 -17.665 -24.403  0.00  0.00    +0.099 C 
ATOM      7  C   UNL     1      35.102 -18.841 -23.787  0.00  0.00    +0.021 C 
ENDBRANCH   1   3
BRANCH   1   8
ATOM      8  O   UNL     1      34.953 -14.256 -22.434  0.00  0.00    -0.361 OA
ATOM      9  H   UNL     1      34.738 -14.144 -23.339  0.00  0.00    +0.213 HD
ENDBRANCH   1   8
BRANCH   1  10
ATOM     10  O   UNL     1      34.914 -15.312 -20.372  0.00  0.00    -0.361 OA
ATOM     11  H   UNL     1      35.129 -16.134 -19.977  0.00  0.00    +0.213 HD
ENDBRANCH   1  10
BRANCH   1  12
ATOM     12  C   UNL     1      32.777 -14.993 -21.553  0.00  0.00    -0.007 C 
BRANCH  12  13
ATOM     13  N   UNL     1      32.151 -15.982 -20.663  0.00  0.00    +0.385 N 
ATOM     14  H   UNL     1      32.388 -16.921 -20.979  0.00  0.00    -0.089 HD
ATOM     15  H   UNL     1      31.138 -15.861 -20.681  0.00  0.00    -0.089 HD
ATOM     16  H   UNL     1      32.492 -15.846 -19.711  0.00  0.00    -0.089 HD
ENDBRANCH  12  13
BRANCH  12  17
ATOM     17  C   UNL     1      32.381 -13.558 -21.117  0.00  0.00    -0.005 C 
BRANCH  17  18
ATOM     18  C   UNL     1      31.987 -12.527 -22.180  0.00  0.00    +0.056 C 
BRANCH  18  19
ATOM     19  S   UNL     1      31.045 -11.109 -21.550  0.00  0.00    -0.139 S 
ATOM     20  C   UNL     1      31.847  -9.810 -22.517  0.00  0.00    +0.069 C 
ENDBRANCH  18  19
ENDBRANCH  17  18
ENDBRANCH  12  17
ENDBRANCH   1  12
TORSDOF 8
ENDMDL
MODEL 9
REMARK VINA RESULT:      -6.0      2.885      5.646
REMARK  Name = 448220
REMARK  8 active torsions:
REMARK  status: ('A' for Active; 'I' for Inactive)
REMARK    1  A    between atoms: C_1  and  C_3
REMARK    2  A    between atoms: C_1  and  O_8
REMARK    3  A    between atoms: C_1  and  O_10
REMARK    4  A    between atoms: C_1  and  C_12
REMARK    5  A    between atoms: C_12  and  N_13
REMARK    6  A    between atoms: C_12  and  C_17
REMARK    7  A    between atoms: C_17  and  C_18
REMARK    8  A    between atoms: C_18  and  S_19
REMARK                            x       y       z     vdW  Elec       q    Type
REMARK                         _______ _______ _______ _____ _____    ______ ____
ROOT
ATOM      1  C   UNL     1      35.321 -18.280 -22.382  0.00  0.00    +0.198 C 
ENDROOT
BRANCH   1   3
ATOM      2  N   UNL     1      34.797 -16.254 -21.163  0.00  0.00    -0.243 NA
ATOM      3  C   UNL     1      34.920 -16.806 -22.375  0.00  0.00    +0.107 C 
ATOM      4  C   UNL     1      34.723 -16.186 -23.578  0.00  0.00    +0.019 C 
ATOM      5  C   UNL     1      34.357 -14.845 -23.536  0.00  0.00    +0.003 C 
ATOM      6  C   UNL     1      34.441 -14.950 -21.162  0.00  0.00    +0.099 C 
ATOM      7  C   UNL     1      34.212 -14.208 -22.309  0.00  0.00    +0.021 C 
ENDBRANCH   1   3
BRANCH   1   8
ATOM      8  O   UNL     1      36.747 -18.271 -22.531  0.00  0.00    -0.361 OA
ATOM      9  H   UNL     1      37.130 -18.340 -23.384  0.00  0.00    +0.213 HD
ENDBRANCH   1   8
BRANCH   1  10
ATOM     10  O   UNL     1      34.759 -18.938 -23.517  0.00  0.00    -0.361 OA
ATOM     11  H   UNL     1      33.845 -19.141 -23.535  0.00  0.00    +0.213 HD
ENDBRANCH   1  10
BRANCH   1  12
ATOM     12  C   UNL     1      34.916 -19.008 -21.061  0.00  0.00    -0.007 C 
BRANCH  12  13
ATOM     13  N   UNL     1      33.451 -19.060 -20.951  0.00  0.00    +0.385 N 
ATOM     14  H   UNL     1      33.094 -18.129 -20.740  0.00  0.00    -0.089 HD
ATOM     15  H   UNL     1      33.189 -19.703 -20.204  0.00  0.00    -0.089 HD
ATOM     16  H   UNL     1      33.056 -19.384 -21.834  0.00  0.00    -0.089 HD
ENDBRANCH  12  13
BRANCH  12  17
ATOM     17  C   UNL     1      35.515 -20.423 -20.851  0.00  0.00    -0.005 C 
BRANCH  17  18
ATOM     18  C   UNL     1      36.695 -20.610 -19.891  0.00  0.00    +0.056 C 
BRANCH  18  19
ATOM     19  S   UNL     1      36.349 -21.673 -18.461  0.00  0.00    -0.139 S 
ATOM     20  C   UNL     1      34.661 -22.153 -18.892  0.00  0.00    +0.069 C 
ENDBRANCH  18  19
ENDBRANCH  17  18
ENDBRANCH  12  17
ENDBRANCH   1  12
TORSDOF 8
ENDMDL
