MODEL 1
REMARK VINA RESULT:     -11.8      0.000      0.000
REMARK  Name = 11524144
REMARK  6 active torsions:
REMARK  status: ('A' for Active; 'I' for Inactive)
REMARK    1  A    between atoms: C_1  and  O_22
REMARK    2  A    between atoms: C_2  and  C_10
REMARK    3  A    between atoms: C_12  and  C_17
REMARK    4  A    between atoms: O_22  and  C_23
REMARK    5  A    between atoms: C_23  and  C_24
REMARK    6  A    between atoms: C_24  and  N_25
REMARK                            x       y       z     vdW  Elec       q    Type
REMARK                         _______ _______ _______ _____ _____    ______ ____
ROOT
ATOM      1  C   UNL     1      34.778 -21.626 -19.484  0.00  0.00    +0.138 C 
ATOM      2  C   UNL     1      34.420 -19.334 -21.016  0.00  0.00    -0.001 C 
ATOM      3  C   UNL     1      33.492 -21.208 -19.806  0.00  0.00    +0.037 C 
ATOM      4  C   UNL     1      35.887 -20.911 -19.922  0.00  0.00    +0.037 C 
ATOM      5  C   UNL     1      33.312 -20.057 -20.574  0.00  0.00    +0.003 C 
ATOM      6  C   UNL     1      35.706 -19.760 -20.690  0.00  0.00    +0.003 C 
ENDROOT
BRANCH   2  10
ATOM      7  N   UNL     1      34.158 -16.902 -23.868  0.00  0.00    -0.193 N 
ATOM      8  N   UNL     1      33.752 -15.661 -21.852  0.00  0.00    -0.231 NA
ATOM      9  N   UNL     1      34.234 -16.718 -25.213  0.00  0.00    -0.179 NA
ATOM     10  C   UNL     1      34.230 -18.121 -21.826  0.00  0.00    +0.019 C 
ATOM     11  C   UNL     1      33.873 -15.710 -23.207  0.00  0.00    +0.137 C 
ATOM     12  C   UNL     1      33.764 -14.742 -24.179  0.00  0.00    +0.121 C 
ATOM     13  C   UNL     1      34.334 -18.091 -23.164  0.00  0.00    +0.145 C 
ATOM     14  C   UNL     1      33.920 -16.786 -21.223  0.00  0.00    +0.097 C 
ATOM     15  C   UNL     1      33.995 -15.418 -25.385  0.00  0.00    +0.103 C 
BRANCH  12  17
ATOM     16  N   UNL     1      32.914 -10.667 -23.419  0.00  0.00    -0.242 NA
ATOM     17  C   UNL     1      33.475 -13.364 -23.922  0.00  0.00    -0.007 C 
ATOM     18  C   UNL     1      34.077 -12.366 -24.687  0.00  0.00    +0.017 C 
ATOM     19  C   UNL     1      32.594 -13.008 -22.906  0.00  0.00    +0.017 C 
ATOM     20  C   UNL     1      33.765 -11.047 -24.398  0.00  0.00    +0.099 C 
ATOM     21  C   UNL     1      32.349 -11.660 -22.697  0.00  0.00    +0.099 C 
ENDBRANCH  12  17
ENDBRANCH   2  10
BRANCH   1  22
ATOM     22  O   UNL     1      34.955 -22.757 -18.730  0.00  0.00    -0.478 OA
BRANCH  22  23
ATOM     23  C   UNL     1      33.788 -23.340 -18.165  0.00  0.00    +0.183 C 
BRANCH  23  24
ATOM     24  C   UNL     1      33.895 -23.278 -16.650  0.00  0.00    -0.029 C 
BRANCH  24  25
ATOM     25  N   UNL     1      32.600 -23.554 -16.029  0.00  0.00    +0.389 N 
ATOM     26  C   UNL     1      32.618 -23.173 -14.610  0.00  0.00    -0.077 C 
ATOM     27  C   UNL     1      31.526 -22.858 -16.752  0.00  0.00    -0.077 C 
ATOM     28  C   UNL     1      31.286 -23.500 -13.933  0.00  0.00    -0.023 C 
ATOM     29  C   UNL     1      30.158 -23.175 -16.145  0.00  0.00    -0.023 C 
ATOM     30  C   UNL     1      30.119 -22.840 -14.659  0.00  0.00    -0.004 C 
ATOM     31  H   UNL     1      32.418 -24.556 -16.083  0.00  0.00    -0.080 HD
ENDBRANCH  24  25
ENDBRANCH  23  24
ENDBRANCH  22  23
ENDBRANCH   1  22
TORSDOF 6
ENDMDL
MODEL 2
REMARK VINA RESULT:     -11.7      3.938     11.736
REMARK  Name = 11524144
REMARK  6 active torsions:
REMARK  status: ('A' for Active; 'I' for Inactive)
REMARK    1  A    between atoms: C_1  and  O_22
REMARK    2  A    between atoms: C_2  and  C_10
REMARK    3  A    between atoms: C_12  and  C_17
REMARK    4  A    between atoms: O_22  and  C_23
REMARK    5  A    between atoms: C_23  and  C_24
REMARK    6  A    between atoms: C_24  and  N_25
REMARK                            x       y       z     vdW  Elec       q    Type
REMARK                         _______ _______ _______ _____ _____    ______ ____
ROOT
ATOM      1  C   UNL     1      32.169 -10.796 -22.749  0.00  0.00    +0.138 C 
ATOM      2  C   UNL     1      33.027 -13.429 -22.505  0.00  0.00    -0.001 C 
ATOM      3  C   UNL     1      31.635 -11.604 -21.752  0.00  0.00    +0.037 C 
ATOM      4  C   UNL     1      33.128 -11.291 -23.625  0.00  0.00    +0.037 C 
ATOM      5  C   UNL     1      32.065 -12.925 -21.630  0.00  0.00    +0.003 C 
ATOM      6  C   UNL     1      33.558 -12.612 -23.502  0.00  0.00    +0.003 C 
ENDROOT
BRANCH   2  10
ATOM      7  N   UNL     1      34.471 -16.832 -23.178  0.00  0.00    -0.193 N 
ATOM      8  N   UNL     1      33.640 -16.859 -20.924  0.00  0.00    -0.231 NA
ATOM      9  N   UNL     1      35.084 -17.646 -24.077  0.00  0.00    -0.179 NA
ATOM     10  C   UNL     1      33.480 -14.822 -22.377  0.00  0.00    +0.019 C 
ATOM     11  C   UNL     1      34.245 -17.486 -21.970  0.00  0.00    +0.137 C 
ATOM     12  C   UNL     1      34.739 -18.762 -22.120  0.00  0.00    +0.121 C 
ATOM     13  C   UNL     1      34.082 -15.507 -23.362  0.00  0.00    +0.145 C 
ATOM     14  C   UNL     1      33.290 -15.624 -21.126  0.00  0.00    +0.097 C 
ATOM     15  C   UNL     1      35.239 -18.801 -23.428  0.00  0.00    +0.103 C 
BRANCH  12  17
ATOM     16  N   UNL     1      34.637 -21.738 -19.114  0.00  0.00    -0.242 NA
ATOM     17  C   UNL     1      34.705 -19.769 -21.104  0.00  0.00    -0.007 C 
ATOM     18  C   UNL     1      33.486 -20.264 -20.647  0.00  0.00    +0.017 C 
ATOM     19  C   UNL     1      35.890 -20.262 -20.563  0.00  0.00    +0.017 C 
ATOM     20  C   UNL     1      33.507 -21.238 -19.661  0.00  0.00    +0.099 C 
ATOM     21  C   UNL     1      35.802 -21.236 -19.581  0.00  0.00    +0.099 C 
ENDBRANCH  12  17
ENDBRANCH   2  10
BRANCH   1  22
ATOM     22  O   UNL     1      31.746  -9.497 -22.869  0.00  0.00    -0.478 OA
BRANCH  22  23
ATOM     23  C   UNL     1      32.042  -8.624 -21.787  0.00  0.00    +0.183 C 
BRANCH  23  24
ATOM     24  C   UNL     1      33.251  -7.780 -22.158  0.00  0.00    -0.029 C 
BRANCH  24  25
ATOM     25  N   UNL     1      32.832  -6.514 -22.759  0.00  0.00    +0.389 N 
ATOM     26  C   UNL     1      32.775  -6.634 -24.223  0.00  0.00    -0.077 C 
ATOM     27  C   UNL     1      31.536  -6.090 -22.210  0.00  0.00    -0.077 C 
ATOM     28  C   UNL     1      32.385  -5.305 -24.871  0.00  0.00    -0.023 C 
ATOM     29  C   UNL     1      31.105  -4.743 -22.792  0.00  0.00    -0.023 C 
ATOM     30  C   UNL     1      31.063  -4.784 -24.315  0.00  0.00    -0.004 C 
ATOM     31  H   UNL     1      33.520  -5.798 -22.529  0.00  0.00    -0.080 HD
ENDBRANCH  24  25
ENDBRANCH  23  24
ENDBRANCH  22  23
ENDBRANCH   1  22
TORSDOF 6
ENDMDL
MODEL 3
REMARK VINA RESULT:     -11.6      1.963      2.885
REMARK  Name = 11524144
REMARK  6 active torsions:
REMARK  status: ('A' for Active; 'I' for Inactive)
REMARK    1  A    between atoms: C_1  and  O_22
REMARK    2  A    between atoms: C_2  and  C_10
REMARK    3  A    between atoms: C_12  and  C_17
REMARK    4  A    between atoms: O_22  and  C_23
REMARK    5  A    between atoms: C_23  and  C_24
REMARK    6  A    between atoms: C_24  and  N_25
REMARK                            x       y       z     vdW  Elec       q    Type
REMARK                         _______ _______ _______ _____ _____    ______ ____
ROOT
ATOM      1  C   UNL     1      35.747 -20.608 -20.237  0.00  0.00    +0.138 C 
ATOM      2  C   UNL     1      34.985 -18.255 -21.507  0.00  0.00    -0.001 C 
ATOM      3  C   UNL     1      36.719 -19.713 -20.670  0.00  0.00    +0.037 C 
ATOM      4  C   UNL     1      34.397 -20.337 -20.432  0.00  0.00    +0.037 C 
ATOM      5  C   UNL     1      36.337 -18.533 -21.308  0.00  0.00    +0.003 C 
ATOM      6  C   UNL     1      34.015 -19.157 -21.070  0.00  0.00    +0.003 C 
ENDROOT
BRANCH   2  10
ATOM      7  N   UNL     1      33.898 -15.721 -24.059  0.00  0.00    -0.193 N 
ATOM      8  N   UNL     1      34.191 -14.543 -21.986  0.00  0.00    -0.231 NA
ATOM      9  N   UNL     1      33.546 -15.491 -25.352  0.00  0.00    -0.179 NA
ATOM     10  C   UNL     1      34.582 -17.011 -22.180  0.00  0.00    +0.019 C 
ATOM     11  C   UNL     1      33.872 -14.547 -23.309  0.00  0.00    +0.137 C 
ATOM     12  C   UNL     1      33.487 -13.544 -24.169  0.00  0.00    +0.121 C 
ATOM     13  C   UNL     1      34.254 -16.937 -23.480  0.00  0.00    +0.145 C 
ATOM     14  C   UNL     1      34.519 -15.692 -21.475  0.00  0.00    +0.097 C 
ATOM     15  C   UNL     1      33.302 -14.181 -25.403  0.00  0.00    +0.103 C 
BRANCH  12  17
ATOM     16  N   UNL     1      33.037  -9.483 -23.067  0.00  0.00    -0.242 NA
ATOM     17  C   UNL     1      33.336 -12.170 -23.796  0.00  0.00    -0.007 C 
ATOM     18  C   UNL     1      32.351 -11.795 -22.885  0.00  0.00    +0.017 C 
ATOM     19  C   UNL     1      34.170 -11.198 -24.342  0.00  0.00    +0.017 C 
ATOM     20  C   UNL     1      32.245 -10.453 -22.558  0.00  0.00    +0.099 C 
ATOM     21  C   UNL     1      33.982  -9.883 -23.948  0.00  0.00    +0.099 C 
ENDBRANCH  12  17
ENDBRANCH   2  10
BRANCH   1  22
ATOM     22  O   UNL     1      36.123 -21.767 -19.610  0.00  0.00    -0.478 OA
BRANCH  22  23
ATOM     23  C   UNL     1      35.592 -21.995 -18.312  0.00  0.00    +0.183 C 
BRANCH  23  24
ATOM     24  C   UNL     1      36.731 -21.958 -17.305  0.00  0.00    -0.029 C 
BRANCH  24  25
ATOM     25  N   UNL     1      36.267 -22.385 -15.985  0.00  0.00    +0.389 N 
ATOM     26  C   UNL     1      34.991 -23.105 -16.097  0.00  0.00    -0.077 C 
ATOM     27  C   UNL     1      37.287 -23.211 -15.325  0.00  0.00    -0.077 C 
ATOM     28  C   UNL     1      34.467 -23.517 -14.721  0.00  0.00    -0.023 C 
ATOM     29  C   UNL     1      36.839 -23.626 -13.923  0.00  0.00    -0.023 C 
ATOM     30  C   UNL     1      35.496 -24.347 -13.961  0.00  0.00    -0.004 C 
ATOM     31  H   UNL     1      36.111 -21.558 -15.410  0.00  0.00    -0.080 HD
ENDBRANCH  24  25
ENDBRANCH  23  24
ENDBRANCH  22  23
ENDBRANCH   1  22
TORSDOF 6
ENDMDL
MODEL 4
REMARK VINA RESULT:     -11.5      1.150      2.032
REMARK  Name = 11524144
REMARK  6 active torsions:
REMARK  status: ('A' for Active; 'I' for Inactive)
REMARK    1  A    between atoms: C_1  and  O_22
REMARK    2  A    between atoms: C_2  and  C_10
REMARK    3  A    between atoms: C_12  and  C_17
REMARK    4  A    between atoms: O_22  and  C_23
REMARK    5  A    between atoms: C_23  and  C_24
REMARK    6  A    between atoms: C_24  and  N_25
REMARK                            x       y       z     vdW  Elec       q    Type
REMARK                         _______ _______ _______ _____ _____    ______ ____
ROOT
ATOM      1  C   UNL     1      34.712 -21.438 -19.786  0.00  0.00    +0.138 C 
ATOM      2  C   UNL     1      34.218 -18.969 -20.964  0.00  0.00    -0.001 C 
ATOM      3  C   UNL     1      33.402 -21.001 -19.944  0.00  0.00    +0.037 C 
ATOM      4  C   UNL     1      35.777 -20.653 -20.211  0.00  0.00    +0.037 C 
ATOM      5  C   UNL     1      33.154 -19.762 -20.534  0.00  0.00    +0.003 C 
ATOM      6  C   UNL     1      35.529 -19.414 -20.802  0.00  0.00    +0.003 C 
ENDROOT
BRANCH   2  10
ATOM      7  N   UNL     1      33.094 -15.444 -21.620  0.00  0.00    -0.193 N 
ATOM      8  N   UNL     1      34.155 -16.225 -23.629  0.00  0.00    -0.231 NA
ATOM      9  N   UNL     1      32.471 -14.342 -21.127  0.00  0.00    -0.179 NA
ATOM     10  C   UNL     1      33.956 -17.662 -21.585  0.00  0.00    +0.019 C 
ATOM     11  C   UNL     1      33.509 -15.249 -22.936  0.00  0.00    +0.137 C 
ATOM     12  C   UNL     1      33.130 -13.969 -23.276  0.00  0.00    +0.121 C 
ATOM     13  C   UNL     1      33.324 -16.652 -20.966  0.00  0.00    +0.145 C 
ATOM     14  C   UNL     1      34.356 -17.339 -22.992  0.00  0.00    +0.097 C 
ATOM     15  C   UNL     1      32.501 -13.465 -22.131  0.00  0.00    +0.103 C 
BRANCH  12  17
ATOM     16  N   UNL     1      33.837 -12.191 -27.050  0.00  0.00    -0.242 NA
ATOM     17  C   UNL     1      33.369 -13.367 -24.552  0.00  0.00    -0.007 C 
ATOM     18  C   UNL     1      33.018 -14.038 -25.722  0.00  0.00    +0.017 C 
ATOM     19  C   UNL     1      33.954 -12.107 -24.636  0.00  0.00    +0.017 C 
ATOM     20  C   UNL     1      33.271 -13.412 -26.932  0.00  0.00    +0.099 C 
ATOM     21  C   UNL     1      34.165 -11.568 -25.896  0.00  0.00    +0.099 C 
ENDBRANCH  12  17
ENDBRANCH   2  10
BRANCH   1  22
ATOM     22  O   UNL     1      34.956 -22.656 -19.206  0.00  0.00    -0.478 OA
BRANCH  22  23
ATOM     23  C   UNL     1      33.872 -23.269 -18.521  0.00  0.00    +0.183 C 
BRANCH  23  24
ATOM     24  C   UNL     1      34.105 -23.140 -17.023  0.00  0.00    -0.029 C 
BRANCH  24  25
ATOM     25  N   UNL     1      32.898 -23.501 -16.281  0.00  0.00    +0.389 N 
ATOM     26  C   UNL     1      33.060 -23.190 -14.853  0.00  0.00    -0.077 C 
ATOM     27  C   UNL     1      31.725 -22.818 -16.843  0.00  0.00    -0.077 C 
ATOM     28  C   UNL     1      31.825 -23.606 -14.054  0.00  0.00    -0.023 C 
ATOM     29  C   UNL     1      30.446 -23.222 -16.109  0.00  0.00    -0.023 C 
ATOM     30  C   UNL     1      30.560 -22.962 -14.611  0.00  0.00    -0.004 C 
ATOM     31  H   UNL     1      32.749 -24.506 -16.368  0.00  0.00    -0.080 HD
ENDBRANCH  24  25
ENDBRANCH  23  24
ENDBRANCH  22  23
ENDBRANCH   1  22
TORSDOF 6
ENDMDL
MODEL 5
REMARK VINA RESULT:     -11.5      2.570      3.607
REMARK  Name = 11524144
REMARK  6 active torsions:
REMARK  status: ('A' for Active; 'I' for Inactive)
REMARK    1  A    between atoms: C_1  and  O_22
REMARK    2  A    between atoms: C_2  and  C_10
REMARK    3  A    between atoms: C_12  and  C_17
REMARK    4  A    between atoms: O_22  and  C_23
REMARK    5  A    between atoms: C_23  and  C_24
REMARK    6  A    between atoms: C_24  and  N_25
REMARK                            x       y       z     vdW  Elec       q    Type
REMARK                         _______ _______ _______ _____ _____    ______ ____
ROOT
ATOM      1  C   UNL     1      34.778 -22.255 -18.480  0.00  0.00    +0.138 C 
ATOM      2  C   UNL     1      34.582 -20.300 -20.447  0.00  0.00    -0.001 C 
ATOM      3  C   UNL     1      35.933 -21.672 -18.988  0.00  0.00    +0.037 C 
ATOM      4  C   UNL     1      33.526 -21.870 -18.945  0.00  0.00    +0.037 C 
ATOM      5  C   UNL     1      35.835 -20.692 -19.975  0.00  0.00    +0.003 C 
ATOM      6  C   UNL     1      33.428 -20.890 -19.932  0.00  0.00    +0.003 C 
ENDROOT
BRANCH   2  10
ATOM      7  N   UNL     1      34.599 -18.465 -23.725  0.00  0.00    -0.193 N 
ATOM      8  N   UNL     1      34.036 -16.860 -22.029  0.00  0.00    -0.231 NA
ATOM      9  N   UNL     1      34.794 -18.544 -25.068  0.00  0.00    -0.179 NA
ATOM     10  C   UNL     1      34.478 -19.267 -21.488  0.00  0.00    +0.019 C 
ATOM     11  C   UNL     1      34.273 -17.169 -23.333  0.00  0.00    +0.137 C 
ATOM     12  C   UNL     1      34.261 -16.407 -24.480  0.00  0.00    +0.121 C 
ATOM     13  C   UNL     1      34.698 -19.495 -22.793  0.00  0.00    +0.145 C 
ATOM     14  C   UNL     1      34.134 -17.842 -21.184  0.00  0.00    +0.097 C 
ATOM     15  C   UNL     1      34.587 -17.302 -25.508  0.00  0.00    +0.103 C 
BRANCH  12  17
ATOM     16  N   UNL     1      33.400 -12.266 -24.598  0.00  0.00    -0.242 NA
ATOM     17  C   UNL     1      33.969 -15.007 -24.519  0.00  0.00    -0.007 C 
ATOM     18  C   UNL     1      33.485 -14.423 -25.688  0.00  0.00    +0.017 C 
ATOM     19  C   UNL     1      34.168 -14.216 -23.391  0.00  0.00    +0.017 C 
ATOM     20  C   UNL     1      33.218 -13.063 -25.675  0.00  0.00    +0.099 C 
ATOM     21  C   UNL     1      33.871 -12.865 -23.482  0.00  0.00    +0.099 C 
ENDBRANCH  12  17
ENDBRANCH   2  10
BRANCH   1  22
ATOM     22  O   UNL     1      34.874 -23.219 -17.510  0.00  0.00    -0.478 OA
BRANCH  22  23
ATOM     23  C   UNL     1      35.630 -22.890 -16.352  0.00  0.00    +0.183 C 
BRANCH  23  24
ATOM     24  C   UNL     1      35.270 -23.863 -15.241  0.00  0.00    -0.029 C 
BRANCH  24  25
ATOM     25  N   UNL     1      36.414 -24.712 -14.908  0.00  0.00    +0.389 N 
ATOM     26  C   UNL     1      37.670 -23.967 -15.066  0.00  0.00    -0.077 C 
ATOM     27  C   UNL     1      36.279 -25.245 -13.546  0.00  0.00    -0.077 C 
ATOM     28  C   UNL     1      38.880 -24.854 -14.769  0.00  0.00    -0.023 C 
ATOM     29  C   UNL     1      37.443 -26.174 -13.199  0.00  0.00    -0.023 C 
ATOM     30  C   UNL     1      38.785 -25.475 -13.379  0.00  0.00    -0.004 C 
ATOM     31  H   UNL     1      36.434 -25.501 -15.554  0.00  0.00    -0.080 HD
ENDBRANCH  24  25
ENDBRANCH  23  24
ENDBRANCH  22  23
ENDBRANCH   1  22
TORSDOF 6
ENDMDL
MODEL 6
REMARK VINA RESULT:     -11.4      2.882     11.133
REMARK  Name = 11524144
REMARK  6 active torsions:
REMARK  status: ('A' for Active; 'I' for Inactive)
REMARK    1  A    between atoms: C_1  and  O_22
REMARK    2  A    between atoms: C_2  and  C_10
REMARK    3  A    between atoms: C_12  and  C_17
REMARK    4  A    between atoms: O_22  and  C_23
REMARK    5  A    between atoms: C_23  and  C_24
REMARK    6  A    between atoms: C_24  and  N_25
REMARK                            x       y       z     vdW  Elec       q    Type
REMARK                         _______ _______ _______ _____ _____    ______ ____
ROOT
ATOM      1  C   UNL     1      34.585 -19.762 -21.775  0.00  0.00    +0.138 C 
ATOM      2  C   UNL     1      34.702 -21.236 -19.421  0.00  0.00    -0.001 C 
ATOM      3  C   UNL     1      35.819 -20.158 -21.272  0.00  0.00    +0.037 C 
ATOM      4  C   UNL     1      33.409 -20.097 -21.113  0.00  0.00    +0.037 C 
ATOM      5  C   UNL     1      35.878 -20.898 -20.091  0.00  0.00    +0.003 C 
ATOM      6  C   UNL     1      33.468 -20.836 -19.932  0.00  0.00    +0.003 C 
ENDROOT
BRANCH   2  10
ATOM      7  N   UNL     1      33.825 -23.301 -16.407  0.00  0.00    -0.193 N 
ATOM      8  N   UNL     1      36.187 -22.879 -16.301  0.00  0.00    -0.231 NA
ATOM      9  N   UNL     1      32.842 -23.931 -15.711  0.00  0.00    -0.179 NA
ATOM     10  C   UNL     1      34.765 -22.015 -18.175  0.00  0.00    +0.019 C 
ATOM     11  C   UNL     1      35.060 -23.434 -15.777  0.00  0.00    +0.137 C 
ATOM     12  C   UNL     1      34.839 -24.179 -14.641  0.00  0.00    +0.121 C 
ATOM     13  C   UNL     1      33.697 -22.591 -17.599  0.00  0.00    +0.145 C 
ATOM     14  C   UNL     1      36.037 -22.223 -17.413  0.00  0.00    +0.097 C 
ATOM     15  C   UNL     1      33.466 -24.454 -14.655  0.00  0.00    +0.103 C 
BRANCH  12  17
ATOM     16  N   UNL     1      37.846 -25.262 -11.868  0.00  0.00    -0.242 NA
ATOM     17  C   UNL     1      35.856 -24.547 -13.703  0.00  0.00    -0.007 C 
ATOM     18  C   UNL     1      36.124 -23.733 -12.605  0.00  0.00    +0.017 C 
ATOM     19  C   UNL     1      36.586 -25.718 -13.881  0.00  0.00    +0.017 C 
ATOM     20  C   UNL     1      37.118 -24.132 -11.726  0.00  0.00    +0.099 C 
ATOM     21  C   UNL     1      37.560 -26.028 -12.944  0.00  0.00    +0.099 C 
ENDBRANCH  12  17
ENDBRANCH   2  10
BRANCH   1  22
ATOM     22  O   UNL     1      34.527 -19.036 -22.936  0.00  0.00    -0.478 OA
BRANCH  22  23
ATOM     23  C   UNL     1      35.468 -17.981 -23.080  0.00  0.00    +0.183 C 
BRANCH  23  24
ATOM     24  C   UNL     1      34.799 -16.827 -23.811  0.00  0.00    -0.029 C 
BRANCH  24  25
ATOM     25  N   UNL     1      34.564 -15.706 -22.900  0.00  0.00    +0.389 N 
ATOM     26  C   UNL     1      33.290 -15.046 -23.216  0.00  0.00    -0.077 C 
ATOM     27  C   UNL     1      34.593 -16.165 -21.505  0.00  0.00    -0.077 C 
ATOM     28  C   UNL     1      33.051 -13.841 -22.304  0.00  0.00    -0.023 C 
ATOM     29  C   UNL     1      34.398 -14.997 -20.537  0.00  0.00    -0.023 C 
ATOM     30  C   UNL     1      33.109 -14.240 -20.833  0.00  0.00    -0.004 C 
ATOM     31  H   UNL     1      35.311 -15.023 -23.023  0.00  0.00    -0.080 HD
ENDBRANCH  24  25
ENDBRANCH  23  24
ENDBRANCH  22  23
ENDBRANCH   1  22
TORSDOF 6
ENDMDL
MODEL 7
REMARK VINA RESULT:     -11.4      1.099      1.735
REMARK  Name = 11524144
REMARK  6 active torsions:
REMARK  status: ('A' for Active; 'I' for Inactive)
REMARK    1  A    between atoms: C_1  and  O_22
REMARK    2  A    between atoms: C_2  and  C_10
REMARK    3  A    between atoms: C_12  and  C_17
REMARK    4  A    between atoms: O_22  and  C_23
REMARK    5  A    between atoms: C_23  and  C_24
REMARK    6  A    between atoms: C_24  and  N_25
REMARK                            x       y       z     vdW  Elec       q    Type
REMARK                         _______ _______ _______ _____ _____    ______ ____
ROOT
ATOM      1  C   UNL     1      35.458 -20.631 -20.200  0.00  0.00    +0.138 C 
ATOM      2  C   UNL     1      34.803 -18.260 -21.496  0.00  0.00    -0.001 C 
ATOM      3  C   UNL     1      34.123 -20.310 -20.416  0.00  0.00    +0.037 C 
ATOM      4  C   UNL     1      36.469 -19.778 -20.627  0.00  0.00    +0.037 C 
ATOM      5  C   UNL     1      33.794 -19.121 -21.066  0.00  0.00    +0.003 C 
ATOM      6  C   UNL     1      36.140 -18.588 -21.277  0.00  0.00    +0.003 C 
ENDROOT
BRANCH   2  10
ATOM      7  N   UNL     1      33.892 -15.693 -24.084  0.00  0.00    -0.193 N 
ATOM      8  N   UNL     1      34.098 -14.532 -21.990  0.00  0.00    -0.231 NA
ATOM      9  N   UNL     1      33.611 -15.450 -25.391  0.00  0.00    -0.179 NA
ATOM     10  C   UNL     1      34.456 -17.006 -22.181  0.00  0.00    +0.019 C 
ATOM     11  C   UNL     1      33.848 -14.523 -23.328  0.00  0.00    +0.137 C 
ATOM     12  C   UNL     1      33.525 -13.508 -24.200  0.00  0.00    +0.121 C 
ATOM     13  C   UNL     1      34.198 -16.918 -23.496  0.00  0.00    +0.145 C 
ATOM     14  C   UNL     1      34.379 -15.690 -21.471  0.00  0.00    +0.097 C 
ATOM     15  C   UNL     1      33.393 -14.136 -25.446  0.00  0.00    +0.103 C 
BRANCH  12  17
ATOM     16  N   UNL     1      33.087  -9.447 -23.095  0.00  0.00    -0.242 NA
ATOM     17  C   UNL     1      33.378 -12.135 -23.827  0.00  0.00    -0.007 C 
ATOM     18  C   UNL     1      32.414 -11.761 -22.892  0.00  0.00    +0.017 C 
ATOM     19  C   UNL     1      34.195 -11.161 -24.394  0.00  0.00    +0.017 C 
ATOM     20  C   UNL     1      32.311 -10.419 -22.565  0.00  0.00    +0.099 C 
ATOM     21  C   UNL     1      34.011  -9.845 -23.998  0.00  0.00    +0.099 C 
ENDBRANCH  12  17
ENDBRANCH   2  10
BRANCH   1  22
ATOM     22  O   UNL     1      35.781 -21.800 -19.562  0.00  0.00    -0.478 OA
BRANCH  22  23
ATOM     23  C   UNL     1      35.158 -22.039 -18.307  0.00  0.00    +0.183 C 
BRANCH  23  24
ATOM     24  C   UNL     1      33.907 -22.874 -18.533  0.00  0.00    -0.029 C 
BRANCH  24  25
ATOM     25  N   UNL     1      33.430 -23.441 -17.272  0.00  0.00    +0.389 N 
ATOM     26  C   UNL     1      34.383 -23.161 -16.189  0.00  0.00    -0.077 C 
ATOM     27  C   UNL     1      32.093 -22.924 -16.950  0.00  0.00    -0.077 C 
ATOM     28  C   UNL     1      33.924 -23.788 -14.873  0.00  0.00    -0.023 C 
ATOM     29  C   UNL     1      31.558 -23.544 -15.658  0.00  0.00    -0.023 C 
ATOM     30  C   UNL     1      32.520 -23.324 -14.497  0.00  0.00    -0.004 C 
ATOM     31  H   UNL     1      33.360 -24.453 -17.374  0.00  0.00    -0.080 HD
ENDBRANCH  24  25
ENDBRANCH  23  24
ENDBRANCH  22  23
ENDBRANCH   1  22
TORSDOF 6
ENDMDL
MODEL 8
REMARK VINA RESULT:     -11.1      2.090      3.149
REMARK  Name = 11524144
REMARK  6 active torsions:
REMARK  status: ('A' for Active; 'I' for Inactive)
REMARK    1  A    between atoms: C_1  and  O_22
REMARK    2  A    between atoms: C_2  and  C_10
REMARK    3  A    between atoms: C_12  and  C_17
REMARK    4  A    between atoms: O_22  and  C_23
REMARK    5  A    between atoms: C_23  and  C_24
REMARK    6  A    between atoms: C_24  and  N_25
REMARK                            x       y       z     vdW  Elec       q    Type
REMARK                         _______ _______ _______ _____ _____    ______ ____
ROOT
ATOM      1  C   UNL     1      34.971 -21.400 -19.792  0.00  0.00    +0.138 C 
ATOM      2  C   UNL     1      34.406 -18.960 -21.001  0.00  0.00    -0.001 C 
ATOM      3  C   UNL     1      33.649 -21.001 -19.953  0.00  0.00    +0.037 C 
ATOM      4  C   UNL     1      36.013 -20.591 -20.231  0.00  0.00    +0.037 C 
ATOM      5  C   UNL     1      33.366 -19.777 -20.559  0.00  0.00    +0.003 C 
ATOM      6  C   UNL     1      35.730 -19.367 -20.836  0.00  0.00    +0.003 C 
ENDROOT
BRANCH   2  10
ATOM      7  N   UNL     1      33.180 -15.479 -21.702  0.00  0.00    -0.193 N 
ATOM      8  N   UNL     1      34.268 -16.252 -23.699  0.00  0.00    -0.231 NA
ATOM      9  N   UNL     1      32.524 -14.389 -21.223  0.00  0.00    -0.179 NA
ATOM     10  C   UNL     1      34.108 -17.670 -21.638  0.00  0.00    +0.019 C 
ATOM     11  C   UNL     1      33.592 -15.287 -23.019  0.00  0.00    +0.137 C 
ATOM     12  C   UNL     1      33.176 -14.023 -23.376  0.00  0.00    +0.121 C 
ATOM     13  C   UNL     1      33.445 -16.671 -21.032  0.00  0.00    +0.145 C 
ATOM     14  C   UNL     1      34.501 -17.352 -23.048  0.00  0.00    +0.097 C 
ATOM     15  C   UNL     1      32.529 -13.524 -22.238  0.00  0.00    +0.103 C 
BRANCH  12  17
ATOM     16  N   UNL     1      33.839 -12.270 -27.169  0.00  0.00    -0.242 NA
ATOM     17  C   UNL     1      33.400 -13.430 -24.658  0.00  0.00    -0.007 C 
ATOM     18  C   UNL     1      33.069 -14.123 -25.820  0.00  0.00    +0.017 C 
ATOM     19  C   UNL     1      33.951 -12.155 -24.756  0.00  0.00    +0.017 C 
ATOM     20  C   UNL     1      33.306 -13.505 -27.038  0.00  0.00    +0.099 C 
ATOM     21  C   UNL     1      34.148 -11.625 -26.022  0.00  0.00    +0.099 C 
ENDBRANCH  12  17
ENDBRANCH   2  10
BRANCH   1  22
ATOM     22  O   UNL     1      35.249 -22.603 -19.197  0.00  0.00    -0.478 OA
BRANCH  22  23
ATOM     23  C   UNL     1      34.946 -22.719 -17.813  0.00  0.00    +0.183 C 
BRANCH  23  24
ATOM     24  C   UNL     1      36.184 -22.351 -17.010  0.00  0.00    -0.029 C 
BRANCH  24  25
ATOM     25  N   UNL     1      36.085 -22.868 -15.645  0.00  0.00    +0.389 N 
ATOM     26  C   UNL     1      34.935 -23.773 -15.520  0.00  0.00    -0.077 C 
ATOM     27  C   UNL     1      37.334 -23.539 -15.259  0.00  0.00    -0.077 C 
ATOM     28  C   UNL     1      34.788 -24.285 -14.087  0.00  0.00    -0.023 C 
ATOM     29  C   UNL     1      37.266 -24.043 -13.817  0.00  0.00    -0.023 C 
ATOM     30  C   UNL     1      36.068 -24.961 -13.605  0.00  0.00    -0.004 C 
ATOM     31  H   UNL     1      35.939 -22.085 -15.009  0.00  0.00    -0.080 HD
ENDBRANCH  24  25
ENDBRANCH  23  24
ENDBRANCH  22  23
ENDBRANCH   1  22
TORSDOF 6
ENDMDL
MODEL 9
REMARK VINA RESULT:     -11.1      2.554      4.553
REMARK  Name = 11524144
REMARK  6 active torsions:
REMARK  status: ('A' for Active; 'I' for Inactive)
REMARK    1  A    between atoms: C_1  and  O_22
REMARK    2  A    between atoms: C_2  and  C_10
REMARK    3  A    between atoms: C_12  and  C_17
REMARK    4  A    between atoms: O_22  and  C_23
REMARK    5  A    between atoms: C_23  and  C_24
REMARK    6  A    between atoms: C_24  and  N_25
REMARK                            x       y       z     vdW  Elec       q    Type
REMARK                         _______ _______ _______ _____ _____    ______ ____
ROOT
ATOM      1  C   UNL     1      33.918 -23.805 -16.057  0.00  0.00    +0.138 C 
ATOM      2  C   UNL     1      34.565 -22.105 -18.159  0.00  0.00    -0.001 C 
ATOM      3  C   UNL     1      35.188 -23.244 -16.122  0.00  0.00    +0.037 C 
ATOM      4  C   UNL     1      32.968 -23.525 -17.032  0.00  0.00    +0.037 C 
ATOM      5  C   UNL     1      35.513 -22.391 -17.176  0.00  0.00    +0.003 C 
ATOM      6  C   UNL     1      33.293 -22.672 -18.087  0.00  0.00    +0.003 C 
ENDROOT
BRANCH   2  10
ATOM      7  N   UNL     1      36.407 -19.915 -20.593  0.00  0.00    -0.193 N 
ATOM      8  N   UNL     1      34.087 -19.849 -21.212  0.00  0.00    -0.231 NA
ATOM      9  N   UNL     1      37.607 -19.403 -20.976  0.00  0.00    -0.179 NA
ATOM     10  C   UNL     1      34.908 -21.206 -19.271  0.00  0.00    +0.019 C 
ATOM     11  C   UNL     1      35.376 -19.462 -21.414  0.00  0.00    +0.137 C 
ATOM     12  C   UNL     1      35.957 -18.635 -22.348  0.00  0.00    +0.121 C 
ATOM     13  C   UNL     1      36.155 -20.781 -19.532  0.00  0.00    +0.145 C 
ATOM     14  C   UNL     1      33.883 -20.658 -20.215  0.00  0.00    +0.097 C 
ATOM     15  C   UNL     1      37.321 -18.637 -22.029  0.00  0.00    +0.103 C 
BRANCH  12  17
ATOM     16  N   UNL     1      33.840 -16.628 -25.413  0.00  0.00    -0.242 NA
ATOM     17  C   UNL     1      35.241 -17.956 -23.385  0.00  0.00    -0.007 C 
ATOM     18  C   UNL     1      35.014 -16.585 -23.300  0.00  0.00    +0.017 C 
ATOM     19  C   UNL     1      34.765 -18.662 -24.487  0.00  0.00    +0.017 C 
ATOM     20  C   UNL     1      34.316 -15.975 -24.330  0.00  0.00    +0.099 C 
ATOM     21  C   UNL     1      34.078 -17.958 -25.464  0.00  0.00    +0.099 C 
ENDBRANCH  12  17
ENDBRANCH   2  10
BRANCH   1  22
ATOM     22  O   UNL     1      33.599 -24.643 -15.020  0.00  0.00    -0.478 OA
BRANCH  22  23
ATOM     23  C   UNL     1      32.753 -24.116 -14.007  0.00  0.00    +0.183 C 
BRANCH  23  24
ATOM     24  C   UNL     1      31.554 -25.038 -13.843  0.00  0.00    -0.029 C 
BRANCH  24  25
ATOM     25  N   UNL     1      30.351 -24.425 -14.404  0.00  0.00    +0.389 N 
ATOM     26  C   UNL     1      30.530 -22.972 -14.540  0.00  0.00    -0.077 C 
ATOM     27  C   UNL     1      30.015 -25.041 -15.695  0.00  0.00    -0.077 C 
ATOM     28  C   UNL     1      29.263 -22.308 -15.080  0.00  0.00    -0.023 C 
ATOM     29  C   UNL     1      28.731 -24.445 -16.273  0.00  0.00    -0.023 C 
ATOM     30  C   UNL     1      28.832 -22.930 -16.405  0.00  0.00    -0.004 C 
ATOM     31  H   UNL     1      29.573 -24.587 -13.766  0.00  0.00    -0.080 HD
ENDBRANCH  24  25
ENDBRANCH  23  24
ENDBRANCH  22  23
ENDBRANCH   1  22
TORSDOF 6
ENDMDL
