MODEL 1
REMARK VINA RESULT:      -7.4      0.000      0.000
REMARK  Name = 6047
REMARK  7 active torsions:
REMARK  status: ('A' for Active; 'I' for Inactive)
REMARK    1  A    between atoms: C_1  and  C_2
REMARK    2  A    between atoms: C_1  and  CA_12
REMARK    3  A    between atoms: C_5  and  O_8
REMARK    4  A    between atoms: C_7  and  O_10
REMARK    5  A    between atoms: CA_12  and  N_13
REMARK    6  A    between atoms: CA_12  and  C_18
REMARK    7  A    between atoms: C_18  and  O_19
REMARK                            x       y       z     vdW  Elec       q    Type
REMARK                         _______ _______ _______ _____ _____    ______ ____
ROOT
ATOM      1  C   UNL     1      35.806 -18.590 -21.831  0.00  0.00    +0.015 C 
ENDROOT
BRANCH   1   2
ATOM      2  C   UNL     1      34.995 -19.574 -21.018  0.00  0.00    -0.021 C 
ATOM      3  C   UNL     1      35.652 -20.525 -20.256  0.00  0.00    +0.035 C 
ATOM      4  C   UNL     1      33.613 -19.504 -21.052  0.00  0.00    -0.001 C 
ATOM      5  C   UNL     1      34.905 -21.434 -19.507  0.00  0.00    +0.167 C 
ATOM      6  C   UNL     1      32.866 -20.413 -20.304  0.00  0.00    +0.039 C 
ATOM      7  C   UNL     1      33.512 -21.378 -19.531  0.00  0.00    +0.167 C 
BRANCH   5   8
ATOM      8  O   UNL     1      35.547 -22.371 -18.755  0.00  0.00    -0.503 OA
ATOM      9  H   UNL     1      36.461 -22.280 -18.573  0.00  0.00    +0.292 HD
ENDBRANCH   5   8
BRANCH   7  10
ATOM     10  O   UNL     1      32.771 -22.259 -18.802  0.00  0.00    -0.503 OA
ATOM     11  H   UNL     1      31.859 -22.096 -18.658  0.00  0.00    +0.292 HD
ENDBRANCH   7  10
ENDBRANCH   1   2
BRANCH   1  12
ATOM     12  CA  UNL     1      34.931 -17.567 -22.574  0.00  0.00    +0.040 C 
BRANCH  12  13
ATOM     13  N   UNL     1      35.441 -17.376 -23.931  0.00  0.00    +0.389 N 
ATOM     14  H1  UNL     1      36.059 -18.150 -24.174  0.00  0.00    -0.088 HD
ATOM     15  H2  UNL     1      35.958 -16.499 -23.980  0.00  0.00    -0.088 HD
ATOM     16  H3  UNL     1      34.659 -17.348 -24.586  0.00  0.00    -0.088 HD
ENDBRANCH  12  13
BRANCH  12  18
ATOM     17  OXT UNL     1      34.974 -16.017 -20.696  0.00  0.00    -0.253 OA
ATOM     18  C   UNL     1      34.952 -16.203 -21.906  0.00  0.00    +0.293 C 
BRANCH  18  19
ATOM     19  O   UNL     1      34.979 -15.188 -22.807  0.00  0.00    -0.482 OA
ATOM     20  H   UNL     1      35.239 -14.329 -22.537  0.00  0.00    +0.295 HD
ENDBRANCH  18  19
ENDBRANCH  12  18
ENDBRANCH   1  12
TORSDOF 7
ENDMDL
MODEL 2
REMARK VINA RESULT:      -7.3      1.372      2.265
REMARK  Name = 6047
REMARK  7 active torsions:
REMARK  status: ('A' for Active; 'I' for Inactive)
REMARK    1  A    between atoms: C_1  and  C_2
REMARK    2  A    between atoms: C_1  and  CA_12
REMARK    3  A    between atoms: C_5  and  O_8
REMARK    4  A    between atoms: C_7  and  O_10
REMARK    5  A    between atoms: CA_12  and  N_13
REMARK    6  A    between atoms: CA_12  and  C_18
REMARK    7  A    between atoms: C_18  and  O_19
REMARK                            x       y       z     vdW  Elec       q    Type
REMARK                         _______ _______ _______ _____ _____    ______ ____
ROOT
ATOM      1  C   UNL     1      34.283 -18.855 -21.875  0.00  0.00    +0.015 C 
ENDROOT
BRANCH   1   2
ATOM      2  C   UNL     1      34.495 -19.940 -20.843  0.00  0.00    -0.021 C 
ATOM      3  C   UNL     1      33.394 -20.530 -20.246  0.00  0.00    +0.035 C 
ATOM      4  C   UNL     1      35.785 -20.322 -20.518  0.00  0.00    -0.001 C 
ATOM      5  C   UNL     1      33.589 -21.531 -19.294  0.00  0.00    +0.167 C 
ATOM      6  C   UNL     1      35.981 -21.322 -19.566  0.00  0.00    +0.039 C 
ATOM      7  C   UNL     1      34.882 -21.927 -18.954  0.00  0.00    +0.167 C 
BRANCH   5   8
ATOM      8  O   UNL     1      32.509 -22.115 -18.704  0.00  0.00    -0.503 OA
ATOM      9  H   UNL     1      31.797 -22.422 -19.230  0.00  0.00    +0.292 HD
ENDBRANCH   5   8
BRANCH   7  10
ATOM     10  O   UNL     1      35.086 -22.905 -18.027  0.00  0.00    -0.503 OA
ATOM     11  H   UNL     1      35.310 -22.675 -17.147  0.00  0.00    +0.292 HD
ENDBRANCH   7  10
ENDBRANCH   1   2
BRANCH   1  12
ATOM     12  CA  UNL     1      35.316 -17.721 -21.768  0.00  0.00    +0.040 C 
BRANCH  12  13
ATOM     13  N   UNL     1      34.974 -16.847 -20.647  0.00  0.00    +0.389 N 
ATOM     14  H1  UNL     1      35.232 -15.887 -20.874  0.00  0.00    -0.088 HD
ATOM     15  H2  UNL     1      35.480 -17.147 -19.814  0.00  0.00    -0.088 HD
ATOM     16  H3  UNL     1      33.971 -16.896 -20.472  0.00  0.00    -0.088 HD
ENDBRANCH  12  13
BRANCH  12  18
ATOM     17  OXT UNL     1      35.242 -15.626 -23.008  0.00  0.00    -0.253 OA
ATOM     18  C   UNL     1      35.337 -16.847 -23.010  0.00  0.00    +0.293 C 
BRANCH  18  19
ATOM     19  O   UNL     1      35.508 -17.569 -24.147  0.00  0.00    -0.482 OA
ATOM     20  H   UNL     1      36.369 -17.702 -24.493  0.00  0.00    +0.295 HD
ENDBRANCH  18  19
ENDBRANCH  12  18
ENDBRANCH   1  12
TORSDOF 7
ENDMDL
MODEL 3
REMARK VINA RESULT:      -6.9      2.061      5.719
REMARK  Name = 6047
REMARK  7 active torsions:
REMARK  status: ('A' for Active; 'I' for Inactive)
REMARK    1  A    between atoms: C_1  and  C_2
REMARK    2  A    between atoms: C_1  and  CA_12
REMARK    3  A    between atoms: C_5  and  O_8
REMARK    4  A    between atoms: C_7  and  O_10
REMARK    5  A    between atoms: CA_12  and  N_13
REMARK    6  A    between atoms: CA_12  and  C_18
REMARK    7  A    between atoms: C_18  and  O_19
REMARK                            x       y       z     vdW  Elec       q    Type
REMARK                         _______ _______ _______ _____ _____    ______ ____
ROOT
ATOM      1  C   UNL     1      35.587 -19.212 -20.966  0.00  0.00    +0.015 C 
ENDROOT
BRANCH   1   2
ATOM      2  C   UNL     1      35.263 -18.519 -22.271  0.00  0.00    -0.021 C 
ATOM      3  C   UNL     1      35.266 -17.135 -22.320  0.00  0.00    +0.035 C 
ATOM      4  C   UNL     1      34.971 -19.281 -23.388  0.00  0.00    -0.001 C 
ATOM      5  C   UNL     1      34.967 -16.495 -23.523  0.00  0.00    +0.167 C 
ATOM      6  C   UNL     1      34.671 -18.642 -24.591  0.00  0.00    +0.039 C 
ATOM      7  C   UNL     1      34.669 -17.248 -24.658  0.00  0.00    +0.167 C 
BRANCH   5   8
ATOM      8  O   UNL     1      34.969 -15.134 -23.577  0.00  0.00    -0.503 OA
ATOM      9  H   UNL     1      34.331 -14.645 -23.096  0.00  0.00    +0.292 HD
ENDBRANCH   5   8
BRANCH   7  10
ATOM     10  O   UNL     1      34.377 -16.635 -25.839  0.00  0.00    -0.503 OA
ATOM     11  H   UNL     1      33.488 -16.422 -26.048  0.00  0.00    +0.292 HD
ENDBRANCH   7  10
ENDBRANCH   1   2
BRANCH   1  12
ATOM     12  CA  UNL     1      34.778 -20.503 -20.761  0.00  0.00    +0.040 C 
BRANCH  12  13
ATOM     13  N   UNL     1      33.431 -20.172 -20.297  0.00  0.00    +0.389 N 
ATOM     14  H1  UNL     1      33.435 -19.241 -19.881  0.00  0.00    -0.088 HD
ATOM     15  H2  UNL     1      33.134 -20.855 -19.601  0.00  0.00    -0.088 HD
ATOM     16  H3  UNL     1      32.787 -20.188 -21.087  0.00  0.00    -0.088 HD
ENDBRANCH  12  13
BRANCH  12  18
ATOM     17  OXT UNL     1      35.058 -22.559 -19.486  0.00  0.00    -0.253 OA
ATOM     18  C   UNL     1      35.393 -21.401 -19.702  0.00  0.00    +0.293 C 
BRANCH  18  19
ATOM     19  O   UNL     1      36.399 -20.789 -19.026  0.00  0.00    -0.482 OA
ATOM     20  H   UNL     1      37.134 -21.287 -18.726  0.00  0.00    +0.295 HD
ENDBRANCH  18  19
ENDBRANCH  12  18
ENDBRANCH   1  12
TORSDOF 7
ENDMDL
MODEL 4
REMARK VINA RESULT:      -6.8      8.094      9.249
REMARK  Name = 6047
REMARK  7 active torsions:
REMARK  status: ('A' for Active; 'I' for Inactive)
REMARK    1  A    between atoms: C_1  and  C_2
REMARK    2  A    between atoms: C_1  and  CA_12
REMARK    3  A    between atoms: C_5  and  O_8
REMARK    4  A    between atoms: C_7  and  O_10
REMARK    5  A    between atoms: CA_12  and  N_13
REMARK    6  A    between atoms: CA_12  and  C_18
REMARK    7  A    between atoms: C_18  and  O_19
REMARK                            x       y       z     vdW  Elec       q    Type
REMARK                         _______ _______ _______ _____ _____    ______ ____
ROOT
ATOM      1  C   UNL     1      29.388 -22.376 -16.373  0.00  0.00    +0.015 C 
ENDROOT
BRANCH   1   2
ATOM      2  C   UNL     1      30.429 -23.046 -15.504  0.00  0.00    -0.021 C 
ATOM      3  C   UNL     1      30.025 -23.734 -14.373  0.00  0.00    +0.035 C 
ATOM      4  C   UNL     1      31.764 -22.957 -15.858  0.00  0.00    -0.001 C 
ATOM      5  C   UNL     1      30.986 -24.350 -13.570  0.00  0.00    +0.167 C 
ATOM      6  C   UNL     1      32.725 -23.573 -15.057  0.00  0.00    +0.039 C 
ATOM      7  C   UNL     1      32.335 -24.270 -13.913  0.00  0.00    +0.167 C 
BRANCH   5   8
ATOM      8  O   UNL     1      30.594 -25.029 -12.456  0.00  0.00    -0.503 OA
ATOM      9  H   UNL     1      30.980 -24.829 -11.627  0.00  0.00    +0.292 HD
ENDBRANCH   5   8
BRANCH   7  10
ATOM     10  O   UNL     1      33.283 -24.870 -13.139  0.00  0.00    -0.503 OA
ATOM     11  H   UNL     1      33.079 -25.659 -12.677  0.00  0.00    +0.292 HD
ENDBRANCH   7  10
ENDBRANCH   1   2
BRANCH   1  12
ATOM     12  CA  UNL     1      28.005 -23.039 -16.263  0.00  0.00    +0.040 C 
BRANCH  12  13
ATOM     13  N   UNL     1      27.855 -24.042 -17.317  0.00  0.00    +0.389 N 
ATOM     14  H1  UNL     1      27.148 -23.732 -17.982  0.00  0.00    -0.088 HD
ATOM     15  H2  UNL     1      27.568 -24.929 -16.903  0.00  0.00    -0.088 HD
ATOM     16  H3  UNL     1      28.745 -24.164 -17.799  0.00  0.00    -0.088 HD
ENDBRANCH  12  13
BRANCH  12  18
ATOM     17  OXT UNL     1      26.784 -21.255 -17.385  0.00  0.00    -0.253 OA
ATOM     18  C   UNL     1      26.876 -22.041 -16.450  0.00  0.00    +0.293 C 
BRANCH  18  19
ATOM     19  O   UNL     1      25.939 -22.132 -15.471  0.00  0.00    -0.482 OA
ATOM     20  H   UNL     1      25.649 -22.973 -15.177  0.00  0.00    +0.295 HD
ENDBRANCH  18  19
ENDBRANCH  12  18
ENDBRANCH   1  12
TORSDOF 7
ENDMDL
MODEL 5
REMARK VINA RESULT:      -6.7      1.912      5.413
REMARK  Name = 6047
REMARK  7 active torsions:
REMARK  status: ('A' for Active; 'I' for Inactive)
REMARK    1  A    between atoms: C_1  and  C_2
REMARK    2  A    between atoms: C_1  and  CA_12
REMARK    3  A    between atoms: C_5  and  O_8
REMARK    4  A    between atoms: C_7  and  O_10
REMARK    5  A    between atoms: CA_12  and  N_13
REMARK    6  A    between atoms: CA_12  and  C_18
REMARK    7  A    between atoms: C_18  and  O_19
REMARK                            x       y       z     vdW  Elec       q    Type
REMARK                         _______ _______ _______ _____ _____    ______ ____
ROOT
ATOM      1  C   UNL     1      34.960 -20.080 -21.791  0.00  0.00    +0.015 C 
ENDROOT
BRANCH   1   2
ATOM      2  C   UNL     1      34.932 -18.606 -22.129  0.00  0.00    -0.021 C 
ATOM      3  C   UNL     1      34.929 -17.676 -21.102  0.00  0.00    +0.035 C 
ATOM      4  C   UNL     1      34.910 -18.216 -23.457  0.00  0.00    -0.001 C 
ATOM      5  C   UNL     1      34.901 -16.317 -21.413  0.00  0.00    +0.167 C 
ATOM      6  C   UNL     1      34.882 -16.857 -23.768  0.00  0.00    +0.039 C 
ATOM      7  C   UNL     1      34.878 -15.908 -22.747  0.00  0.00    +0.167 C 
BRANCH   5   8
ATOM      8  O   UNL     1      34.898 -15.399 -20.408  0.00  0.00    -0.503 OA
ATOM      9  H   UNL     1      34.965 -14.486 -20.607  0.00  0.00    +0.292 HD
ENDBRANCH   5   8
BRANCH   7  10
ATOM     10  O   UNL     1      34.853 -14.583 -23.064  0.00  0.00    -0.503 OA
ATOM     11  H   UNL     1      35.271 -14.281 -23.847  0.00  0.00    +0.292 HD
ENDBRANCH   7  10
ENDBRANCH   1   2
BRANCH   1  12
ATOM     12  CA  UNL     1      34.716 -20.354 -20.298  0.00  0.00    +0.040 C 
BRANCH  12  13
ATOM     13  N   UNL     1      35.681 -21.339 -19.813  0.00  0.00    +0.389 N 
ATOM     14  H1  UNL     1      35.302 -21.810 -18.992  0.00  0.00    -0.088 HD
ATOM     15  H2  UNL     1      36.551 -20.870 -19.565  0.00  0.00    -0.088 HD
ATOM     16  H3  UNL     1      35.861 -22.026 -20.545  0.00  0.00    -0.088 HD
ENDBRANCH  12  13
BRANCH  12  18
ATOM     17  OXT UNL     1      33.111 -22.103 -19.750  0.00  0.00    -0.253 OA
ATOM     18  C   UNL     1      33.336 -20.934 -20.042  0.00  0.00    +0.293 C 
BRANCH  18  19
ATOM     19  O   UNL     1      32.356 -20.000 -20.139  0.00  0.00    -0.482 OA
ATOM     20  H   UNL     1      31.669 -19.972 -19.501  0.00  0.00    +0.295 HD
ENDBRANCH  18  19
ENDBRANCH  12  18
ENDBRANCH   1  12
TORSDOF 7
ENDMDL
MODEL 6
REMARK VINA RESULT:      -6.6      2.095      5.732
REMARK  Name = 6047
REMARK  7 active torsions:
REMARK  status: ('A' for Active; 'I' for Inactive)
REMARK    1  A    between atoms: C_1  and  C_2
REMARK    2  A    between atoms: C_1  and  CA_12
REMARK    3  A    between atoms: C_5  and  O_8
REMARK    4  A    between atoms: C_7  and  O_10
REMARK    5  A    between atoms: CA_12  and  N_13
REMARK    6  A    between atoms: CA_12  and  C_18
REMARK    7  A    between atoms: C_18  and  O_19
REMARK                            x       y       z     vdW  Elec       q    Type
REMARK                         _______ _______ _______ _____ _____    ______ ____
ROOT
ATOM      1  C   UNL     1      34.928 -19.720 -22.074  0.00  0.00    +0.015 C 
ENDROOT
BRANCH   1   2
ATOM      2  C   UNL     1      34.775 -18.310 -22.600  0.00  0.00    -0.021 C 
ATOM      3  C   UNL     1      34.816 -18.090 -23.966  0.00  0.00    +0.035 C 
ATOM      4  C   UNL     1      34.596 -17.270 -21.705  0.00  0.00    -0.001 C 
ATOM      5  C   UNL     1      34.677 -16.790 -24.452  0.00  0.00    +0.167 C 
ATOM      6  C   UNL     1      34.457 -15.969 -22.190  0.00  0.00    +0.039 C 
ATOM      7  C   UNL     1      34.496 -15.730 -23.564  0.00  0.00    +0.167 C 
BRANCH   5   8
ATOM      8  O   UNL     1      34.716 -16.568 -25.795  0.00  0.00    -0.503 OA
ATOM      9  H   UNL     1      34.136 -17.034 -26.364  0.00  0.00    +0.292 HD
ENDBRANCH   5   8
BRANCH   7  10
ATOM     10  O   UNL     1      34.357 -14.455 -24.025  0.00  0.00    -0.503 OA
ATOM     11  H   UNL     1      33.502 -14.081 -24.114  0.00  0.00    +0.292 HD
ENDBRANCH   7  10
ENDBRANCH   1   2
BRANCH   1  12
ATOM     12  CA  UNL     1      34.758 -19.809 -20.549  0.00  0.00    +0.040 C 
BRANCH  12  13
ATOM     13  N   UNL     1      35.950 -20.411 -19.954  0.00  0.00    +0.389 N 
ATOM     14  H1  UNL     1      36.417 -19.727 -19.360  0.00  0.00    -0.088 HD
ATOM     15  H2  UNL     1      36.585 -20.710 -20.694  0.00  0.00    -0.088 HD
ATOM     16  H3  UNL     1      35.678 -21.218 -19.393  0.00  0.00    -0.088 HD
ENDBRANCH  12  13
BRANCH  12  18
ATOM     17  OXT UNL     1      33.624 -21.568 -19.304  0.00  0.00    -0.253 OA
ATOM     18  C   UNL     1      33.584 -20.687 -20.154  0.00  0.00    +0.293 C 
BRANCH  18  19
ATOM     19  O   UNL     1      32.451 -20.369 -20.830  0.00  0.00    -0.482 OA
ATOM     20  H   UNL     1      32.352 -19.516 -21.205  0.00  0.00    +0.295 HD
ENDBRANCH  18  19
ENDBRANCH  12  18
ENDBRANCH   1  12
TORSDOF 7
ENDMDL
MODEL 7
REMARK VINA RESULT:      -6.5      6.662      8.419
REMARK  Name = 6047
REMARK  7 active torsions:
REMARK  status: ('A' for Active; 'I' for Inactive)
REMARK    1  A    between atoms: C_1  and  C_2
REMARK    2  A    between atoms: C_1  and  CA_12
REMARK    3  A    between atoms: C_5  and  O_8
REMARK    4  A    between atoms: C_7  and  O_10
REMARK    5  A    between atoms: CA_12  and  N_13
REMARK    6  A    between atoms: CA_12  and  C_18
REMARK    7  A    between atoms: C_18  and  O_19
REMARK                            x       y       z     vdW  Elec       q    Type
REMARK                         _______ _______ _______ _____ _____    ______ ____
ROOT
ATOM      1  C   UNL     1      29.852 -22.671 -15.015  0.00  0.00    +0.015 C 
ENDROOT
BRANCH   1   2
ATOM      2  C   UNL     1      31.281 -22.954 -15.423  0.00  0.00    -0.021 C 
ATOM      3  C   UNL     1      31.626 -22.895 -16.763  0.00  0.00    +0.035 C 
ATOM      4  C   UNL     1      32.213 -23.266 -14.450  0.00  0.00    -0.001 C 
ATOM      5  C   UNL     1      32.943 -23.157 -17.140  0.00  0.00    +0.167 C 
ATOM      6  C   UNL     1      33.530 -23.529 -14.826  0.00  0.00    +0.039 C 
ATOM      7  C   UNL     1      33.895 -23.474 -16.172  0.00  0.00    +0.167 C 
BRANCH   5   8
ATOM      8  O   UNL     1      33.287 -23.100 -18.457  0.00  0.00    -0.503 OA
ATOM      9  H   UNL     1      32.638 -22.901 -19.102  0.00  0.00    +0.292 HD
ENDBRANCH   5   8
BRANCH   7  10
ATOM     10  O   UNL     1      35.185 -23.730 -16.527  0.00  0.00    -0.503 OA
ATOM     11  H   UNL     1      35.857 -23.742 -15.874  0.00  0.00    +0.292 HD
ENDBRANCH   7  10
ENDBRANCH   1   2
BRANCH   1  12
ATOM     12  CA  UNL     1      28.862 -23.722 -15.542  0.00  0.00    +0.040 C 
BRANCH  12  13
ATOM     13  N   UNL     1      29.579 -24.954 -15.869  0.00  0.00    +0.389 N 
ATOM     14  H1  UNL     1      28.908 -25.688 -16.094  0.00  0.00    -0.088 HD
ATOM     15  H2  UNL     1      30.143 -25.242 -15.070  0.00  0.00    -0.088 HD
ATOM     16  H3  UNL     1      30.185 -24.790 -16.673  0.00  0.00    -0.088 HD
ENDBRANCH  12  13
BRANCH  12  18
ATOM     17  OXT UNL     1      27.673 -24.020 -17.646  0.00  0.00    -0.253 OA
ATOM     18  C   UNL     1      28.171 -23.269 -16.816  0.00  0.00    +0.293 C 
BRANCH  18  19
ATOM     19  O   UNL     1      28.132 -21.917 -16.930  0.00  0.00    -0.482 OA
ATOM     20  H   UNL     1      27.714 -21.521 -17.670  0.00  0.00    +0.295 HD
ENDBRANCH  18  19
ENDBRANCH  12  18
ENDBRANCH   1  12
TORSDOF 7
ENDMDL
MODEL 8
REMARK VINA RESULT:      -6.5      7.457      8.688
REMARK  Name = 6047
REMARK  7 active torsions:
REMARK  status: ('A' for Active; 'I' for Inactive)
REMARK    1  A    between atoms: C_1  and  C_2
REMARK    2  A    between atoms: C_1  and  CA_12
REMARK    3  A    between atoms: C_5  and  O_8
REMARK    4  A    between atoms: C_7  and  O_10
REMARK    5  A    between atoms: CA_12  and  N_13
REMARK    6  A    between atoms: CA_12  and  C_18
REMARK    7  A    between atoms: C_18  and  O_19
REMARK                            x       y       z     vdW  Elec       q    Type
REMARK                         _______ _______ _______ _____ _____    ______ ____
ROOT
ATOM      1  C   UNL     1      29.897 -22.712 -14.980  0.00  0.00    +0.015 C 
ENDROOT
BRANCH   1   2
ATOM      2  C   UNL     1      31.336 -23.154 -15.125  0.00  0.00    -0.021 C 
ATOM      3  C   UNL     1      31.993 -23.687 -14.029  0.00  0.00    +0.035 C 
ATOM      4  C   UNL     1      31.967 -23.016 -16.349  0.00  0.00    -0.001 C 
ATOM      5  C   UNL     1      33.321 -24.093 -14.161  0.00  0.00    +0.167 C 
ATOM      6  C   UNL     1      33.295 -23.421 -16.482  0.00  0.00    +0.039 C 
ATOM      7  C   UNL     1      33.972 -23.961 -15.388  0.00  0.00    +0.167 C 
BRANCH   5   8
ATOM      8  O   UNL     1      33.972 -24.619 -13.086  0.00  0.00    -0.503 OA
ATOM      9  H   UNL     1      34.223 -25.522 -13.087  0.00  0.00    +0.292 HD
ENDBRANCH   5   8
BRANCH   7  10
ATOM     10  O   UNL     1      35.268 -24.356 -15.531  0.00  0.00    -0.503 OA
ATOM     11  H   UNL     1      35.943 -23.934 -15.035  0.00  0.00    +0.292 HD
ENDBRANCH   7  10
ENDBRANCH   1   2
BRANCH   1  12
ATOM     12  CA  UNL     1      28.900 -23.741 -15.537  0.00  0.00    +0.040 C 
BRANCH  12  13
ATOM     13  N   UNL     1      29.590 -25.001 -15.808  0.00  0.00    +0.389 N 
ATOM     14  H1  UNL     1      29.584 -25.183 -16.810  0.00  0.00    -0.088 HD
ATOM     15  H2  UNL     1      29.115 -25.760 -15.320  0.00  0.00    -0.088 HD
ATOM     16  H3  UNL     1      30.554 -24.937 -15.480  0.00  0.00    -0.088 HD
ENDBRANCH  12  13
BRANCH  12  18
ATOM     17  OXT UNL     1      27.683 -24.020 -17.628  0.00  0.00    -0.253 OA
ATOM     18  C   UNL     1      28.286 -23.290 -16.851  0.00  0.00    +0.293 C 
BRANCH  18  19
ATOM     19  O   UNL     1      28.450 -21.960 -17.068  0.00  0.00    -0.482 OA
ATOM     20  H   UNL     1      29.308 -21.584 -17.050  0.00  0.00    +0.295 HD
ENDBRANCH  18  19
ENDBRANCH  12  18
ENDBRANCH   1  12
TORSDOF 7
ENDMDL
MODEL 9
REMARK VINA RESULT:      -6.5      7.721      9.426
REMARK  Name = 6047
REMARK  7 active torsions:
REMARK  status: ('A' for Active; 'I' for Inactive)
REMARK    1  A    between atoms: C_1  and  C_2
REMARK    2  A    between atoms: C_1  and  CA_12
REMARK    3  A    between atoms: C_5  and  O_8
REMARK    4  A    between atoms: C_7  and  O_10
REMARK    5  A    between atoms: CA_12  and  N_13
REMARK    6  A    between atoms: CA_12  and  C_18
REMARK    7  A    between atoms: C_18  and  O_19
REMARK                            x       y       z     vdW  Elec       q    Type
REMARK                         _______ _______ _______ _____ _____    ______ ____
ROOT
ATOM      1  C   UNL     1      37.852 -24.164 -14.196  0.00  0.00    +0.015 C 
ENDROOT
BRANCH   1   2
ATOM      2  C   UNL     1      36.382 -23.995 -14.510  0.00  0.00    -0.021 C 
ATOM      3  C   UNL     1      35.440 -24.484 -13.622  0.00  0.00    +0.035 C 
ATOM      4  C   UNL     1      36.010 -23.354 -15.679  0.00  0.00    -0.001 C 
ATOM      5  C   UNL     1      34.084 -24.329 -13.912  0.00  0.00    +0.167 C 
ATOM      6  C   UNL     1      34.655 -23.200 -15.971  0.00  0.00    +0.039 C 
ATOM      7  C   UNL     1      33.691 -23.687 -15.086  0.00  0.00    +0.167 C 
BRANCH   5   8
ATOM      8  O   UNL     1      33.153 -24.808 -13.041  0.00  0.00    -0.503 OA
ATOM      9  H   UNL     1      33.293 -25.627 -12.609  0.00  0.00    +0.292 HD
ENDBRANCH   5   8
BRANCH   7  10
ATOM     10  O   UNL     1      32.371 -23.528 -15.380  0.00  0.00    -0.503 OA
ATOM     11  H   UNL     1      31.792 -24.264 -15.345  0.00  0.00    +0.292 HD
ENDBRANCH   7  10
ENDBRANCH   1   2
BRANCH   1  12
ATOM     12  CA  UNL     1      38.462 -25.412 -14.852  0.00  0.00    +0.040 C 
BRANCH  12  13
ATOM     13  N   UNL     1      38.170 -26.591 -14.038  0.00  0.00    +0.389 N 
ATOM     14  H1  UNL     1      37.264 -26.474 -13.585  0.00  0.00    -0.088 HD
ATOM     15  H2  UNL     1      38.894 -26.702 -13.329  0.00  0.00    -0.088 HD
ATOM     16  H3  UNL     1      38.147 -27.418 -14.634  0.00  0.00    -0.088 HD
ENDBRANCH  12  13
BRANCH  12  18
ATOM     17  OXT UNL     1      40.701 -24.773 -14.138  0.00  0.00    -0.253 OA
ATOM     18  C   UNL     1      39.975 -25.321 -14.958  0.00  0.00    +0.293 C 
BRANCH  18  19
ATOM     19  O   UNL     1      40.454 -25.952 -16.060  0.00  0.00    -0.482 OA
ATOM     20  H   UNL     1      40.970 -26.730 -15.968  0.00  0.00    +0.295 HD
ENDBRANCH  18  19
ENDBRANCH  12  18
ENDBRANCH   1  12
TORSDOF 7
ENDMDL
