MODEL 1
REMARK VINA RESULT:      -9.3      0.000      0.000
REMARK  Name = 4993
REMARK  2 active torsions:
REMARK  status: ('A' for Active; 'I' for Inactive)
REMARK    1  A    between atoms: C_5  and  C_14
REMARK    2  A    between atoms: C_6  and  C_20
REMARK                            x       y       z     vdW  Elec       q    Type
REMARK                         _______ _______ _______ _____ _____    ______ ____
ROOT
ATOM      1  N   UNL     1      33.998 -15.509 -23.812  0.00  0.00    -0.337 NA
ATOM      2  N   UNL     1      34.177 -17.270 -25.447  0.00  0.00    -0.317 NA
ATOM      3  N   UNL     1      34.832 -19.449 -24.801  0.00  0.00    -0.335 N 
ATOM      4  N   UNL     1      33.527 -15.105 -26.075  0.00  0.00    -0.283 N 
ATOM      5  C   UNL     1      34.668 -17.720 -23.133  0.00  0.00    +0.138 C 
ATOM      6  C   UNL     1      34.376 -16.396 -22.869  0.00  0.00    +0.112 C 
ATOM      7  C   UNL     1      34.549 -18.104 -24.454  0.00  0.00    +0.178 C 
ATOM      8  C   UNL     1      33.920 -16.005 -25.062  0.00  0.00    +0.196 C 
ATOM      9  H   UNL     1      34.754 -19.742 -25.737  0.00  0.00    +0.144 HD
ATOM     10  H   UNL     1      35.108 -20.089 -24.107  0.00  0.00    +0.144 HD
ATOM     11  H   UNL     1      33.327 -14.168 -25.850  0.00  0.00    +0.156 HD
ATOM     12  H   UNL     1      33.453 -15.415 -27.007  0.00  0.00    +0.156 HD
ENDROOT
BRANCH   5  14
ATOM     13 CL   UNL     1      36.320 -21.493 -18.829  0.00  0.00    -0.082 Cl
ATOM     14  C   UNL     1      35.069 -18.636 -22.086  0.00  0.00    -0.008 C 
ATOM     15  C   UNL     1      36.401 -18.684 -21.674  0.00  0.00    -0.003 C 
ATOM     16  C   UNL     1      34.124 -19.472 -21.492  0.00  0.00    -0.003 C 
ATOM     17  C   UNL     1      36.788 -19.566 -20.667  0.00  0.00    +0.011 C 
ATOM     18  C   UNL     1      34.512 -20.355 -20.483  0.00  0.00    +0.011 C 
ATOM     19  C   UNL     1      35.843 -20.402 -20.071  0.00  0.00    +0.058 C 
ENDBRANCH   5  14
BRANCH   6  20
ATOM     20  C   UNL     1      34.465 -15.851 -21.480  0.00  0.00    +0.056 C 
ATOM     21  C   UNL     1      33.087 -15.584 -20.879  0.00  0.00    +0.008 C 
ENDBRANCH   6  20
TORSDOF 2
ENDMDL
MODEL 2
REMARK VINA RESULT:      -8.6      1.413      2.716
REMARK  Name = 4993
REMARK  2 active torsions:
REMARK  status: ('A' for Active; 'I' for Inactive)
REMARK    1  A    between atoms: C_5  and  C_14
REMARK    2  A    between atoms: C_6  and  C_20
REMARK                            x       y       z     vdW  Elec       q    Type
REMARK                         _______ _______ _______ _____ _____    ______ ____
ROOT
ATOM      1  N   UNL     1      34.505 -15.695 -24.306  0.00  0.00    -0.337 NA
ATOM      2  N   UNL     1      34.129 -14.568 -22.209  0.00  0.00    -0.317 NA
ATOM      3  N   UNL     1      34.273 -15.751 -20.165  0.00  0.00    -0.335 N 
ATOM      4  N   UNL     1      33.989 -13.407 -24.242  0.00  0.00    -0.283 N 
ATOM      5  C   UNL     1      34.656 -16.918 -22.236  0.00  0.00    +0.138 C 
ATOM      6  C   UNL     1      34.719 -16.833 -23.613  0.00  0.00    +0.112 C 
ATOM      7  C   UNL     1      34.354 -15.741 -21.580  0.00  0.00    +0.178 C 
ATOM      8  C   UNL     1      34.218 -14.616 -23.552  0.00  0.00    +0.196 C 
ATOM      9  H   UNL     1      34.059 -14.922 -19.679  0.00  0.00    +0.144 HD
ATOM     10  H   UNL     1      34.431 -16.586 -19.669  0.00  0.00    +0.144 HD
ATOM     11  H   UNL     1      34.041 -13.384 -25.225  0.00  0.00    +0.156 HD
ATOM     12  H   UNL     1      33.775 -12.587 -23.741  0.00  0.00    +0.156 HD
ENDROOT
BRANCH   5  14
ATOM     13 CL   UNL     1      35.635 -22.045 -19.365  0.00  0.00    -0.082 Cl
ATOM     14  C   UNL     1      34.894 -18.163 -21.537  0.00  0.00    -0.008 C 
ATOM     15  C   UNL     1      36.198 -18.557 -21.238  0.00  0.00    -0.003 C 
ATOM     16  C   UNL     1      33.819 -18.970 -21.166  0.00  0.00    -0.003 C 
ATOM     17  C   UNL     1      36.428 -19.756 -20.565  0.00  0.00    +0.011 C 
ATOM     18  C   UNL     1      34.049 -20.170 -20.493  0.00  0.00    +0.011 C 
ATOM     19  C   UNL     1      35.352 -20.564 -20.192  0.00  0.00    +0.058 C 
ENDBRANCH   5  14
BRANCH   6  20
ATOM     20  C   UNL     1      35.037 -18.035 -24.444  0.00  0.00    +0.056 C 
ATOM     21  C   UNL     1      33.800 -18.591 -25.145  0.00  0.00    +0.008 C 
ENDBRANCH   6  20
TORSDOF 2
ENDMDL
MODEL 3
REMARK VINA RESULT:      -8.4     10.064     11.714
REMARK  Name = 4993
REMARK  2 active torsions:
REMARK  status: ('A' for Active; 'I' for Inactive)
REMARK    1  A    between atoms: C_5  and  C_14
REMARK    2  A    between atoms: C_6  and  C_20
REMARK                            x       y       z     vdW  Elec       q    Type
REMARK                         _______ _______ _______ _____ _____    ______ ____
ROOT
ATOM      1  N   UNL     1      38.926 -24.682 -13.539  0.00  0.00    -0.337 NA
ATOM      2  N   UNL     1      38.319 -26.699 -14.712  0.00  0.00    -0.317 NA
ATOM      3  N   UNL     1      36.122 -26.998 -15.533  0.00  0.00    -0.335 N 
ATOM      4  N   UNL     1      40.495 -26.389 -13.892  0.00  0.00    -0.283 N 
ATOM      5  C   UNL     1      36.681 -24.967 -14.366  0.00  0.00    +0.138 C 
ATOM      6  C   UNL     1      37.661 -24.245 -13.713  0.00  0.00    +0.112 C 
ATOM      7  C   UNL     1      37.073 -26.200 -14.850  0.00  0.00    +0.178 C 
ATOM      8  C   UNL     1      39.182 -25.900 -14.055  0.00  0.00    +0.196 C 
ATOM      9  H   UNL     1      36.381 -27.879 -15.885  0.00  0.00    +0.144 HD
ATOM     10  H   UNL     1      35.202 -26.671 -15.655  0.00  0.00    +0.144 HD
ATOM     11  H   UNL     1      41.168 -25.847 -13.420  0.00  0.00    +0.156 HD
ATOM     12  H   UNL     1      40.739 -27.274 -14.251  0.00  0.00    +0.156 HD
ENDROOT
BRANCH   5  14
ATOM     13 CL   UNL     1      31.151 -22.856 -15.032  0.00  0.00    -0.082 Cl
ATOM     14  C   UNL     1      35.337 -24.455 -14.529  0.00  0.00    -0.008 C 
ATOM     15  C   UNL     1      34.981 -23.790 -15.701  0.00  0.00    -0.003 C 
ATOM     16  C   UNL     1      34.399 -24.625 -13.510  0.00  0.00    -0.003 C 
ATOM     17  C   UNL     1      33.687 -23.297 -15.858  0.00  0.00    +0.011 C 
ATOM     18  C   UNL     1      33.104 -24.131 -13.667  0.00  0.00    +0.011 C 
ATOM     19  C   UNL     1      32.747 -23.467 -14.840  0.00  0.00    +0.058 C 
ENDBRANCH   5  14
BRANCH   6  20
ATOM     20  C   UNL     1      37.369 -22.895 -13.141  0.00  0.00    +0.056 C 
ATOM     21  C   UNL     1      37.167 -22.943 -11.629  0.00  0.00    +0.008 C 
ENDBRANCH   6  20
TORSDOF 2
ENDMDL
MODEL 4
REMARK VINA RESULT:      -8.3      4.345      6.561
REMARK  Name = 4993
REMARK  2 active torsions:
REMARK  status: ('A' for Active; 'I' for Inactive)
REMARK    1  A    between atoms: C_5  and  C_14
REMARK    2  A    between atoms: C_6  and  C_20
REMARK                            x       y       z     vdW  Elec       q    Type
REMARK                         _______ _______ _______ _____ _____    ______ ____
ROOT
ATOM      1  N   UNL     1      34.729 -16.511 -23.618  0.00  0.00    -0.337 NA
ATOM      2  N   UNL     1      33.604 -16.205 -25.727  0.00  0.00    -0.317 NA
ATOM      3  N   UNL     1      32.473 -14.183 -26.205  0.00  0.00    -0.335 N 
ATOM      4  N   UNL     1      34.728 -18.205 -25.241  0.00  0.00    -0.283 N 
ATOM      5  C   UNL     1      33.583 -14.444 -24.084  0.00  0.00    +0.138 C 
ATOM      6  C   UNL     1      34.335 -15.269 -23.270  0.00  0.00    +0.112 C 
ATOM      7  C   UNL     1      33.244 -14.971 -25.314  0.00  0.00    +0.178 C 
ATOM      8  C   UNL     1      34.334 -16.910 -24.842  0.00  0.00    +0.196 C 
ATOM      9  H   UNL     1      32.221 -14.540 -27.086  0.00  0.00    +0.144 HD
ATOM     10  H   UNL     1      32.190 -13.278 -25.941  0.00  0.00    +0.144 HD
ATOM     11  H   UNL     1      35.264 -18.766 -24.634  0.00  0.00    +0.156 HD
ATOM     12  H   UNL     1      34.468 -18.549 -26.127  0.00  0.00    +0.156 HD
ENDROOT
BRANCH   5  14
ATOM     13 CL   UNL     1      31.940  -8.982 -22.367  0.00  0.00    -0.082 Cl
ATOM     14  C   UNL     1      33.185 -13.117 -23.665  0.00  0.00    -0.008 C 
ATOM     15  C   UNL     1      32.166 -12.958 -22.727  0.00  0.00    -0.003 C 
ATOM     16  C   UNL     1      33.819 -11.997 -24.204  0.00  0.00    -0.003 C 
ATOM     17  C   UNL     1      31.781 -11.680 -22.325  0.00  0.00    +0.011 C 
ATOM     18  C   UNL     1      33.434 -10.718 -23.801  0.00  0.00    +0.011 C 
ATOM     19  C   UNL     1      32.416 -10.559 -22.862  0.00  0.00    +0.058 C 
ENDBRANCH   5  14
BRANCH   6  20
ATOM     20  C   UNL     1      34.769 -14.820 -21.911  0.00  0.00    +0.056 C 
ATOM     21  C   UNL     1      34.289 -15.764 -20.813  0.00  0.00    +0.008 C 
ENDBRANCH   6  20
TORSDOF 2
ENDMDL
MODEL 5
REMARK VINA RESULT:      -8.2      4.628      6.628
REMARK  Name = 4993
REMARK  2 active torsions:
REMARK  status: ('A' for Active; 'I' for Inactive)
REMARK    1  A    between atoms: C_5  and  C_14
REMARK    2  A    between atoms: C_6  and  C_20
REMARK                            x       y       z     vdW  Elec       q    Type
REMARK                         _______ _______ _______ _____ _____    ______ ____
ROOT
ATOM      1  N   UNL     1      33.306  -9.873 -23.901  0.00  0.00    -0.337 NA
ATOM      2  N   UNL     1      31.913 -10.757 -22.145  0.00  0.00    -0.317 NA
ATOM      3  N   UNL     1      31.728 -13.093 -21.817  0.00  0.00    -0.335 N 
ATOM      4  N   UNL     1      32.105  -8.444 -22.480  0.00  0.00    -0.283 N 
ATOM      5  C   UNL     1      33.132 -12.254 -23.585  0.00  0.00    +0.138 C 
ATOM      6  C   UNL     1      33.623 -11.140 -24.238  0.00  0.00    +0.112 C 
ATOM      7  C   UNL     1      32.272 -11.999 -22.535  0.00  0.00    +0.178 C 
ATOM      8  C   UNL     1      32.458  -9.756 -22.861  0.00  0.00    +0.196 C 
ATOM      9  H   UNL     1      31.114 -12.932 -21.066  0.00  0.00    +0.144 HD
ATOM     10  H   UNL     1      31.965 -14.014 -22.070  0.00  0.00    +0.144 HD
ATOM     11  H   UNL     1      32.474  -7.673 -22.969  0.00  0.00    +0.156 HD
ATOM     12  H   UNL     1      31.488  -8.299 -21.725  0.00  0.00    +0.156 HD
ENDROOT
BRANCH   5  14
ATOM     13 CL   UNL     1      34.649 -17.778 -25.219  0.00  0.00    -0.082 Cl
ATOM     14  C   UNL     1      33.501 -13.596 -23.983  0.00  0.00    -0.008 C 
ATOM     15  C   UNL     1      32.989 -14.140 -25.160  0.00  0.00    -0.003 C 
ATOM     16  C   UNL     1      34.368 -14.345 -23.187  0.00  0.00    -0.003 C 
ATOM     17  C   UNL     1      33.344 -15.433 -25.543  0.00  0.00    +0.011 C 
ATOM     18  C   UNL     1      34.724 -15.638 -23.571  0.00  0.00    +0.011 C 
ATOM     19  C   UNL     1      34.213 -16.182 -24.748  0.00  0.00    +0.058 C 
ENDBRANCH   5  14
BRANCH   6  20
ATOM     20  C   UNL     1      34.563 -11.278 -25.392  0.00  0.00    +0.056 C 
ATOM     21  C   UNL     1      35.515 -10.090 -25.502  0.00  0.00    +0.008 C 
ENDBRANCH   6  20
TORSDOF 2
ENDMDL
MODEL 6
REMARK VINA RESULT:      -8.1      7.320      9.742
REMARK  Name = 4993
REMARK  2 active torsions:
REMARK  status: ('A' for Active; 'I' for Inactive)
REMARK    1  A    between atoms: C_5  and  C_14
REMARK    2  A    between atoms: C_6  and  C_20
REMARK                            x       y       z     vdW  Elec       q    Type
REMARK                         _______ _______ _______ _____ _____    ______ ____
ROOT
ATOM      1  N   UNL     1      34.104 -12.169 -24.017  0.00  0.00    -0.337 NA
ATOM      2  N   UNL     1      32.223 -13.015 -22.771  0.00  0.00    -0.317 NA
ATOM      3  N   UNL     1      30.681 -11.531 -21.764  0.00  0.00    -0.335 N 
ATOM      4  N   UNL     1      33.759 -14.477 -23.773  0.00  0.00    -0.283 N 
ATOM      5  C   UNL     1      32.546 -10.640 -23.000  0.00  0.00    +0.138 C 
ATOM      6  C   UNL     1      33.676 -10.919 -23.743  0.00  0.00    +0.112 C 
ATOM      7  C   UNL     1      31.852 -11.739 -22.535  0.00  0.00    +0.178 C 
ATOM      8  C   UNL     1      33.342 -13.155 -23.507  0.00  0.00    +0.196 C 
ATOM      9  H   UNL     1      30.172 -12.301 -21.424  0.00  0.00    +0.144 HD
ATOM     10  H   UNL     1      30.377 -10.616 -21.569  0.00  0.00    +0.144 HD
ATOM     11  H   UNL     1      34.571 -14.639 -24.307  0.00  0.00    +0.156 HD
ATOM     12  H   UNL     1      33.239 -15.237 -23.425  0.00  0.00    +0.156 HD
ENDROOT
BRANCH   5  14
ATOM     13 CL   UNL     1      30.811  -5.048 -21.899  0.00  0.00    -0.082 Cl
ATOM     14  C   UNL     1      32.126  -9.281 -22.733  0.00  0.00    -0.008 C 
ATOM     15  C   UNL     1      32.516  -8.649 -21.552  0.00  0.00    -0.003 C 
ATOM     16  C   UNL     1      31.328  -8.604 -23.656  0.00  0.00    -0.003 C 
ATOM     17  C   UNL     1      32.110  -7.340 -21.294  0.00  0.00    +0.011 C 
ATOM     18  C   UNL     1      30.923  -7.294 -23.398  0.00  0.00    +0.011 C 
ATOM     19  C   UNL     1      31.314  -6.662 -22.218  0.00  0.00    +0.058 C 
ENDBRANCH   5  14
BRANCH   6  20
ATOM     20  C   UNL     1      34.518  -9.819 -24.306  0.00  0.00    +0.056 C 
ATOM     21  C   UNL     1      35.330 -10.278 -25.514  0.00  0.00    +0.008 C 
ENDBRANCH   6  20
TORSDOF 2
ENDMDL
MODEL 7
REMARK VINA RESULT:      -8.1      4.614      6.894
REMARK  Name = 4993
REMARK  2 active torsions:
REMARK  status: ('A' for Active; 'I' for Inactive)
REMARK    1  A    between atoms: C_5  and  C_14
REMARK    2  A    between atoms: C_6  and  C_20
REMARK                            x       y       z     vdW  Elec       q    Type
REMARK                         _______ _______ _______ _____ _____    ______ ____
ROOT
ATOM      1  N   UNL     1      33.682 -16.035 -25.682  0.00  0.00    -0.337 NA
ATOM      2  N   UNL     1      34.704 -16.400 -23.530  0.00  0.00    -0.317 NA
ATOM      3  N   UNL     1      34.647 -14.714 -21.871  0.00  0.00    -0.335 N 
ATOM      4  N   UNL     1      34.753 -18.062 -25.184  0.00  0.00    -0.283 N 
ATOM      5  C   UNL     1      33.614 -14.305 -24.007  0.00  0.00    +0.138 C 
ATOM      6  C   UNL     1      33.323 -14.805 -25.262  0.00  0.00    +0.112 C 
ATOM      7  C   UNL     1      34.313 -15.157 -23.175  0.00  0.00    +0.178 C 
ATOM      8  C   UNL     1      34.361 -16.769 -24.779  0.00  0.00    +0.196 C 
ATOM      9  H   UNL     1      35.145 -15.306 -21.263  0.00  0.00    +0.144 HD
ATOM     10  H   UNL     1      34.381 -13.815 -21.574  0.00  0.00    +0.144 HD
ATOM     11  H   UNL     1      34.529 -18.385 -26.086  0.00  0.00    +0.156 HD
ATOM     12  H   UNL     1      35.251 -18.643 -24.563  0.00  0.00    +0.156 HD
ENDROOT
BRANCH   5  14
ATOM     13 CL   UNL     1      31.939  -8.840 -22.332  0.00  0.00    -0.082 Cl
ATOM     14  C   UNL     1      33.206 -12.977 -23.602  0.00  0.00    -0.008 C 
ATOM     15  C   UNL     1      33.871 -11.860 -24.104  0.00  0.00    -0.003 C 
ATOM     16  C   UNL     1      32.149 -12.816 -22.705  0.00  0.00    -0.003 C 
ATOM     17  C   UNL     1      33.479 -10.580 -23.713  0.00  0.00    +0.011 C 
ATOM     18  C   UNL     1      31.757 -11.536 -22.314  0.00  0.00    +0.011 C 
ATOM     19  C   UNL     1      32.421 -10.418 -22.817  0.00  0.00    +0.058 C 
ENDBRANCH   5  14
BRANCH   6  20
ATOM     20  C   UNL     1      32.570 -13.984 -26.260  0.00  0.00    +0.056 C 
ATOM     21  C   UNL     1      33.477 -13.452 -27.366  0.00  0.00    +0.008 C 
ENDBRANCH   6  20
TORSDOF 2
ENDMDL
MODEL 8
REMARK VINA RESULT:      -8.0      3.674      5.724
REMARK  Name = 4993
REMARK  2 active torsions:
REMARK  status: ('A' for Active; 'I' for Inactive)
REMARK    1  A    between atoms: C_5  and  C_14
REMARK    2  A    between atoms: C_6  and  C_20
REMARK                            x       y       z     vdW  Elec       q    Type
REMARK                         _______ _______ _______ _____ _____    ______ ____
ROOT
ATOM      1  N   UNL     1      35.137 -20.660 -19.773  0.00  0.00    -0.337 NA
ATOM      2  N   UNL     1      37.425 -20.093 -20.275  0.00  0.00    -0.317 NA
ATOM      3  N   UNL     1      37.934 -18.572 -22.014  0.00  0.00    -0.335 N 
ATOM      4  N   UNL     1      36.907 -21.600 -18.554  0.00  0.00    -0.283 N 
ATOM      5  C   UNL     1      35.633 -19.109 -21.549  0.00  0.00    +0.138 C 
ATOM      6  C   UNL     1      34.753 -19.831 -20.767  0.00  0.00    +0.112 C 
ATOM      7  C   UNL     1      36.971 -19.282 -21.254  0.00  0.00    +0.178 C 
ATOM      8  C   UNL     1      36.468 -20.743 -19.585  0.00  0.00    +0.196 C 
ATOM      9  H   UNL     1      38.893 -18.682 -21.819  0.00  0.00    +0.144 HD
ATOM     10  H   UNL     1      37.645 -17.971 -22.736  0.00  0.00    +0.144 HD
ATOM     11  H   UNL     1      36.250 -22.100 -18.017  0.00  0.00    +0.156 HD
ATOM     12  H   UNL     1      37.869 -21.699 -18.372  0.00  0.00    +0.156 HD
ENDROOT
BRANCH   5  14
ATOM     13 CL   UNL     1      33.744 -15.494 -25.891  0.00  0.00    -0.082 Cl
ATOM     14  C   UNL     1      35.173 -18.231 -22.603  0.00  0.00    -0.008 C 
ATOM     15  C   UNL     1      34.964 -18.734 -23.887  0.00  0.00    -0.003 C 
ATOM     16  C   UNL     1      34.941 -16.882 -22.335  0.00  0.00    -0.003 C 
ATOM     17  C   UNL     1      34.521 -17.888 -24.904  0.00  0.00    +0.011 C 
ATOM     18  C   UNL     1      34.498 -16.036 -23.353  0.00  0.00    +0.011 C 
ATOM     19  C   UNL     1      34.288 -16.538 -24.636  0.00  0.00    +0.058 C 
ENDBRANCH   5  14
BRANCH   6  20
ATOM     20  C   UNL     1      33.276 -19.735 -20.982  0.00  0.00    +0.056 C 
ATOM     21  C   UNL     1      32.491 -20.505 -19.924  0.00  0.00    +0.008 C 
ENDBRANCH   6  20
TORSDOF 2
ENDMDL
MODEL 9
REMARK VINA RESULT:      -7.9      7.239      9.682
REMARK  Name = 4993
REMARK  2 active torsions:
REMARK  status: ('A' for Active; 'I' for Inactive)
REMARK    1  A    between atoms: C_5  and  C_14
REMARK    2  A    between atoms: C_6  and  C_20
REMARK                            x       y       z     vdW  Elec       q    Type
REMARK                         _______ _______ _______ _____ _____    ______ ____
ROOT
ATOM      1  N   UNL     1      32.068 -12.940 -22.200  0.00  0.00    -0.337 NA
ATOM      2  N   UNL     1      33.749 -12.454 -23.857  0.00  0.00    -0.317 NA
ATOM      3  N   UNL     1      34.172 -10.224 -24.523  0.00  0.00    -0.335 N 
ATOM      4  N   UNL     1      33.321 -14.661 -23.188  0.00  0.00    -0.283 N 
ATOM      5  C   UNL     1      32.481 -10.662 -22.865  0.00  0.00    +0.138 C 
ATOM      6  C   UNL     1      31.818 -11.617 -22.119  0.00  0.00    +0.112 C 
ATOM      7  C   UNL     1      33.447 -11.145 -23.725  0.00  0.00    +0.178 C 
ATOM      8  C   UNL     1      33.031 -13.284 -23.077  0.00  0.00    +0.196 C 
ATOM      9  H   UNL     1      34.864 -10.547 -25.143  0.00  0.00    +0.144 HD
ATOM     10  H   UNL     1      33.982  -9.260 -24.457  0.00  0.00    +0.144 HD
ATOM     11  H   UNL     1      32.827 -15.313 -22.641  0.00  0.00    +0.156 HD
ATOM     12  H   UNL     1      34.017 -14.969 -23.813  0.00  0.00    +0.156 HD
ENDROOT
BRANCH   5  14
ATOM     13 CL   UNL     1      31.236  -4.858 -22.365  0.00  0.00    -0.082 Cl
ATOM     14  C   UNL     1      32.178  -9.252 -22.743  0.00  0.00    -0.008 C 
ATOM     15  C   UNL     1      31.237  -8.666 -23.588  0.00  0.00    -0.003 C 
ATOM     16  C   UNL     1      32.829  -8.480 -21.780  0.00  0.00    -0.003 C 
ATOM     17  C   UNL     1      30.945  -7.307 -23.471  0.00  0.00    +0.011 C 
ATOM     18  C   UNL     1      32.536  -7.121 -21.663  0.00  0.00    +0.011 C 
ATOM     19  C   UNL     1      31.595  -6.535 -22.508  0.00  0.00    +0.058 C 
ENDBRANCH   5  14
BRANCH   6  20
ATOM     20  C   UNL     1      30.748 -11.228 -21.149  0.00  0.00    +0.056 C 
ATOM     21  C   UNL     1      31.270 -11.161 -19.717  0.00  0.00    +0.008 C 
ENDBRANCH   6  20
TORSDOF 2
ENDMDL
