MODEL 1
REMARK VINA RESULT:      -8.0      0.000      0.000
REMARK  Name = 5284543
REMARK  2 active torsions:
REMARK  status: ('A' for Active; 'I' for Inactive)
REMARK    1  A    between atoms: C_10  and  O_21
REMARK    2  A    between atoms: C_18  and  O_23
REMARK                            x       y       z     vdW  Elec       q    Type
REMARK                         _______ _______ _______ _____ _____    ______ ____
ROOT
ATOM      1  O   UNL     1      31.400 -11.282 -22.688  0.00  0.00    -0.474 OA
ATOM      2  N   UNL     1      31.729  -6.159 -23.526  0.00  0.00    +0.387 N 
ATOM      3  C   UNL     1      31.507  -8.871 -22.499  0.00  0.00    +0.057 C 
ATOM      4  C   UNL     1      31.893  -7.677 -21.624  0.00  0.00    -0.011 C 
ATOM      5  C   UNL     1      31.024 -10.162 -21.812  0.00  0.00    +0.196 C 
ATOM      6  C   UNL     1      32.692  -6.688 -22.528  0.00  0.00    -0.053 C 
ATOM      7  C   UNL     1      30.538  -8.364 -23.593  0.00  0.00    -0.015 C 
ATOM      8  C   UNL     1      32.702  -9.458 -23.157  0.00  0.00    +0.013 C 
ATOM      9  C   UNL     1      32.599  -8.079 -20.329  0.00  0.00    +0.001 C 
ATOM     10  C   UNL     1      31.570 -10.407 -20.380  0.00  0.00    +0.151 C 
ATOM     11  C   UNL     1      33.987  -7.335 -23.135  0.00  0.00    +0.005 C 
ATOM     12  C   UNL     1      31.757  -9.117 -19.576  0.00  0.00    +0.033 C 
ATOM     13  C   UNL     1      31.121  -7.179 -24.387  0.00  0.00    -0.077 C 
ATOM     14  C   UNL     1      33.844  -8.779 -23.532  0.00  0.00    -0.025 C 
ATOM     15  C   UNL     1      32.537 -10.821 -23.316  0.00  0.00    +0.168 C 
ATOM     16  C   UNL     1      32.254  -5.044 -24.307  0.00  0.00    -0.101 C 
ATOM     17  C   UNL     1      34.830  -9.524 -24.178  0.00  0.00    -0.001 C 
ATOM     18  C   UNL     1      33.490 -11.571 -23.966  0.00  0.00    +0.172 C 
ATOM     19  C   UNL     1      34.643 -10.905 -24.410  0.00  0.00    +0.040 C 
ATOM     20  H   UNL     1      30.970  -5.791 -22.951  0.00  0.00    -0.080 HD
ENDROOT
BRANCH  10  21
ATOM     21  O   UNL     1      32.805 -11.126 -20.378  0.00  0.00    -0.381 OA
ATOM     22  H   UNL     1      32.909 -11.587 -19.532  0.00  0.00    +0.210 HD
ENDBRANCH  10  21
BRANCH  18  23
ATOM     23  O   UNL     1      33.347 -12.907 -24.142  0.00  0.00    -0.468 OA
ATOM     24  C   UNL     1      33.975 -13.765 -23.187  0.00  0.00    +0.253 C 
ENDBRANCH  18  23
TORSDOF 2
ENDMDL
MODEL 2
REMARK VINA RESULT:      -6.4     15.058     17.877
REMARK  Name = 5284543
REMARK  2 active torsions:
REMARK  status: ('A' for Active; 'I' for Inactive)
REMARK    1  A    between atoms: C_10  and  O_21
REMARK    2  A    between atoms: C_18  and  O_23
REMARK                            x       y       z     vdW  Elec       q    Type
REMARK                         _______ _______ _______ _____ _____    ______ ____
ROOT
ATOM      1  O   UNL     1      38.265 -23.629 -13.671  0.00  0.00    -0.474 OA
ATOM      2  N   UNL     1      33.088 -23.928 -14.070  0.00  0.00    +0.387 N 
ATOM      3  C   UNL     1      35.932 -23.346 -14.249  0.00  0.00    +0.057 C 
ATOM      4  C   UNL     1      34.926 -22.930 -15.324  0.00  0.00    -0.011 C 
ATOM      5  C   UNL     1      37.309 -22.657 -14.224  0.00  0.00    +0.196 C 
ATOM      6  C   UNL     1      33.817 -24.026 -15.359  0.00  0.00    -0.053 C 
ATOM      7  C   UNL     1      35.207 -23.308 -12.882  0.00  0.00    -0.015 C 
ATOM      8  C   UNL     1      36.429 -24.724 -14.487  0.00  0.00    +0.013 C 
ATOM      9  C   UNL     1      35.576 -22.628 -16.675  0.00  0.00    +0.001 C 
ATOM     10  C   UNL     1      37.824 -22.130 -15.590  0.00  0.00    +0.151 C 
ATOM     11  C   UNL     1      34.384 -25.450 -15.693  0.00  0.00    +0.005 C 
ATOM     12  C   UNL     1      36.706 -21.606 -16.494  0.00  0.00    +0.033 C 
ATOM     13  C   UNL     1      33.919 -24.153 -12.881  0.00  0.00    -0.077 C 
ATOM     14  C   UNL     1      35.729 -25.752 -15.089  0.00  0.00    -0.025 C 
ATOM     15  C   UNL     1      37.735 -24.843 -14.052  0.00  0.00    +0.168 C 
ATOM     16  C   UNL     1      31.868 -24.726 -14.029  0.00  0.00    -0.101 C 
ATOM     17  C   UNL     1      36.377 -26.984 -15.170  0.00  0.00    -0.001 C 
ATOM     18  C   UNL     1      38.386 -26.054 -14.108  0.00  0.00    +0.172 C 
ATOM     19  C   UNL     1      37.687 -27.136 -14.665  0.00  0.00    +0.040 C 
ATOM     20  H   UNL     1      32.806 -22.948 -14.031  0.00  0.00    -0.080 HD
ENDROOT
BRANCH  10  21
ATOM     21  O   UNL     1      38.570 -23.112 -16.311  0.00  0.00    -0.381 OA
ATOM     22  H   UNL     1      38.358 -23.995 -15.970  0.00  0.00    +0.210 HD
ENDBRANCH  10  21
BRANCH  18  23
ATOM     23  O   UNL     1      39.663 -26.196 -13.680  0.00  0.00    -0.468 OA
ATOM     24  C   UNL     1      40.701 -26.031 -14.649  0.00  0.00    +0.253 C 
ENDBRANCH  18  23
TORSDOF 2
ENDMDL
MODEL 3
REMARK VINA RESULT:      -5.4     15.351     18.217
REMARK  Name = 5284543
REMARK  2 active torsions:
REMARK  status: ('A' for Active; 'I' for Inactive)
REMARK    1  A    between atoms: C_10  and  O_21
REMARK    2  A    between atoms: C_18  and  O_23
REMARK                            x       y       z     vdW  Elec       q    Type
REMARK                         _______ _______ _______ _____ _____    ______ ____
ROOT
ATOM      1  O   UNL     1      34.183 -24.605 -15.217  0.00  0.00    -0.474 OA
ATOM      2  N   UNL     1      39.192 -25.852 -14.580  0.00  0.00    +0.387 N 
ATOM      3  C   UNL     1      36.597 -24.751 -15.298  0.00  0.00    +0.057 C 
ATOM      4  C   UNL     1      37.913 -24.004 -15.526  0.00  0.00    -0.011 C 
ATOM      5  C   UNL     1      35.344 -24.284 -16.062  0.00  0.00    +0.196 C 
ATOM      6  C   UNL     1      38.878 -24.416 -14.373  0.00  0.00    -0.053 C 
ATOM      7  C   UNL     1      36.878 -26.264 -15.455  0.00  0.00    -0.015 C 
ATOM      8  C   UNL     1      36.073 -24.503 -13.931  0.00  0.00    +0.013 C 
ATOM      9  C   UNL     1      37.729 -22.496 -15.704  0.00  0.00    +0.001 C 
ATOM     10  C   UNL     1      35.313 -22.783 -16.452  0.00  0.00    +0.151 C 
ATOM     11  C   UNL     1      38.311 -24.060 -12.953  0.00  0.00    +0.005 C 
ATOM     12  C   UNL     1      36.694 -22.222 -16.802  0.00  0.00    +0.033 C 
ATOM     13  C   UNL     1      38.026 -26.742 -14.544  0.00  0.00    -0.077 C 
ATOM     14  C   UNL     1      36.826 -24.246 -12.802  0.00  0.00    -0.025 C 
ATOM     15  C   UNL     1      34.691 -24.522 -13.939  0.00  0.00    +0.168 C 
ATOM     16  C   UNL     1      40.266 -26.343 -13.724  0.00  0.00    -0.101 C 
ATOM     17  C   UNL     1      36.124 -24.086 -11.607  0.00  0.00    -0.001 C 
ATOM     18  C   UNL     1      33.981 -24.384 -12.769  0.00  0.00    +0.172 C 
ATOM     19  C   UNL     1      34.715 -24.174 -11.590  0.00  0.00    +0.040 C 
ATOM     20  H   UNL     1      39.536 -25.883 -15.540  0.00  0.00    -0.080 HD
ENDROOT
BRANCH  10  21
ATOM     21  O   UNL     1      34.733 -21.963 -15.436  0.00  0.00    -0.381 OA
ATOM     22  H   UNL     1      34.461 -21.115 -15.822  0.00  0.00    +0.210 HD
ENDBRANCH  10  21
BRANCH  18  23
ATOM     23  O   UNL     1      32.627 -24.408 -12.750  0.00  0.00    -0.468 OA
ATOM     24  C   UNL     1      31.943 -23.337 -13.405  0.00  0.00    +0.253 C 
ENDBRANCH  18  23
TORSDOF 2
ENDMDL
MODEL 4
REMARK VINA RESULT:      -5.3      6.703      9.253
REMARK  Name = 5284543
REMARK  2 active torsions:
REMARK  status: ('A' for Active; 'I' for Inactive)
REMARK    1  A    between atoms: C_10  and  O_21
REMARK    2  A    between atoms: C_18  and  O_23
REMARK                            x       y       z     vdW  Elec       q    Type
REMARK                         _______ _______ _______ _____ _____    ______ ____
ROOT
ATOM      1  O   UNL     1      34.949 -15.132 -23.359  0.00  0.00    -0.474 OA
ATOM      2  N   UNL     1      35.528 -19.470 -20.548  0.00  0.00    +0.387 N 
ATOM      3  C   UNL     1      34.827 -16.895 -21.705  0.00  0.00    +0.057 C 
ATOM      4  C   UNL     1      33.969 -17.597 -20.651  0.00  0.00    -0.011 C 
ATOM      5  C   UNL     1      34.606 -15.391 -21.952  0.00  0.00    +0.196 C 
ATOM      6  C   UNL     1      34.123 -19.131 -20.886  0.00  0.00    -0.053 C 
ATOM      7  C   UNL     1      36.306 -17.255 -21.428  0.00  0.00    -0.015 C 
ATOM      8  C   UNL     1      34.474 -17.352 -23.073  0.00  0.00    +0.013 C 
ATOM      9  C   UNL     1      32.526 -17.093 -20.613  0.00  0.00    +0.001 C 
ATOM     10  C   UNL     1      33.177 -14.863 -21.653  0.00  0.00    +0.151 C 
ATOM     11  C   UNL     1      33.661 -19.573 -22.319  0.00  0.00    +0.005 C 
ATOM     12  C   UNL     1      32.510 -15.566 -20.468  0.00  0.00    +0.033 C 
ATOM     13  C   UNL     1      36.534 -18.777 -21.362  0.00  0.00    -0.077 C 
ATOM     14  C   UNL     1      33.995 -18.601 -23.418  0.00  0.00    -0.025 C 
ATOM     15  C   UNL     1      34.652 -16.325 -23.980  0.00  0.00    +0.168 C 
ATOM     16  C   UNL     1      35.783 -20.905 -20.489  0.00  0.00    -0.101 C 
ATOM     17  C   UNL     1      33.770 -18.829 -24.775  0.00  0.00    -0.001 C 
ATOM     18  C   UNL     1      34.451 -16.536 -25.325  0.00  0.00    +0.172 C 
ATOM     19  C   UNL     1      34.015 -17.810 -25.721  0.00  0.00    +0.040 C 
ATOM     20  H   UNL     1      35.638 -19.106 -19.601  0.00  0.00    -0.080 HD
ENDROOT
BRANCH  10  21
ATOM     21  O   UNL     1      32.309 -14.955 -22.784  0.00  0.00    -0.381 OA
ATOM     22  H   UNL     1      31.859 -15.814 -22.776  0.00  0.00    +0.210 HD
ENDBRANCH  10  21
BRANCH  18  23
ATOM     23  O   UNL     1      34.627 -15.547 -26.234  0.00  0.00    -0.468 OA
ATOM     24  C   UNL     1      33.499 -14.721 -26.532  0.00  0.00    +0.253 C 
ENDBRANCH  18  23
TORSDOF 2
ENDMDL
