MODEL 1
REMARK VINA RESULT:      -4.5      0.000      0.000
REMARK  Name = 220224
REMARK  4 active torsions:
REMARK  status: ('A' for Active; 'I' for Inactive)
REMARK    1  A    between atoms: P_1  and  O_4
REMARK    2  A    between atoms: P_1  and  O_7
REMARK    3  A    between atoms: O_4  and  C_5
REMARK    4  A    between atoms: O_7  and  C_8
REMARK                            x       y       z     vdW  Elec       q    Type
REMARK                         _______ _______ _______ _____ _____    ______ ____
ROOT
ATOM      1  P   UNL     1      36.893 -26.657 -15.110  0.00  0.00    +0.323 P 
ATOM      2  O   UNL     1      36.635 -27.443 -16.369  0.00  0.00    -0.262 OA
ATOM      3  H   UNL     1      35.844 -26.328 -14.275  0.00  0.00    +0.160 HD
ENDROOT
BRANCH   1   4
ATOM      4  O   UNL     1      36.794 -25.054 -15.368  0.00  0.00    -0.297 OA
BRANCH   4   5
ATOM      5  C   UNL     1      35.552 -24.426 -15.109  0.00  0.00    +0.151 C 
ATOM      6  C   UNL     1      35.553 -23.051 -15.743  0.00  0.00    +0.035 C 
ENDBRANCH   4   5
ENDBRANCH   1   4
BRANCH   1   7
ATOM      7  O   UNL     1      38.437 -26.809 -14.624  0.00  0.00    -0.297 OA
BRANCH   7   8
ATOM      8  C   UNL     1      39.067 -25.687 -14.030  0.00  0.00    +0.151 C 
ATOM      9  C   UNL     1      40.339 -25.375 -14.790  0.00  0.00    +0.035 C 
ENDBRANCH   7   8
ENDBRANCH   1   7
TORSDOF 4
ENDMDL
MODEL 2
REMARK VINA RESULT:      -4.5      9.356     10.987
REMARK  Name = 220224
REMARK  4 active torsions:
REMARK  status: ('A' for Active; 'I' for Inactive)
REMARK    1  A    between atoms: P_1  and  O_4
REMARK    2  A    between atoms: P_1  and  O_7
REMARK    3  A    between atoms: O_4  and  C_5
REMARK    4  A    between atoms: O_7  and  C_8
REMARK                            x       y       z     vdW  Elec       q    Type
REMARK                         _______ _______ _______ _____ _____    ______ ____
ROOT
ATOM      1  P   UNL     1      34.877 -17.303 -21.307  0.00  0.00    +0.323 P 
ATOM      2  O   UNL     1      34.998 -16.026 -20.516  0.00  0.00    -0.262 OA
ATOM      3  H   UNL     1      33.860 -18.193 -21.026  0.00  0.00    +0.160 HD
ENDROOT
BRANCH   1   4
ATOM      4  O   UNL     1      35.719 -18.517 -20.625  0.00  0.00    -0.297 OA
BRANCH   4   5
ATOM      5  C   UNL     1      35.224 -19.832 -20.797  0.00  0.00    +0.151 C 
ATOM      6  C   UNL     1      33.711 -19.791 -20.813  0.00  0.00    +0.035 C 
ENDBRANCH   4   5
ENDBRANCH   1   4
BRANCH   1   7
ATOM      7  O   UNL     1      35.610 -17.176 -22.752  0.00  0.00    -0.297 OA
BRANCH   7   8
ATOM      8  C   UNL     1      34.812 -17.267 -23.920  0.00  0.00    +0.151 C 
ATOM      9  C   UNL     1      34.678 -18.724 -24.312  0.00  0.00    +0.035 C 
ENDBRANCH   7   8
ENDBRANCH   1   7
TORSDOF 4
ENDMDL
MODEL 3
REMARK VINA RESULT:      -4.5      9.202     10.648
REMARK  Name = 220224
REMARK  4 active torsions:
REMARK  status: ('A' for Active; 'I' for Inactive)
REMARK    1  A    between atoms: P_1  and  O_4
REMARK    2  A    between atoms: P_1  and  O_7
REMARK    3  A    between atoms: O_4  and  C_5
REMARK    4  A    between atoms: O_7  and  C_8
REMARK                            x       y       z     vdW  Elec       q    Type
REMARK                         _______ _______ _______ _____ _____    ______ ____
ROOT
ATOM      1  P   UNL     1      34.933 -17.456 -21.399  0.00  0.00    +0.323 P 
ATOM      2  O   UNL     1      35.565 -17.049 -22.705  0.00  0.00    -0.262 OA
ATOM      3  H   UNL     1      33.595 -17.205 -21.172  0.00  0.00    +0.160 HD
ENDROOT
BRANCH   1   4
ATOM      4  O   UNL     1      35.033 -16.274 -20.286  0.00  0.00    -0.297 OA
BRANCH   4   5
ATOM      5  C   UNL     1      34.475 -15.015 -20.618  0.00  0.00    +0.151 C 
ATOM      6  C   UNL     1      32.969 -15.094 -20.493  0.00  0.00    +0.035 C 
ENDBRANCH   4   5
ENDBRANCH   1   4
BRANCH   1   7
ATOM      7  O   UNL     1      35.777 -18.646 -20.680  0.00  0.00    -0.297 OA
BRANCH   7   8
ATOM      8  C   UNL     1      35.219 -19.948 -20.662  0.00  0.00    +0.151 C 
ATOM      9  C   UNL     1      33.715 -19.842 -20.801  0.00  0.00    +0.035 C 
ENDBRANCH   7   8
ENDBRANCH   1   7
TORSDOF 4
ENDMDL
MODEL 4
REMARK VINA RESULT:      -4.4     10.323     11.990
REMARK  Name = 220224
REMARK  4 active torsions:
REMARK  status: ('A' for Active; 'I' for Inactive)
REMARK    1  A    between atoms: P_1  and  O_4
REMARK    2  A    between atoms: P_1  and  O_7
REMARK    3  A    between atoms: O_4  and  C_5
REMARK    4  A    between atoms: O_7  and  C_8
REMARK                            x       y       z     vdW  Elec       q    Type
REMARK                         _______ _______ _______ _____ _____    ______ ____
ROOT
ATOM      1  P   UNL     1      34.615 -16.252 -21.274  0.00  0.00    +0.323 P 
ATOM      2  O   UNL     1      34.853 -15.047 -20.402  0.00  0.00    -0.262 OA
ATOM      3  H   UNL     1      33.537 -17.079 -21.029  0.00  0.00    +0.160 HD
ENDROOT
BRANCH   1   4
ATOM      4  O   UNL     1      35.372 -17.573 -20.698  0.00  0.00    -0.297 OA
BRANCH   4   5
ATOM      5  C   UNL     1      35.819 -18.532 -21.639  0.00  0.00    +0.151 C 
ATOM      6  C   UNL     1      34.672 -19.461 -21.978  0.00  0.00    +0.035 C 
ENDBRANCH   4   5
ENDBRANCH   1   4
BRANCH   1   7
ATOM      7  O   UNL     1      35.328 -16.082 -22.726  0.00  0.00    -0.297 OA
BRANCH   7   8
ATOM      8  C   UNL     1      34.504 -15.844 -23.854  0.00  0.00    +0.151 C 
ATOM      9  C   UNL     1      34.766 -16.916 -24.891  0.00  0.00    +0.035 C 
ENDBRANCH   7   8
ENDBRANCH   1   7
TORSDOF 4
ENDMDL
MODEL 5
REMARK VINA RESULT:      -4.4     10.952     12.240
REMARK  Name = 220224
REMARK  4 active torsions:
REMARK  status: ('A' for Active; 'I' for Inactive)
REMARK    1  A    between atoms: P_1  and  O_4
REMARK    2  A    between atoms: P_1  and  O_7
REMARK    3  A    between atoms: O_4  and  C_5
REMARK    4  A    between atoms: O_7  and  C_8
REMARK                            x       y       z     vdW  Elec       q    Type
REMARK                         _______ _______ _______ _____ _____    ______ ____
ROOT
ATOM      1  P   UNL     1      34.646 -16.936 -24.330  0.00  0.00    +0.323 P 
ATOM      2  O   UNL     1      34.868 -16.744 -25.808  0.00  0.00    -0.262 OA
ATOM      3  H   UNL     1      33.526 -16.399 -23.727  0.00  0.00    +0.160 HD
ENDROOT
BRANCH   1   4
ATOM      4  O   UNL     1      35.318 -15.738 -23.458  0.00  0.00    -0.297 OA
BRANCH   4   5
ATOM      5  C   UNL     1      34.459 -14.959 -22.646  0.00  0.00    +0.151 C 
ATOM      6  C   UNL     1      34.510 -15.486 -21.227  0.00  0.00    +0.035 C 
ENDBRANCH   4   5
ENDBRANCH   1   4
BRANCH   1   7
ATOM      7  O   UNL     1      35.455 -18.231 -23.773  0.00  0.00    -0.297 OA
BRANCH   7   8
ATOM      8  C   UNL     1      34.759 -19.157 -22.956  0.00  0.00    +0.151 C 
ATOM      9  C   UNL     1      35.350 -19.125 -21.562  0.00  0.00    +0.035 C 
ENDBRANCH   7   8
ENDBRANCH   1   7
TORSDOF 4
ENDMDL
MODEL 6
REMARK VINA RESULT:      -4.3      2.270      3.497
REMARK  Name = 220224
REMARK  4 active torsions:
REMARK  status: ('A' for Active; 'I' for Inactive)
REMARK    1  A    between atoms: P_1  and  O_4
REMARK    2  A    between atoms: P_1  and  O_7
REMARK    3  A    between atoms: O_4  and  C_5
REMARK    4  A    between atoms: O_7  and  C_8
REMARK                            x       y       z     vdW  Elec       q    Type
REMARK                         _______ _______ _______ _____ _____    ______ ____
ROOT
ATOM      1  P   UNL     1      39.352 -25.423 -14.703  0.00  0.00    +0.323 P 
ATOM      2  O   UNL     1      40.569 -25.986 -15.390  0.00  0.00    -0.262 OA
ATOM      3  H   UNL     1      38.969 -25.910 -13.470  0.00  0.00    +0.160 HD
ENDROOT
BRANCH   1   4
ATOM      4  O   UNL     1      38.001 -26.236 -15.107  0.00  0.00    -0.297 OA
BRANCH   4   5
ATOM      5  C   UNL     1      37.292 -26.882 -14.066  0.00  0.00    +0.151 C 
ATOM      6  C   UNL     1      37.498 -26.114 -12.777  0.00  0.00    +0.035 C 
ENDBRANCH   4   5
ENDBRANCH   1   4
BRANCH   1   7
ATOM      7  O   UNL     1      39.003 -23.931 -15.248  0.00  0.00    -0.297 OA
BRANCH   7   8
ATOM      8  C   UNL     1      37.640 -23.549 -15.332  0.00  0.00    +0.151 C 
ATOM      9  C   UNL     1      37.515 -22.373 -16.277  0.00  0.00    +0.035 C 
ENDBRANCH   7   8
ENDBRANCH   1   7
TORSDOF 4
ENDMDL
MODEL 7
REMARK VINA RESULT:      -4.3     10.760     11.757
REMARK  Name = 220224
REMARK  4 active torsions:
REMARK  status: ('A' for Active; 'I' for Inactive)
REMARK    1  A    between atoms: P_1  and  O_4
REMARK    2  A    between atoms: P_1  and  O_7
REMARK    3  A    between atoms: O_4  and  C_5
REMARK    4  A    between atoms: O_7  and  C_8
REMARK                            x       y       z     vdW  Elec       q    Type
REMARK                         _______ _______ _______ _____ _____    ______ ____
ROOT
ATOM      1  P   UNL     1      34.983 -17.450 -21.296  0.00  0.00    +0.323 P 
ATOM      2  O   UNL     1      35.853 -18.480 -20.623  0.00  0.00    -0.262 OA
ATOM      3  H   UNL     1      33.967 -17.850 -22.139  0.00  0.00    +0.160 HD
ENDROOT
BRANCH   1   4
ATOM      4  O   UNL     1      35.589 -16.996 -22.736  0.00  0.00    -0.297 OA
BRANCH   4   5
ATOM      5  C   UNL     1      34.870 -17.373 -23.896  0.00  0.00    +0.151 C 
ATOM      6  C   UNL     1      34.859 -18.883 -24.000  0.00  0.00    +0.035 C 
ENDBRANCH   4   5
ENDBRANCH   1   4
BRANCH   1   7
ATOM      7  O   UNL     1      34.999 -16.041 -20.483  0.00  0.00    -0.297 OA
BRANCH   7   8
ATOM      8  C   UNL     1      34.284 -14.945 -21.027  0.00  0.00    +0.151 C 
ATOM      9  C   UNL     1      32.882 -14.939 -20.457  0.00  0.00    +0.035 C 
ENDBRANCH   7   8
ENDBRANCH   1   7
TORSDOF 4
ENDMDL
MODEL 8
REMARK VINA RESULT:      -4.3      3.253      3.748
REMARK  Name = 220224
REMARK  4 active torsions:
REMARK  status: ('A' for Active; 'I' for Inactive)
REMARK    1  A    between atoms: P_1  and  O_4
REMARK    2  A    between atoms: P_1  and  O_7
REMARK    3  A    between atoms: O_4  and  C_5
REMARK    4  A    between atoms: O_7  and  C_8
REMARK                            x       y       z     vdW  Elec       q    Type
REMARK                         _______ _______ _______ _____ _____    ______ ____
ROOT
ATOM      1  P   UNL     1      36.181 -24.451 -11.675  0.00  0.00    +0.323 P 
ATOM      2  O   UNL     1      36.396 -23.976 -10.262  0.00  0.00    -0.262 OA
ATOM      3  H   UNL     1      36.082 -23.534 -12.703  0.00  0.00    +0.160 HD
ENDROOT
BRANCH   1   4
ATOM      4  O   UNL     1      34.599 -24.572 -12.037  0.00  0.00    -0.297 OA
BRANCH   4   5
ATOM      5  C   UNL     1      34.185 -24.127 -13.316  0.00  0.00    +0.151 C 
ATOM      6  C   UNL     1      35.362 -23.482 -14.018  0.00  0.00    +0.035 C 
ENDBRANCH   4   5
ENDBRANCH   1   4
BRANCH   1   7
ATOM      7  O   UNL     1      36.671 -25.990 -11.863  0.00  0.00    -0.297 OA
BRANCH   7   8
ATOM      8  C   UNL     1      37.408 -26.321 -13.029  0.00  0.00    +0.151 C 
ATOM      9  C   UNL     1      38.620 -25.419 -13.119  0.00  0.00    +0.035 C 
ENDBRANCH   7   8
ENDBRANCH   1   7
TORSDOF 4
ENDMDL
MODEL 9
REMARK VINA RESULT:      -4.2      8.791     10.235
REMARK  Name = 220224
REMARK  4 active torsions:
REMARK  status: ('A' for Active; 'I' for Inactive)
REMARK    1  A    between atoms: P_1  and  O_4
REMARK    2  A    between atoms: P_1  and  O_7
REMARK    3  A    between atoms: O_4  and  C_5
REMARK    4  A    between atoms: O_7  and  C_8
REMARK                            x       y       z     vdW  Elec       q    Type
REMARK                         _______ _______ _______ _____ _____    ______ ____
ROOT
ATOM      1  P   UNL     1      35.121 -18.567 -21.612  0.00  0.00    +0.323 P 
ATOM      2  O   UNL     1      36.077 -18.784 -20.468  0.00  0.00    -0.262 OA
ATOM      3  H   UNL     1      35.480 -17.752 -22.666  0.00  0.00    +0.160 HD
ENDROOT
BRANCH   1   4
ATOM      4  O   UNL     1      34.147 -17.290 -21.351  0.00  0.00    -0.297 OA
BRANCH   4   5
ATOM      5  C   UNL     1      34.627 -16.014 -21.735  0.00  0.00    +0.151 C 
ATOM      6  C   UNL     1      34.441 -15.050 -20.583  0.00  0.00    +0.035 C 
ENDBRANCH   4   5
ENDBRANCH   1   4
BRANCH   1   7
ATOM      7  O   UNL     1      34.040 -19.778 -21.716  0.00  0.00    -0.297 OA
BRANCH   7   8
ATOM      8  C   UNL     1      33.019 -19.852 -20.735  0.00  0.00    +0.151 C 
ATOM      9  C   UNL     1      33.336 -20.984 -19.780  0.00  0.00    +0.035 C 
ENDBRANCH   7   8
ENDBRANCH   1   7
TORSDOF 4
ENDMDL
