MODEL 1
REMARK VINA RESULT:      -7.8      0.000      0.000
REMARK  Name = 5070
REMARK  2 active torsions:
REMARK  status: ('A' for Active; 'I' for Inactive)
REMARK    1  A    between atoms: C_7  and  O_13
REMARK    2  A    between atoms: O_13  and  C_17
REMARK                            x       y       z     vdW  Elec       q    Type
REMARK                         _______ _______ _______ _____ _____    ______ ____
ROOT
ATOM      1  S   UNL     1      33.515 -14.357 -24.244  0.00  0.00    -0.038 S 
ATOM      2  N   UNL     1      33.414 -16.034 -26.200  0.00  0.00    -0.385 NA
ATOM      3  N   UNL     1      32.403 -13.941 -26.619  0.00  0.00    -0.328 N 
ATOM      4  C   UNL     1      34.235 -15.904 -24.001  0.00  0.00    +0.062 C 
ATOM      5  C   UNL     1      34.081 -16.667 -25.162  0.00  0.00    +0.122 C 
ATOM      6  C   UNL     1      34.890 -16.406 -22.864  0.00  0.00    +0.046 C 
ATOM      7  C   UNL     1      35.394 -17.708 -22.911  0.00  0.00    +0.144 C 
ATOM      8  C   UNL     1      34.600 -17.980 -25.183  0.00  0.00    +0.089 C 
ATOM      9  C   UNL     1      35.253 -18.486 -24.055  0.00  0.00    +0.019 C 
ATOM     10  C   UNL     1      33.072 -14.822 -25.829  0.00  0.00    +0.208 C 
ATOM     11  H   UNL     1      32.177 -13.046 -26.276  0.00  0.00    +0.145 HD
ATOM     12  H   UNL     1      32.144 -14.199 -27.533  0.00  0.00    +0.145 HD
ENDROOT
BRANCH   7  13
ATOM     13  O   UNL     1      36.034 -18.220 -21.822  0.00  0.00    -0.405 OA
BRANCH  13  17
ATOM     14  F   UNL     1      34.244 -18.880 -20.560  0.00  0.00    -0.133 F 
ATOM     15  F   UNL     1      36.229 -19.679 -20.114  0.00  0.00    -0.133 F 
ATOM     16  F   UNL     1      35.190 -20.343 -21.920  0.00  0.00    -0.133 F 
ATOM     17  C   UNL     1      35.408 -19.282 -21.113  0.00  0.00    +0.575 C 
ENDBRANCH  13  17
ENDBRANCH   7  13
TORSDOF 2
ENDMDL
MODEL 2
REMARK VINA RESULT:      -7.6      1.446      2.315
REMARK  Name = 5070
REMARK  2 active torsions:
REMARK  status: ('A' for Active; 'I' for Inactive)
REMARK    1  A    between atoms: C_7  and  O_13
REMARK    2  A    between atoms: O_13  and  C_17
REMARK                            x       y       z     vdW  Elec       q    Type
REMARK                         _______ _______ _______ _____ _____    ______ ____
ROOT
ATOM      1  S   UNL     1      34.160 -16.371 -25.246  0.00  0.00    -0.038 S 
ATOM      2  N   UNL     1      33.339 -14.457 -23.726  0.00  0.00    -0.385 NA
ATOM      3  N   UNL     1      32.896 -14.171 -26.028  0.00  0.00    -0.328 N 
ATOM      4  C   UNL     1      34.453 -16.520 -23.553  0.00  0.00    +0.062 C 
ATOM      5  C   UNL     1      33.940 -15.395 -22.900  0.00  0.00    +0.122 C 
ATOM      6  C   UNL     1      35.091 -17.558 -22.854  0.00  0.00    +0.046 C 
ATOM      7  C   UNL     1      35.209 -17.447 -21.466  0.00  0.00    +0.144 C 
ATOM      8  C   UNL     1      34.073 -15.308 -21.497  0.00  0.00    +0.089 C 
ATOM      9  C   UNL     1      34.707 -16.337 -20.795  0.00  0.00    +0.019 C 
ATOM     10  C   UNL     1      33.398 -14.865 -24.972  0.00  0.00    +0.208 C 
ATOM     11  H   UNL     1      32.975 -14.536 -26.939  0.00  0.00    +0.145 HD
ATOM     12  H   UNL     1      32.455 -13.303 -25.881  0.00  0.00    +0.145 HD
ENDROOT
BRANCH   7  13
ATOM     13  O   UNL     1      35.823 -18.440 -20.764  0.00  0.00    -0.405 OA
BRANCH  13  17
ATOM     14  F   UNL     1      35.264 -20.353 -21.884  0.00  0.00    -0.133 F 
ATOM     15  F   UNL     1      33.880 -19.527 -20.409  0.00  0.00    -0.133 F 
ATOM     16  F   UNL     1      35.727 -20.476 -19.727  0.00  0.00    -0.133 F 
ATOM     17  C   UNL     1      35.188 -19.710 -20.700  0.00  0.00    +0.575 C 
ENDBRANCH  13  17
ENDBRANCH   7  13
TORSDOF 2
ENDMDL
MODEL 3
REMARK VINA RESULT:      -7.6      2.109      2.487
REMARK  Name = 5070
REMARK  2 active torsions:
REMARK  status: ('A' for Active; 'I' for Inactive)
REMARK    1  A    between atoms: C_7  and  O_13
REMARK    2  A    between atoms: O_13  and  C_17
REMARK                            x       y       z     vdW  Elec       q    Type
REMARK                         _______ _______ _______ _____ _____    ______ ____
ROOT
ATOM      1  S   UNL     1      34.200 -15.044 -21.532  0.00  0.00    -0.038 S 
ATOM      2  N   UNL     1      34.631 -15.711 -23.986  0.00  0.00    -0.385 NA
ATOM      3  N   UNL     1      34.260 -13.407 -23.621  0.00  0.00    -0.328 N 
ATOM      4  C   UNL     1      34.478 -16.713 -21.865  0.00  0.00    +0.062 C 
ATOM      5  C   UNL     1      34.690 -16.877 -23.237  0.00  0.00    +0.122 C 
ATOM      6  C   UNL     1      34.507 -17.800 -20.975  0.00  0.00    +0.046 C 
ATOM      7  C   UNL     1      34.754 -19.074 -21.492  0.00  0.00    +0.144 C 
ATOM      8  C   UNL     1      34.938 -18.175 -23.734  0.00  0.00    +0.089 C 
ATOM      9  C   UNL     1      34.967 -19.261 -22.854  0.00  0.00    +0.019 C 
ATOM     10  C   UNL     1      34.380 -14.693 -23.196  0.00  0.00    +0.208 C 
ATOM     11  H   UNL     1      34.070 -12.690 -22.974  0.00  0.00    +0.145 HD
ATOM     12  H   UNL     1      34.362 -13.194 -24.577  0.00  0.00    +0.145 HD
ENDROOT
BRANCH   7  13
ATOM     13  O   UNL     1      34.787 -20.145 -20.651  0.00  0.00    -0.405 OA
BRANCH  13  17
ATOM     14  F   UNL     1      37.006 -19.659 -20.392  0.00  0.00    -0.133 F 
ATOM     15  F   UNL     1      36.401 -21.706 -20.858  0.00  0.00    -0.133 F 
ATOM     16  F   UNL     1      36.000 -20.901 -18.866  0.00  0.00    -0.133 F 
ATOM     17  C   UNL     1      36.053 -20.590 -20.179  0.00  0.00    +0.575 C 
ENDBRANCH  13  17
ENDBRANCH   7  13
TORSDOF 2
ENDMDL
MODEL 4
REMARK VINA RESULT:      -7.5     11.092     12.103
REMARK  Name = 5070
REMARK  2 active torsions:
REMARK  status: ('A' for Active; 'I' for Inactive)
REMARK    1  A    between atoms: C_7  and  O_13
REMARK    2  A    between atoms: O_13  and  C_17
REMARK                            x       y       z     vdW  Elec       q    Type
REMARK                         _______ _______ _______ _____ _____    ______ ____
ROOT
ATOM      1  S   UNL     1      34.133 -23.857 -15.613  0.00  0.00    -0.038 S 
ATOM      2  N   UNL     1      33.075 -24.195 -13.286  0.00  0.00    -0.385 NA
ATOM      3  N   UNL     1      35.383 -24.681 -13.420  0.00  0.00    -0.328 N 
ATOM      4  C   UNL     1      32.450 -23.520 -15.450  0.00  0.00    +0.062 C 
ATOM      5  C   UNL     1      32.062 -23.759 -14.128  0.00  0.00    +0.122 C 
ATOM      6  C   UNL     1      31.539 -23.074 -16.421  0.00  0.00    +0.046 C 
ATOM      7  C   UNL     1      30.210 -22.871 -16.039  0.00  0.00    +0.144 C 
ATOM      8  C   UNL     1      30.714 -23.547 -13.769  0.00  0.00    +0.089 C 
ATOM      9  C   UNL     1      29.801 -23.103 -14.730  0.00  0.00    +0.019 C 
ATOM     10  C   UNL     1      34.199 -24.282 -13.958  0.00  0.00    +0.208 C 
ATOM     11  H   UNL     1      36.190 -24.724 -13.983  0.00  0.00    +0.145 HD
ATOM     12  H   UNL     1      35.432 -24.927 -12.469  0.00  0.00    +0.145 HD
ENDROOT
BRANCH   7  13
ATOM     13  O   UNL     1      29.305 -22.439 -16.962  0.00  0.00    -0.405 OA
BRANCH  13  17
ATOM     14  F   UNL     1      28.224 -24.446 -17.147  0.00  0.00    -0.133 F 
ATOM     15  F   UNL     1      27.404 -22.685 -18.149  0.00  0.00    -0.133 F 
ATOM     16  F   UNL     1      27.282 -22.829 -15.971  0.00  0.00    -0.133 F 
ATOM     17  C   UNL     1      28.054 -23.111 -17.042  0.00  0.00    +0.575 C 
ENDBRANCH  13  17
ENDBRANCH   7  13
TORSDOF 2
ENDMDL
MODEL 5
REMARK VINA RESULT:      -7.5      4.462      5.630
REMARK  Name = 5070
REMARK  2 active torsions:
REMARK  status: ('A' for Active; 'I' for Inactive)
REMARK    1  A    between atoms: C_7  and  O_13
REMARK    2  A    between atoms: O_13  and  C_17
REMARK                            x       y       z     vdW  Elec       q    Type
REMARK                         _______ _______ _______ _____ _____    ______ ____
ROOT
ATOM      1  S   UNL     1      35.290 -17.545 -21.206  0.00  0.00    -0.038 S 
ATOM      2  N   UNL     1      34.875 -19.827 -22.334  0.00  0.00    -0.385 NA
ATOM      3  N   UNL     1      35.357 -19.922 -20.023  0.00  0.00    -0.328 N 
ATOM      4  C   UNL     1      34.933 -17.544 -22.893  0.00  0.00    +0.062 C 
ATOM      5  C   UNL     1      34.740 -18.861 -23.321  0.00  0.00    +0.122 C 
ATOM      6  C   UNL     1      34.830 -16.455 -23.774  0.00  0.00    +0.046 C 
ATOM      7  C   UNL     1      34.527 -16.714 -25.113  0.00  0.00    +0.144 C 
ATOM      8  C   UNL     1      34.435 -19.094 -24.679  0.00  0.00    +0.089 C 
ATOM      9  C   UNL     1      34.332 -18.016 -25.562  0.00  0.00    +0.019 C 
ATOM     10  C   UNL     1      35.162 -19.251 -21.190  0.00  0.00    +0.208 C 
ATOM     11  H   UNL     1      35.571 -19.426 -19.200  0.00  0.00    +0.145 HD
ATOM     12  H   UNL     1      35.286 -20.903 -20.003  0.00  0.00    +0.145 HD
ENDROOT
BRANCH   7  13
ATOM     13  O   UNL     1      34.422 -15.675 -25.990  0.00  0.00    -0.405 OA
BRANCH  13  17
ATOM     14  F   UNL     1      32.258 -15.967 -26.670  0.00  0.00    -0.133 F 
ATOM     15  F   UNL     1      33.262 -14.066 -27.063  0.00  0.00    -0.133 F 
ATOM     16  F   UNL     1      32.677 -14.562 -25.016  0.00  0.00    -0.133 F 
ATOM     17  C   UNL     1      33.144 -15.078 -26.173  0.00  0.00    +0.575 C 
ENDBRANCH  13  17
ENDBRANCH   7  13
TORSDOF 2
ENDMDL
MODEL 6
REMARK VINA RESULT:      -7.5      2.252      2.563
REMARK  Name = 5070
REMARK  2 active torsions:
REMARK  status: ('A' for Active; 'I' for Inactive)
REMARK    1  A    between atoms: C_7  and  O_13
REMARK    2  A    between atoms: O_13  and  C_17
REMARK                            x       y       z     vdW  Elec       q    Type
REMARK                         _______ _______ _______ _____ _____    ______ ____
ROOT
ATOM      1  S   UNL     1      32.672 -14.000 -20.706  0.00  0.00    -0.038 S 
ATOM      2  N   UNL     1      32.827 -13.885 -23.277  0.00  0.00    -0.385 NA
ATOM      3  N   UNL     1      31.468 -12.232 -22.278  0.00  0.00    -0.328 N 
ATOM      4  C   UNL     1      33.649 -15.181 -21.496  0.00  0.00    +0.062 C 
ATOM      5  C   UNL     1      33.610 -14.958 -22.876  0.00  0.00    +0.122 C 
ATOM      6  C   UNL     1      34.398 -16.228 -20.935  0.00  0.00    +0.046 C 
ATOM      7  C   UNL     1      35.117 -17.063 -21.794  0.00  0.00    +0.144 C 
ATOM      8  C   UNL     1      34.345 -15.817 -23.722  0.00  0.00    +0.089 C 
ATOM      9  C   UNL     1      35.092 -16.861 -23.170  0.00  0.00    +0.019 C 
ATOM     10  C   UNL     1      32.290 -13.314 -22.225  0.00  0.00    +0.208 C 
ATOM     11  H   UNL     1      31.098 -11.853 -21.448  0.00  0.00    +0.145 HD
ATOM     12  H   UNL     1      31.242 -11.829 -23.147  0.00  0.00    +0.145 HD
ENDROOT
BRANCH   7  13
ATOM     13  O   UNL     1      35.851 -18.087 -21.276  0.00  0.00    -0.405 OA
BRANCH  13  17
ATOM     14  F   UNL     1      34.073 -19.326 -20.547  0.00  0.00    -0.133 F 
ATOM     15  F   UNL     1      36.076 -20.199 -20.517  0.00  0.00    -0.133 F 
ATOM     16  F   UNL     1      35.070 -19.897 -22.434  0.00  0.00    -0.133 F 
ATOM     17  C   UNL     1      35.252 -19.375 -21.203  0.00  0.00    +0.575 C 
ENDBRANCH  13  17
ENDBRANCH   7  13
TORSDOF 2
ENDMDL
MODEL 7
REMARK VINA RESULT:      -7.5      5.041      6.276
REMARK  Name = 5070
REMARK  2 active torsions:
REMARK  status: ('A' for Active; 'I' for Inactive)
REMARK    1  A    between atoms: C_7  and  O_13
REMARK    2  A    between atoms: O_13  and  C_17
REMARK                            x       y       z     vdW  Elec       q    Type
REMARK                         _______ _______ _______ _____ _____    ______ ____
ROOT
ATOM      1  S   UNL     1      32.889 -21.002 -19.931  0.00  0.00    -0.038 S 
ATOM      2  N   UNL     1      35.322 -21.740 -19.507  0.00  0.00    -0.385 NA
ATOM      3  N   UNL     1      33.669 -23.192 -18.648  0.00  0.00    -0.328 N 
ATOM      4  C   UNL     1      34.143 -19.984 -20.533  0.00  0.00    +0.062 C 
ATOM      5  C   UNL     1      35.382 -20.545 -20.208  0.00  0.00    +0.122 C 
ATOM      6  C   UNL     1      34.038 -18.776 -21.242  0.00  0.00    +0.046 C 
ATOM      7  C   UNL     1      35.216 -18.129 -21.625  0.00  0.00    +0.144 C 
ATOM      8  C   UNL     1      36.556 -19.870 -20.607  0.00  0.00    +0.089 C 
ATOM      9  C   UNL     1      36.459 -18.668 -21.313  0.00  0.00    +0.019 C 
ATOM     10  C   UNL     1      34.068 -22.072 -19.307  0.00  0.00    +0.208 C 
ATOM     11  H   UNL     1      32.709 -23.380 -18.533  0.00  0.00    +0.145 HD
ATOM     12  H   UNL     1      34.340 -23.814 -18.285  0.00  0.00    +0.145 HD
ENDROOT
BRANCH   7  13
ATOM     13  O   UNL     1      35.142 -16.955 -22.314  0.00  0.00    -0.405 OA
BRANCH  13  17
ATOM     14  F   UNL     1      33.200 -15.890 -21.746  0.00  0.00    -0.133 F 
ATOM     15  F   UNL     1      34.953 -14.708 -22.299  0.00  0.00    -0.133 F 
ATOM     16  F   UNL     1      34.932 -15.754 -20.379  0.00  0.00    -0.133 F 
ATOM     17  C   UNL     1      34.547 -15.835 -21.671  0.00  0.00    +0.575 C 
ENDBRANCH  13  17
ENDBRANCH   7  13
TORSDOF 2
ENDMDL
MODEL 8
REMARK VINA RESULT:      -7.5     10.532     11.653
REMARK  Name = 5070
REMARK  2 active torsions:
REMARK  status: ('A' for Active; 'I' for Inactive)
REMARK    1  A    between atoms: C_7  and  O_13
REMARK    2  A    between atoms: O_13  and  C_17
REMARK                            x       y       z     vdW  Elec       q    Type
REMARK                         _______ _______ _______ _____ _____    ______ ____
ROOT
ATOM      1  S   UNL     1      35.279 -24.226 -14.020  0.00  0.00    -0.038 S 
ATOM      2  N   UNL     1      35.436 -23.427 -16.466  0.00  0.00    -0.385 NA
ATOM      3  N   UNL     1      37.507 -23.856 -15.416  0.00  0.00    -0.328 N 
ATOM      4  C   UNL     1      33.801 -23.894 -14.843  0.00  0.00    +0.062 C 
ATOM      5  C   UNL     1      34.087 -23.477 -16.146  0.00  0.00    +0.122 C 
ATOM      6  C   UNL     1      32.483 -23.997 -14.369  0.00  0.00    +0.046 C 
ATOM      7  C   UNL     1      31.439 -23.668 -15.238  0.00  0.00    +0.144 C 
ATOM      8  C   UNL     1      33.014 -23.150 -17.004  0.00  0.00    +0.089 C 
ATOM      9  C   UNL     1      31.699 -23.250 -16.539  0.00  0.00    +0.019 C 
ATOM     10  C   UNL     1      36.149 -23.797 -15.429  0.00  0.00    +0.208 C 
ATOM     11  H   UNL     1      37.980 -24.143 -14.601  0.00  0.00    +0.145 HD
ATOM     12  H   UNL     1      38.017 -23.612 -16.222  0.00  0.00    +0.145 HD
ENDROOT
BRANCH   7  13
ATOM     13  O   UNL     1      30.151 -23.759 -14.803  0.00  0.00    -0.405 OA
BRANCH  13  17
ATOM     14  F   UNL     1      28.734 -24.591 -16.394  0.00  0.00    -0.133 F 
ATOM     15  F   UNL     1      28.435 -25.132 -14.298  0.00  0.00    -0.133 F 
ATOM     16  F   UNL     1      30.136 -25.970 -15.385  0.00  0.00    -0.133 F 
ATOM     17  C   UNL     1      29.372 -24.867 -15.236  0.00  0.00    +0.575 C 
ENDBRANCH  13  17
ENDBRANCH   7  13
TORSDOF 2
ENDMDL
MODEL 9
REMARK VINA RESULT:      -7.4     12.223     13.148
REMARK  Name = 5070
REMARK  2 active torsions:
REMARK  status: ('A' for Active; 'I' for Inactive)
REMARK    1  A    between atoms: C_7  and  O_13
REMARK    2  A    between atoms: O_13  and  C_17
REMARK                            x       y       z     vdW  Elec       q    Type
REMARK                         _______ _______ _______ _____ _____    ______ ____
ROOT
ATOM      1  S   UNL     1      34.521 -24.171 -15.256  0.00  0.00    -0.038 S 
ATOM      2  N   UNL     1      34.442 -24.103 -12.680  0.00  0.00    -0.385 NA
ATOM      3  N   UNL     1      32.617 -23.071 -13.769  0.00  0.00    -0.328 N 
ATOM      4  C   UNL     1      35.825 -24.907 -14.402  0.00  0.00    +0.062 C 
ATOM      5  C   UNL     1      35.607 -24.770 -13.027  0.00  0.00    +0.122 C 
ATOM      6  C   UNL     1      36.960 -25.560 -14.911  0.00  0.00    +0.046 C 
ATOM      7  C   UNL     1      37.888 -26.080 -14.005  0.00  0.00    +0.144 C 
ATOM      8  C   UNL     1      36.560 -25.305 -12.134  0.00  0.00    +0.089 C 
ATOM      9  C   UNL     1      37.691 -25.955 -12.633  0.00  0.00    +0.019 C 
ATOM     10  C   UNL     1      33.798 -23.744 -13.767  0.00  0.00    +0.208 C 
ATOM     11  H   UNL     1      32.188 -22.832 -14.622  0.00  0.00    +0.145 HD
ATOM     12  H   UNL     1      32.192 -22.821 -12.917  0.00  0.00    +0.145 HD
ENDROOT
BRANCH   7  13
ATOM     13  O   UNL     1      38.998 -26.717 -14.472  0.00  0.00    -0.405 OA
BRANCH  13  17
ATOM     14  F   UNL     1      41.263 -26.745 -14.162  0.00  0.00    -0.133 F 
ATOM     15  F   UNL     1      40.136 -24.932 -13.697  0.00  0.00    -0.133 F 
ATOM     16  F   UNL     1      40.423 -25.504 -15.787  0.00  0.00    -0.133 F 
ATOM     17  C   UNL     1      40.214 -25.984 -14.542  0.00  0.00    +0.575 C 
ENDBRANCH  13  17
ENDBRANCH   7  13
TORSDOF 2
ENDMDL
