MODEL 1
REMARK VINA RESULT:     -10.4      0.000      0.000
REMARK  Name = 447021
REMARK  5 active torsions:
REMARK  status: ('A' for Active; 'I' for Inactive)
REMARK    1  A    between atoms: C_5  and  N_17
REMARK    2  A    between atoms: N_17  and  C_19
REMARK    3  A    between atoms: C_19  and  C_20
REMARK    4  A    between atoms: C_21  and  O_26
REMARK    5  A    between atoms: C_23  and  O_28
REMARK                            x       y       z     vdW  Elec       q    Type
REMARK                         _______ _______ _______ _____ _____    ______ ____
ROOT
ATOM      1  N   UNL     1      32.803 -21.979 -18.793  0.00  0.00    -0.332 NA
ATOM      2  N   UNL     1      34.984 -22.643 -18.013  0.00  0.00    -0.313 NA
ATOM      3  N   UNL     1      36.931 -21.746 -18.982  0.00  0.00    -0.332 N 
ATOM      4  N   UNL     1      33.042 -23.533 -17.051  0.00  0.00    -0.283 N 
ATOM      5  C   UNL     1      34.532 -19.434 -21.607  0.00  0.00    +0.044 C 
ATOM      6  C   UNL     1      35.343 -20.181 -20.758  0.00  0.00    +0.020 C 
ATOM      7  C   UNL     1      34.763 -21.040 -19.809  0.00  0.00    +0.072 C 
ATOM      8  C   UNL     1      33.149 -19.545 -21.508  0.00  0.00    -0.004 C 
ATOM      9  C   UNL     1      33.368 -21.160 -19.698  0.00  0.00    +0.131 C 
ATOM     10  C   UNL     1      32.581 -20.402 -20.561  0.00  0.00    +0.087 C 
ATOM     11  C   UNL     1      35.516 -21.815 -18.930  0.00  0.00    +0.193 C 
ATOM     12  C   UNL     1      33.642 -22.676 -18.000  0.00  0.00    +0.197 C 
ATOM     13  H   UNL     1      37.473 -22.289 -18.365  0.00  0.00    +0.145 HD
ATOM     14  H   UNL     1      37.373 -21.155 -19.634  0.00  0.00    +0.145 HD
ATOM     15  H   UNL     1      32.061 -23.596 -16.998  0.00  0.00    +0.156 HD
ATOM     16  H   UNL     1      33.604 -24.067 -16.445  0.00  0.00    +0.156 HD
ENDROOT
BRANCH   5  17
ATOM     17  N   UNL     1      35.107 -18.572 -22.561  0.00  0.00    -0.302 N 
ATOM     18  C   UNL     1      35.321 -19.021 -23.924  0.00  0.00    +0.112 C 
BRANCH  17  19
ATOM     19  C   UNL     1      35.484 -17.220 -22.200  0.00  0.00    +0.121 C 
BRANCH  19  20
ATOM     20  C   UNL     1      34.611 -16.221 -22.908  0.00  0.00    +0.035 C 
ATOM     21  C   UNL     1      33.842 -15.322 -22.181  0.00  0.00    +0.137 C 
ATOM     22  C   UNL     1      34.589 -16.216 -24.298  0.00  0.00    +0.037 C 
ATOM     23  C   UNL     1      33.783 -15.296 -24.970  0.00  0.00    +0.139 C 
ATOM     24  C   UNL     1      33.036 -14.402 -22.853  0.00  0.00    +0.040 C 
ATOM     25  C   UNL     1      33.007 -14.389 -24.247  0.00  0.00    +0.040 C 
BRANCH  21  26
ATOM     26  O   UNL     1      33.858 -15.321 -20.818  0.00  0.00    -0.472 OA
ATOM     27  C   UNL     1      32.632 -15.020 -20.156  0.00  0.00    +0.252 C 
ENDBRANCH  21  26
BRANCH  23  28
ATOM     28  O   UNL     1      33.756 -15.282 -26.330  0.00  0.00    -0.471 OA
ATOM     29  C   UNL     1      33.087 -14.187 -26.955  0.00  0.00    +0.252 C 
ENDBRANCH  23  28
ENDBRANCH  19  20
ENDBRANCH  17  19
ENDBRANCH   5  17
TORSDOF 5
ENDMDL
MODEL 2
REMARK VINA RESULT:     -10.2      4.897      7.480
REMARK  Name = 447021
REMARK  5 active torsions:
REMARK  status: ('A' for Active; 'I' for Inactive)
REMARK    1  A    between atoms: C_5  and  N_17
REMARK    2  A    between atoms: N_17  and  C_19
REMARK    3  A    between atoms: C_19  and  C_20
REMARK    4  A    between atoms: C_21  and  O_26
REMARK    5  A    between atoms: C_23  and  O_28
REMARK                            x       y       z     vdW  Elec       q    Type
REMARK                         _______ _______ _______ _____ _____    ______ ____
ROOT
ATOM      1  N   UNL     1      34.371 -16.365 -22.410  0.00  0.00    -0.332 NA
ATOM      2  N   UNL     1      34.182 -16.041 -24.790  0.00  0.00    -0.313 NA
ATOM      3  N   UNL     1      33.091 -14.147 -25.662  0.00  0.00    -0.332 N 
ATOM      4  N   UNL     1      35.268 -17.924 -23.917  0.00  0.00    -0.283 N 
ATOM      5  C   UNL     1      32.322 -12.802 -21.713  0.00  0.00    +0.044 C 
ATOM      6  C   UNL     1      32.561 -13.219 -23.019  0.00  0.00    +0.020 C 
ATOM      7  C   UNL     1      33.251 -14.420 -23.257  0.00  0.00    +0.072 C 
ATOM      8  C   UNL     1      32.770 -13.579 -20.651  0.00  0.00    -0.004 C 
ATOM      9  C   UNL     1      33.709 -15.215 -22.193  0.00  0.00    +0.131 C 
ATOM     10  C   UNL     1      33.456 -14.773 -20.897  0.00  0.00    +0.087 C 
ATOM     11  C   UNL     1      33.523 -14.895 -24.537  0.00  0.00    +0.193 C 
ATOM     12  C   UNL     1      34.571 -16.716 -23.697  0.00  0.00    +0.197 C 
ATOM     13  H   UNL     1      33.279 -14.473 -26.572  0.00  0.00    +0.145 HD
ATOM     14  H   UNL     1      32.605 -13.301 -25.534  0.00  0.00    +0.145 HD
ATOM     15  H   UNL     1      35.576 -18.460 -23.151  0.00  0.00    +0.156 HD
ATOM     16  H   UNL     1      35.443 -18.231 -24.835  0.00  0.00    +0.156 HD
ENDROOT
BRANCH   5  17
ATOM     17  N   UNL     1      31.630 -11.599 -21.468  0.00  0.00    -0.302 N 
ATOM     18  C   UNL     1      31.243 -11.234 -20.118  0.00  0.00    +0.112 C 
BRANCH  17  19
ATOM     19  C   UNL     1      31.304 -10.702 -22.559  0.00  0.00    +0.121 C 
BRANCH  19  20
ATOM     20  C   UNL     1      32.469  -9.802 -22.868  0.00  0.00    +0.035 C 
ATOM     21  C   UNL     1      32.591  -8.571 -22.236  0.00  0.00    +0.137 C 
ATOM     22  C   UNL     1      33.416 -10.224 -23.795  0.00  0.00    +0.037 C 
ATOM     23  C   UNL     1      34.501  -9.400 -24.093  0.00  0.00    +0.139 C 
ATOM     24  C   UNL     1      33.677  -7.747 -22.535  0.00  0.00    +0.040 C 
ATOM     25  C   UNL     1      34.632  -8.162 -23.463  0.00  0.00    +0.040 C 
BRANCH  21  26
ATOM     26  O   UNL     1      31.668  -8.150 -21.327  0.00  0.00    -0.472 OA
ATOM     27  C   UNL     1      32.161  -7.586 -20.115  0.00  0.00    +0.252 C 
ENDBRANCH  21  26
BRANCH  23  28
ATOM     28  O   UNL     1      35.434  -9.805 -24.998  0.00  0.00    -0.471 OA
ATOM     29  C   UNL     1      35.054 -10.840 -25.903  0.00  0.00    +0.252 C 
ENDBRANCH  23  28
ENDBRANCH  19  20
ENDBRANCH  17  19
ENDBRANCH   5  17
TORSDOF 5
ENDMDL
MODEL 3
REMARK VINA RESULT:     -10.1      4.694      7.792
REMARK  Name = 447021
REMARK  5 active torsions:
REMARK  status: ('A' for Active; 'I' for Inactive)
REMARK    1  A    between atoms: C_5  and  N_17
REMARK    2  A    between atoms: N_17  and  C_19
REMARK    3  A    between atoms: C_19  and  C_20
REMARK    4  A    between atoms: C_21  and  O_26
REMARK    5  A    between atoms: C_23  and  O_28
REMARK                            x       y       z     vdW  Elec       q    Type
REMARK                         _______ _______ _______ _____ _____    ______ ____
ROOT
ATOM      1  N   UNL     1      34.481 -16.627 -22.473  0.00  0.00    -0.332 NA
ATOM      2  N   UNL     1      34.252 -16.291 -24.848  0.00  0.00    -0.313 NA
ATOM      3  N   UNL     1      33.111 -14.414 -25.690  0.00  0.00    -0.332 N 
ATOM      4  N   UNL     1      35.387 -18.158 -24.003  0.00  0.00    -0.283 N 
ATOM      5  C   UNL     1      32.372 -13.111 -21.722  0.00  0.00    +0.044 C 
ATOM      6  C   UNL     1      32.600 -13.515 -23.034  0.00  0.00    +0.020 C 
ATOM      7  C   UNL     1      33.311 -14.700 -23.290  0.00  0.00    +0.072 C 
ATOM      8  C   UNL     1      32.851 -13.886 -20.672  0.00  0.00    -0.004 C 
ATOM      9  C   UNL     1      33.800 -15.492 -22.238  0.00  0.00    +0.131 C 
ATOM     10  C   UNL     1      33.557 -15.064 -20.936  0.00  0.00    +0.087 C 
ATOM     11  C   UNL     1      33.573 -15.160 -24.578  0.00  0.00    +0.193 C 
ATOM     12  C   UNL     1      34.670 -16.965 -23.764  0.00  0.00    +0.197 C 
ATOM     13  H   UNL     1      33.292 -14.731 -26.605  0.00  0.00    +0.145 HD
ATOM     14  H   UNL     1      32.610 -13.579 -25.550  0.00  0.00    +0.145 HD
ATOM     15  H   UNL     1      35.718 -18.693 -23.245  0.00  0.00    +0.156 HD
ATOM     16  H   UNL     1      35.555 -18.455 -24.926  0.00  0.00    +0.156 HD
ENDROOT
BRANCH   5  17
ATOM     17  N   UNL     1      31.659 -11.924 -21.459  0.00  0.00    -0.302 N 
ATOM     18  C   UNL     1      31.341 -11.544 -20.095  0.00  0.00    +0.112 C 
BRANCH  17  19
ATOM     19  C   UNL     1      31.244 -11.059 -22.545  0.00  0.00    +0.121 C 
BRANCH  19  20
ATOM     20  C   UNL     1      32.150  -9.863 -22.644  0.00  0.00    +0.035 C 
ATOM     21  C   UNL     1      33.222  -9.866 -23.527  0.00  0.00    +0.137 C 
ATOM     22  C   UNL     1      31.897  -8.760 -21.836  0.00  0.00    +0.037 C 
ATOM     23  C   UNL     1      32.730  -7.644 -21.915  0.00  0.00    +0.139 C 
ATOM     24  C   UNL     1      34.054  -8.749 -23.606  0.00  0.00    +0.040 C 
ATOM     25  C   UNL     1      33.808  -7.638 -22.800  0.00  0.00    +0.040 C 
BRANCH  21  26
ATOM     26  O   UNL     1      33.478 -10.943 -24.322  0.00  0.00    -0.472 OA
ATOM     27  C   UNL     1      34.624 -10.868 -25.166  0.00  0.00    +0.252 C 
ENDBRANCH  21  26
BRANCH  23  28
ATOM     28  O   UNL     1      32.488  -6.558 -21.130  0.00  0.00    -0.471 OA
ATOM     29  C   UNL     1      31.307  -5.807 -21.406  0.00  0.00    +0.252 C 
ENDBRANCH  23  28
ENDBRANCH  19  20
ENDBRANCH  17  19
ENDBRANCH   5  17
TORSDOF 5
ENDMDL
MODEL 4
REMARK VINA RESULT:     -10.1      4.385      8.303
REMARK  Name = 447021
REMARK  5 active torsions:
REMARK  status: ('A' for Active; 'I' for Inactive)
REMARK    1  A    between atoms: C_5  and  N_17
REMARK    2  A    between atoms: N_17  and  C_19
REMARK    3  A    between atoms: C_19  and  C_20
REMARK    4  A    between atoms: C_21  and  O_26
REMARK    5  A    between atoms: C_23  and  O_28
REMARK                            x       y       z     vdW  Elec       q    Type
REMARK                         _______ _______ _______ _____ _____    ______ ____
ROOT
ATOM      1  N   UNL     1      31.565  -9.783 -22.135  0.00  0.00    -0.332 NA
ATOM      2  N   UNL     1      32.930  -9.678 -24.118  0.00  0.00    -0.313 NA
ATOM      3  N   UNL     1      34.220 -11.528 -24.788  0.00  0.00    -0.332 N 
ATOM      4  N   UNL     1      31.643  -7.840 -23.446  0.00  0.00    -0.283 N 
ATOM      5  C   UNL     1      32.793 -13.706 -21.438  0.00  0.00    +0.044 C 
ATOM      6  C   UNL     1      33.277 -13.015 -22.545  0.00  0.00    +0.020 C 
ATOM      7  C   UNL     1      32.865 -11.692 -22.782  0.00  0.00    +0.072 C 
ATOM      8  C   UNL     1      31.903 -13.080 -20.574  0.00  0.00    -0.004 C 
ATOM      9  C   UNL     1      31.966 -11.048 -21.916  0.00  0.00    +0.131 C 
ATOM     10  C   UNL     1      31.498 -11.763 -20.817  0.00  0.00    +0.087 C 
ATOM     11  C   UNL     1      33.311 -10.945 -23.870  0.00  0.00    +0.193 C 
ATOM     12  C   UNL     1      32.069  -9.167 -23.223  0.00  0.00    +0.197 C 
ATOM     13  H   UNL     1      34.541 -11.009 -25.560  0.00  0.00    +0.145 HD
ATOM     14  H   UNL     1      34.531 -12.453 -24.654  0.00  0.00    +0.145 HD
ATOM     15  H   UNL     1      31.012  -7.414 -22.822  0.00  0.00    +0.156 HD
ATOM     16  H   UNL     1      31.978  -7.339 -24.225  0.00  0.00    +0.156 HD
ENDROOT
BRANCH   5  17
ATOM     17  N   UNL     1      33.204 -15.032 -21.195  0.00  0.00    -0.302 N 
ATOM     18  C   UNL     1      32.272 -16.002 -20.653  0.00  0.00    +0.112 C 
BRANCH  17  19
ATOM     19  C   UNL     1      34.559 -15.450 -21.495  0.00  0.00    +0.121 C 
BRANCH  19  20
ATOM     20  C   UNL     1      34.581 -16.340 -22.707  0.00  0.00    +0.035 C 
ATOM     21  C   UNL     1      34.968 -17.669 -22.595  0.00  0.00    +0.137 C 
ATOM     22  C   UNL     1      34.209 -15.809 -23.937  0.00  0.00    +0.037 C 
ATOM     23  C   UNL     1      34.225 -16.622 -25.071  0.00  0.00    +0.139 C 
ATOM     24  C   UNL     1      34.984 -18.482 -23.729  0.00  0.00    +0.040 C 
ATOM     25  C   UNL     1      34.612 -17.958 -24.967  0.00  0.00    +0.040 C 
BRANCH  21  26
ATOM     26  O   UNL     1      35.334 -18.198 -21.393  0.00  0.00    -0.472 OA
ATOM     27  C   UNL     1      34.692 -19.406 -20.993  0.00  0.00    +0.252 C 
ENDBRANCH  21  26
BRANCH  23  28
ATOM     28  O   UNL     1      33.861 -16.111 -26.279  0.00  0.00    -0.471 OA
ATOM     29  C   UNL     1      33.099 -14.905 -26.271  0.00  0.00    +0.252 C 
ENDBRANCH  23  28
ENDBRANCH  19  20
ENDBRANCH  17  19
ENDBRANCH   5  17
TORSDOF 5
ENDMDL
MODEL 5
REMARK VINA RESULT:      -9.9      1.296      3.457
REMARK  Name = 447021
REMARK  5 active torsions:
REMARK  status: ('A' for Active; 'I' for Inactive)
REMARK    1  A    between atoms: C_5  and  N_17
REMARK    2  A    between atoms: N_17  and  C_19
REMARK    3  A    between atoms: C_19  and  C_20
REMARK    4  A    between atoms: C_21  and  O_26
REMARK    5  A    between atoms: C_23  and  O_28
REMARK                            x       y       z     vdW  Elec       q    Type
REMARK                         _______ _______ _______ _____ _____    ______ ____
ROOT
ATOM      1  N   UNL     1      36.614 -20.831 -19.137  0.00  0.00    -0.332 NA
ATOM      2  N   UNL     1      34.384 -21.699 -18.852  0.00  0.00    -0.313 NA
ATOM      3  N   UNL     1      32.651 -21.062 -20.310  0.00  0.00    -0.332 N 
ATOM      4  N   UNL     1      36.114 -22.331 -17.404  0.00  0.00    -0.283 N 
ATOM      5  C   UNL     1      35.378 -18.608 -22.441  0.00  0.00    +0.044 C 
ATOM      6  C   UNL     1      34.462 -19.406 -21.760  0.00  0.00    +0.020 C 
ATOM      7  C   UNL     1      34.875 -20.156 -20.646  0.00  0.00    +0.072 C 
ATOM      8  C   UNL     1      36.699 -18.562 -22.011  0.00  0.00    -0.004 C 
ATOM      9  C   UNL     1      36.208 -20.117 -20.202  0.00  0.00    +0.131 C 
ATOM     10  C   UNL     1      37.102 -19.311 -20.902  0.00  0.00    +0.087 C 
ATOM     11  C   UNL     1      34.011 -20.972 -19.921  0.00  0.00    +0.193 C 
ATOM     12  C   UNL     1      35.680 -21.583 -18.520  0.00  0.00    +0.197 C 
ATOM     13  H   UNL     1      32.031 -21.636 -19.804  0.00  0.00    +0.145 HD
ATOM     14  H   UNL     1      32.325 -20.551 -21.085  0.00  0.00    +0.145 HD
ATOM     15  H   UNL     1      37.054 -22.284 -17.116  0.00  0.00    +0.156 HD
ATOM     16  H   UNL     1      35.476 -22.898 -16.913  0.00  0.00    +0.156 HD
ENDROOT
BRANCH   5  17
ATOM     17  N   UNL     1      34.968 -17.854 -23.558  0.00  0.00    -0.302 N 
ATOM     18  C   UNL     1      34.057 -18.421 -24.534  0.00  0.00    +0.112 C 
BRANCH  17  19
ATOM     19  C   UNL     1      35.441 -16.496 -23.743  0.00  0.00    +0.121 C 
BRANCH  19  20
ATOM     20  C   UNL     1      34.350 -15.510 -23.429  0.00  0.00    +0.035 C 
ATOM     21  C   UNL     1      33.626 -14.916 -24.455  0.00  0.00    +0.137 C 
ATOM     22  C   UNL     1      34.082 -15.205 -22.100  0.00  0.00    +0.037 C 
ATOM     23  C   UNL     1      33.073 -14.291 -21.793  0.00  0.00    +0.139 C 
ATOM     24  C   UNL     1      32.617 -14.001 -24.148  0.00  0.00    +0.040 C 
ATOM     25  C   UNL     1      32.341 -13.690 -22.817  0.00  0.00    +0.040 C 
BRANCH  21  26
ATOM     26  O   UNL     1      33.882 -15.208 -25.761  0.00  0.00    -0.472 OA
ATOM     27  C   UNL     1      33.127 -14.504 -26.744  0.00  0.00    +0.252 C 
ENDBRANCH  21  26
BRANCH  23  28
ATOM     28  O   UNL     1      32.802 -13.988 -20.494  0.00  0.00    -0.471 OA
ATOM     29  C   UNL     1      32.116 -12.761 -20.243  0.00  0.00    +0.252 C 
ENDBRANCH  23  28
ENDBRANCH  19  20
ENDBRANCH  17  19
ENDBRANCH   5  17
TORSDOF 5
ENDMDL
MODEL 6
REMARK VINA RESULT:      -9.9      7.710      9.758
REMARK  Name = 447021
REMARK  5 active torsions:
REMARK  status: ('A' for Active; 'I' for Inactive)
REMARK    1  A    between atoms: C_5  and  N_17
REMARK    2  A    between atoms: N_17  and  C_19
REMARK    3  A    between atoms: C_19  and  C_20
REMARK    4  A    between atoms: C_21  and  O_26
REMARK    5  A    between atoms: C_23  and  O_28
REMARK                            x       y       z     vdW  Elec       q    Type
REMARK                         _______ _______ _______ _____ _____    ______ ____
ROOT
ATOM      1  N   UNL     1      38.888 -24.357 -14.726  0.00  0.00    -0.332 NA
ATOM      2  N   UNL     1      38.364 -26.699 -14.510  0.00  0.00    -0.313 NA
ATOM      3  N   UNL     1      36.177 -27.481 -14.891  0.00  0.00    -0.332 N 
ATOM      4  N   UNL     1      40.538 -25.915 -14.132  0.00  0.00    -0.283 N 
ATOM      5  C   UNL     1      34.932 -23.515 -15.738  0.00  0.00    +0.044 C 
ATOM      6  C   UNL     1      35.313 -24.825 -15.465  0.00  0.00    +0.020 C 
ATOM      7  C   UNL     1      36.646 -25.112 -15.123  0.00  0.00    +0.072 C 
ATOM      8  C   UNL     1      35.877 -22.497 -15.670  0.00  0.00    -0.004 C 
ATOM      9  C   UNL     1      37.610 -24.093 -15.052  0.00  0.00    +0.131 C 
ATOM     10  C   UNL     1      37.201 -22.791 -15.329  0.00  0.00    +0.087 C 
ATOM     11  C   UNL     1      37.093 -26.400 -14.839  0.00  0.00    +0.193 C 
ATOM     12  C   UNL     1      39.195 -25.645 -14.472  0.00  0.00    +0.197 C 
ATOM     13  H   UNL     1      36.483 -28.395 -14.692  0.00  0.00    +0.145 HD
ATOM     14  H   UNL     1      35.236 -27.318 -15.127  0.00  0.00    +0.145 HD
ATOM     15  H   UNL     1      41.192 -25.179 -14.089  0.00  0.00    +0.156 HD
ATOM     16  H   UNL     1      40.821 -26.837 -13.936  0.00  0.00    +0.156 HD
ENDROOT
BRANCH   5  17
ATOM     17  N   UNL     1      33.597 -23.221 -16.081  0.00  0.00    -0.302 N 
ATOM     18  C   UNL     1      33.166 -23.269 -17.465  0.00  0.00    +0.112 C 
BRANCH  17  19
ATOM     19  C   UNL     1      32.632 -22.879 -15.055  0.00  0.00    +0.121 C 
BRANCH  19  20
ATOM     20  C   UNL     1      31.253 -23.324 -15.458  0.00  0.00    +0.035 C 
ATOM     21  C   UNL     1      30.815 -24.608 -15.160  0.00  0.00    +0.137 C 
ATOM     22  C   UNL     1      30.430 -22.430 -16.132  0.00  0.00    +0.037 C 
ATOM     23  C   UNL     1      29.148 -22.827 -16.515  0.00  0.00    +0.139 C 
ATOM     24  C   UNL     1      29.533 -25.006 -15.542  0.00  0.00    +0.040 C 
ATOM     25  C   UNL     1      28.700 -24.115 -16.219  0.00  0.00    +0.040 C 
BRANCH  21  26
ATOM     26  O   UNL     1      31.615 -25.491 -14.500  0.00  0.00    -0.472 OA
ATOM     27  C   UNL     1      31.892 -25.215 -13.129  0.00  0.00    +0.252 C 
ENDBRANCH  21  26
BRANCH  23  28
ATOM     28  O   UNL     1      28.334 -21.958 -17.174  0.00  0.00    -0.471 OA
ATOM     29  C   UNL     1      26.955 -21.954 -16.806  0.00  0.00    +0.252 C 
ENDBRANCH  23  28
ENDBRANCH  19  20
ENDBRANCH  17  19
ENDBRANCH   5  17
TORSDOF 5
ENDMDL
MODEL 7
REMARK VINA RESULT:      -9.9      4.093      6.321
REMARK  Name = 447021
REMARK  5 active torsions:
REMARK  status: ('A' for Active; 'I' for Inactive)
REMARK    1  A    between atoms: C_5  and  N_17
REMARK    2  A    between atoms: N_17  and  C_19
REMARK    3  A    between atoms: C_19  and  C_20
REMARK    4  A    between atoms: C_21  and  O_26
REMARK    5  A    between atoms: C_23  and  O_28
REMARK                            x       y       z     vdW  Elec       q    Type
REMARK                         _______ _______ _______ _____ _____    ______ ____
ROOT
ATOM      1  N   UNL     1      35.063 -17.187 -20.607  0.00  0.00    -0.332 NA
ATOM      2  N   UNL     1      35.718 -18.149 -22.717  0.00  0.00    -0.313 NA
ATOM      3  N   UNL     1      35.304 -17.013 -24.736  0.00  0.00    -0.332 N 
ATOM      4  N   UNL     1      36.129 -19.275 -20.705  0.00  0.00    -0.283 N 
ATOM      5  C   UNL     1      33.523 -13.839 -22.556  0.00  0.00    +0.044 C 
ATOM      6  C   UNL     1      34.102 -14.866 -23.296  0.00  0.00    +0.020 C 
ATOM      7  C   UNL     1      34.622 -15.996 -22.642  0.00  0.00    +0.072 C 
ATOM      8  C   UNL     1      33.464 -13.940 -21.171  0.00  0.00    -0.004 C 
ATOM      9  C   UNL     1      34.568 -16.110 -21.243  0.00  0.00    +0.131 C 
ATOM     10  C   UNL     1      33.984 -15.068 -20.528  0.00  0.00    +0.087 C 
ATOM     11  C   UNL     1      35.213 -17.057 -23.322  0.00  0.00    +0.193 C 
ATOM     12  C   UNL     1      35.611 -18.148 -21.379  0.00  0.00    +0.197 C 
ATOM     13  H   UNL     1      35.720 -17.758 -25.226  0.00  0.00    +0.145 HD
ATOM     14  H   UNL     1      34.950 -16.237 -25.228  0.00  0.00    +0.145 HD
ATOM     15  H   UNL     1      36.077 -19.327 -19.723  0.00  0.00    +0.156 HD
ATOM     16  H   UNL     1      36.541 -20.008 -21.216  0.00  0.00    +0.156 HD
ENDROOT
BRANCH   5  17
ATOM     17  N   UNL     1      33.000 -12.704 -23.207  0.00  0.00    -0.302 N 
ATOM     18  C   UNL     1      33.663 -12.155 -24.375  0.00  0.00    +0.112 C 
BRANCH  17  19
ATOM     19  C   UNL     1      31.785 -12.075 -22.728  0.00  0.00    +0.121 C 
BRANCH  19  20
ATOM     20  C   UNL     1      32.067 -10.680 -22.245  0.00  0.00    +0.035 C 
ATOM     21  C   UNL     1      31.848 -10.340 -20.916  0.00  0.00    +0.137 C 
ATOM     22  C   UNL     1      32.549  -9.740 -23.149  0.00  0.00    +0.037 C 
ATOM     23  C   UNL     1      32.815  -8.441 -22.716  0.00  0.00    +0.139 C 
ATOM     24  C   UNL     1      32.113  -9.040 -20.483  0.00  0.00    +0.040 C 
ATOM     25  C   UNL     1      32.597  -8.091 -21.383  0.00  0.00    +0.040 C 
BRANCH  21  26
ATOM     26  O   UNL     1      31.375 -11.254 -20.023  0.00  0.00    -0.472 OA
ATOM     27  C   UNL     1      31.334 -10.861 -18.653  0.00  0.00    +0.252 C 
ENDBRANCH  21  26
BRANCH  23  28
ATOM     28  O   UNL     1      33.288  -7.515 -23.594  0.00  0.00    -0.471 OA
ATOM     29  C   UNL     1      34.706  -7.395 -23.709  0.00  0.00    +0.252 C 
ENDBRANCH  23  28
ENDBRANCH  19  20
ENDBRANCH  17  19
ENDBRANCH   5  17
TORSDOF 5
ENDMDL
MODEL 8
REMARK VINA RESULT:      -9.8      2.046      3.693
REMARK  Name = 447021
REMARK  5 active torsions:
REMARK  status: ('A' for Active; 'I' for Inactive)
REMARK    1  A    between atoms: C_5  and  N_17
REMARK    2  A    between atoms: N_17  and  C_19
REMARK    3  A    between atoms: C_19  and  C_20
REMARK    4  A    between atoms: C_21  and  O_26
REMARK    5  A    between atoms: C_23  and  O_28
REMARK                            x       y       z     vdW  Elec       q    Type
REMARK                         _______ _______ _______ _____ _____    ______ ____
ROOT
ATOM      1  N   UNL     1      33.972 -23.723 -16.473  0.00  0.00    -0.332 NA
ATOM      2  N   UNL     1      36.210 -23.645 -15.583  0.00  0.00    -0.313 NA
ATOM      3  N   UNL     1      37.868 -22.334 -16.615  0.00  0.00    -0.332 N 
ATOM      4  N   UNL     1      34.554 -24.949 -14.560  0.00  0.00    -0.283 N 
ATOM      5  C   UNL     1      35.045 -21.100 -19.531  0.00  0.00    +0.044 C 
ATOM      6  C   UNL     1      35.992 -21.488 -18.587  0.00  0.00    +0.020 C 
ATOM      7  C   UNL     1      35.633 -22.373 -17.556  0.00  0.00    +0.072 C 
ATOM      8  C   UNL     1      33.748 -21.592 -19.444  0.00  0.00    -0.004 C 
ATOM      9  C   UNL     1      34.325 -22.877 -17.457  0.00  0.00    +0.131 C 
ATOM     10  C   UNL     1      33.399 -22.472 -18.414  0.00  0.00    +0.087 C 
ATOM     11  C   UNL     1      36.530 -22.800 -16.581  0.00  0.00    +0.193 C 
ATOM     12  C   UNL     1      34.933 -24.061 -15.590  0.00  0.00    +0.197 C 
ATOM     13  H   UNL     1      38.511 -22.630 -15.930  0.00  0.00    +0.145 HD
ATOM     14  H   UNL     1      38.156 -21.713 -17.323  0.00  0.00    +0.145 HD
ATOM     15  H   UNL     1      33.630 -25.286 -14.517  0.00  0.00    +0.156 HD
ATOM     16  H   UNL     1      35.214 -25.232 -13.886  0.00  0.00    +0.156 HD
ENDROOT
BRANCH   5  17
ATOM     17  N   UNL     1      35.400 -20.214 -20.568  0.00  0.00    -0.302 N 
ATOM     18  C   UNL     1      36.736 -19.654 -20.632  0.00  0.00    +0.112 C 
BRANCH  17  19
ATOM     19  C   UNL     1      34.439 -19.860 -21.594  0.00  0.00    +0.121 C 
BRANCH  19  20
ATOM     20  C   UNL     1      34.565 -18.405 -21.955  0.00  0.00    +0.035 C 
ATOM     21  C   UNL     1      34.931 -18.032 -23.242  0.00  0.00    +0.137 C 
ATOM     22  C   UNL     1      34.311 -17.447 -20.982  0.00  0.00    +0.037 C 
ATOM     23  C   UNL     1      34.425 -16.094 -21.301  0.00  0.00    +0.139 C 
ATOM     24  C   UNL     1      35.045 -16.678 -23.562  0.00  0.00    +0.040 C 
ATOM     25  C   UNL     1      34.792 -15.709 -22.591  0.00  0.00    +0.040 C 
BRANCH  21  26
ATOM     26  O   UNL     1      35.182 -18.965 -24.203  0.00  0.00    -0.472 OA
ATOM     27  C   UNL     1      34.278 -19.023 -25.303  0.00  0.00    +0.252 C 
ENDBRANCH  21  26
BRANCH  23  28
ATOM     28  O   UNL     1      34.176 -15.148 -20.354  0.00  0.00    -0.471 OA
ATOM     29  C   UNL     1      32.886 -14.537 -20.370  0.00  0.00    +0.252 C 
ENDBRANCH  23  28
ENDBRANCH  19  20
ENDBRANCH  17  19
ENDBRANCH   5  17
TORSDOF 5
ENDMDL
MODEL 9
REMARK VINA RESULT:      -9.8      1.785      3.807
REMARK  Name = 447021
REMARK  5 active torsions:
REMARK  status: ('A' for Active; 'I' for Inactive)
REMARK    1  A    between atoms: C_5  and  N_17
REMARK    2  A    between atoms: N_17  and  C_19
REMARK    3  A    between atoms: C_19  and  C_20
REMARK    4  A    between atoms: C_21  and  O_26
REMARK    5  A    between atoms: C_23  and  O_28
REMARK                            x       y       z     vdW  Elec       q    Type
REMARK                         _______ _______ _______ _____ _____    ______ ____
ROOT
ATOM      1  N   UNL     1      36.009 -23.148 -16.540  0.00  0.00    -0.332 NA
ATOM      2  N   UNL     1      33.704 -23.781 -16.229  0.00  0.00    -0.313 NA
ATOM      3  N   UNL     1      32.031 -22.967 -17.668  0.00  0.00    -0.332 N 
ATOM      4  N   UNL     1      35.375 -24.589 -14.799  0.00  0.00    -0.283 N 
ATOM      5  C   UNL     1      34.974 -20.809 -19.832  0.00  0.00    +0.044 C 
ATOM      6  C   UNL     1      33.988 -21.507 -19.140  0.00  0.00    +0.020 C 
ATOM      7  C   UNL     1      34.334 -22.296 -18.030  0.00  0.00    +0.072 C 
ATOM      8  C   UNL     1      36.297 -20.900 -19.416  0.00  0.00    -0.004 C 
ATOM      9  C   UNL     1      35.668 -22.396 -17.600  0.00  0.00    +0.131 C 
ATOM     10  C   UNL     1      36.633 -21.687 -18.310  0.00  0.00    +0.087 C 
ATOM     11  C   UNL     1      33.397 -23.018 -17.295  0.00  0.00    +0.193 C 
ATOM     12  C   UNL     1      35.009 -23.800 -15.911  0.00  0.00    +0.197 C 
ATOM     13  H   UNL     1      31.361 -23.474 -17.155  0.00  0.00    +0.145 HD
ATOM     14  H   UNL     1      31.751 -22.425 -18.441  0.00  0.00    +0.145 HD
ATOM     15  H   UNL     1      36.318 -24.639 -14.521  0.00  0.00    +0.156 HD
ATOM     16  H   UNL     1      34.688 -25.087 -14.301  0.00  0.00    +0.156 HD
ENDROOT
BRANCH   5  17
ATOM     17  N   UNL     1      34.633 -20.016 -20.945  0.00  0.00    -0.302 N 
ATOM     18  C   UNL     1      33.244 -19.853 -21.334  0.00  0.00    +0.112 C 
BRANCH  17  19
ATOM     19  C   UNL     1      35.661 -19.340 -21.711  0.00  0.00    +0.121 C 
BRANCH  19  20
ATOM     20  C   UNL     1      35.220 -17.950 -22.077  0.00  0.00    +0.035 C 
ATOM     21  C   UNL     1      35.091 -17.584 -23.411  0.00  0.00    +0.137 C 
ATOM     22  C   UNL     1      34.946 -17.043 -21.060  0.00  0.00    +0.037 C 
ATOM     23  C   UNL     1      34.537 -15.749 -21.384  0.00  0.00    +0.139 C 
ATOM     24  C   UNL     1      34.682 -16.290 -23.734  0.00  0.00    +0.040 C 
ATOM     25  C   UNL     1      34.404 -15.372 -22.721  0.00  0.00    +0.040 C 
BRANCH  21  26
ATOM     26  O   UNL     1      35.358 -18.467 -24.414  0.00  0.00    -0.472 OA
ATOM     27  C   UNL     1      34.242 -19.002 -25.121  0.00  0.00    +0.252 C 
ENDBRANCH  21  26
BRANCH  23  28
ATOM     28  O   UNL     1      34.264 -14.854 -20.395  0.00  0.00    -0.471 OA
ATOM     29  C   UNL     1      32.968 -14.256 -20.400  0.00  0.00    +0.252 C 
ENDBRANCH  23  28
ENDBRANCH  19  20
ENDBRANCH  17  19
ENDBRANCH   5  17
TORSDOF 5
ENDMDL
