MODEL 1
REMARK VINA RESULT:      -8.1      0.000      0.000
REMARK  Name = 8617
REMARK  5 active torsions:
REMARK  status: ('A' for Active; 'I' for Inactive)
REMARK    1  A    between atoms: C_2  and  C_11
REMARK    2  A    between atoms: C_11  and  C_12
REMARK    3  A    between atoms: C_12  and  C_13
REMARK    4  A    between atoms: C_13  and  C_15
REMARK    5  A    between atoms: C_15  and  O_16
REMARK                            x       y       z     vdW  Elec       q    Type
REMARK                         _______ _______ _______ _____ _____    ______ ____
ROOT
ATOM      1  N   UNL     1      35.280 -17.409 -24.061  0.00  0.00    -0.312 N 
ATOM      2  C   UNL     1      35.518 -18.347 -22.063  0.00  0.00    -0.006 C 
ATOM      3  C   UNL     1      35.073 -17.008 -21.877  0.00  0.00    +0.011 C 
ATOM      4  C   UNL     1      34.933 -16.442 -23.147  0.00  0.00    +0.048 C 
ATOM      5  C   UNL     1      35.636 -18.563 -23.418  0.00  0.00    +0.058 C 
ATOM      6  C   UNL     1      34.777 -16.220 -20.747  0.00  0.00    +0.001 C 
ATOM      7  C   UNL     1      34.509 -15.123 -23.342  0.00  0.00    +0.015 C 
ATOM      8  C   UNL     1      34.352 -14.898 -20.927  0.00  0.00    +0.000 C 
ATOM      9  C   UNL     1      34.221 -14.360 -22.207  0.00  0.00    +0.001 C 
ATOM     10  H   UNL     1      35.275 -17.288 -25.039  0.00  0.00    +0.152 HD
ENDROOT
BRANCH   2  11
ATOM     11  C   UNL     1      35.803 -19.334 -21.004  0.00  0.00    +0.028 C 
BRANCH  11  12
ATOM     12  C   UNL     1      34.567 -20.167 -20.607  0.00  0.00    +0.016 C 
BRANCH  12  13
ATOM     13  C   UNL     1      34.887 -21.292 -19.621  0.00  0.00    +0.110 C 
BRANCH  13  15
ATOM     14  O   UNL     1      32.599 -21.805 -18.963  0.00  0.00    -0.250 OA
ATOM     15  C   UNL     1      33.701 -22.184 -19.330  0.00  0.00    +0.314 C 
BRANCH  15  16
ATOM     16  O   UNL     1      34.012 -23.496 -19.506  0.00  0.00    -0.480 OA
ATOM     17  H   UNL     1      34.683 -23.892 -18.986  0.00  0.00    +0.295 HD
ENDBRANCH  15  16
ENDBRANCH  13  15
ENDBRANCH  12  13
ENDBRANCH  11  12
ENDBRANCH   2  11
TORSDOF 5
ENDMDL
MODEL 2
REMARK VINA RESULT:      -7.9      3.883      6.194
REMARK  Name = 8617
REMARK  5 active torsions:
REMARK  status: ('A' for Active; 'I' for Inactive)
REMARK    1  A    between atoms: C_2  and  C_11
REMARK    2  A    between atoms: C_11  and  C_12
REMARK    3  A    between atoms: C_12  and  C_13
REMARK    4  A    between atoms: C_13  and  C_15
REMARK    5  A    between atoms: C_15  and  O_16
REMARK                            x       y       z     vdW  Elec       q    Type
REMARK                         _______ _______ _______ _____ _____    ______ ____
ROOT
ATOM      1  N   UNL     1      32.719 -20.881 -20.098  0.00  0.00    -0.312 N 
ATOM      2  C   UNL     1      33.945 -19.415 -21.227  0.00  0.00    -0.006 C 
ATOM      3  C   UNL     1      34.817 -20.193 -20.414  0.00  0.00    +0.011 C 
ATOM      4  C   UNL     1      34.022 -21.105 -19.715  0.00  0.00    +0.048 C 
ATOM      5  C   UNL     1      32.662 -19.862 -21.010  0.00  0.00    +0.058 C 
ATOM      6  C   UNL     1      36.211 -20.208 -20.203  0.00  0.00    +0.001 C 
ATOM      7  C   UNL     1      34.554 -22.034 -18.814  0.00  0.00    +0.015 C 
ATOM      8  C   UNL     1      36.756 -21.132 -19.305  0.00  0.00    +0.000 C 
ATOM      9  C   UNL     1      35.938 -22.030 -18.622  0.00  0.00    +0.001 C 
ATOM     10  H   UNL     1      31.940 -21.381 -19.762  0.00  0.00    +0.152 HD
ENDROOT
BRANCH   2  11
ATOM     11  C   UNL     1      34.336 -18.324 -22.141  0.00  0.00    +0.028 C 
BRANCH  11  12
ATOM     12  C   UNL     1      35.180 -18.813 -23.337  0.00  0.00    +0.016 C 
BRANCH  12  13
ATOM     13  C   UNL     1      34.615 -18.382 -24.692  0.00  0.00    +0.110 C 
BRANCH  13  15
ATOM     14  O   UNL     1      34.276 -16.285 -25.884  0.00  0.00    -0.250 OA
ATOM     15  C   UNL     1      34.804 -16.909 -24.974  0.00  0.00    +0.314 C 
BRANCH  15  16
ATOM     16  O   UNL     1      35.667 -16.340 -24.090  0.00  0.00    -0.480 OA
ATOM     17  H   UNL     1      36.463 -16.780 -23.865  0.00  0.00    +0.295 HD
ENDBRANCH  15  16
ENDBRANCH  13  15
ENDBRANCH  12  13
ENDBRANCH  11  12
ENDBRANCH   2  11
TORSDOF 5
ENDMDL
MODEL 3
REMARK VINA RESULT:      -7.9      3.584      6.149
REMARK  Name = 8617
REMARK  5 active torsions:
REMARK  status: ('A' for Active; 'I' for Inactive)
REMARK    1  A    between atoms: C_2  and  C_11
REMARK    2  A    between atoms: C_11  and  C_12
REMARK    3  A    between atoms: C_12  and  C_13
REMARK    4  A    between atoms: C_13  and  C_15
REMARK    5  A    between atoms: C_15  and  O_16
REMARK                            x       y       z     vdW  Elec       q    Type
REMARK                         _______ _______ _______ _____ _____    ______ ____
ROOT
ATOM      1  N   UNL     1      36.843 -19.788 -20.601  0.00  0.00    -0.312 N 
ATOM      2  C   UNL     1      35.123 -18.625 -21.387  0.00  0.00    -0.006 C 
ATOM      3  C   UNL     1      34.615 -19.756 -20.689  0.00  0.00    +0.011 C 
ATOM      4  C   UNL     1      35.714 -20.470 -20.206  0.00  0.00    +0.048 C 
ATOM      5  C   UNL     1      36.497 -18.673 -21.315  0.00  0.00    +0.058 C 
ATOM      6  C   UNL     1      33.319 -20.244 -20.421  0.00  0.00    +0.001 C 
ATOM      7  C   UNL     1      35.582 -21.650 -19.466  0.00  0.00    +0.015 C 
ATOM      8  C   UNL     1      33.173 -21.424 -19.682  0.00  0.00    +0.000 C 
ATOM      9  C   UNL     1      34.289 -22.114 -19.213  0.00  0.00    +0.001 C 
ATOM     10  H   UNL     1      37.766 -20.064 -20.399  0.00  0.00    +0.152 HD
ENDROOT
BRANCH   2  11
ATOM     11  C   UNL     1      34.331 -17.583 -22.068  0.00  0.00    +0.028 C 
BRANCH  11  12
ATOM     12  C   UNL     1      35.182 -16.685 -22.990  0.00  0.00    +0.016 C 
BRANCH  12  13
ATOM     13  C   UNL     1      34.348 -15.878 -23.987  0.00  0.00    +0.110 C 
BRANCH  13  15
ATOM     14  O   UNL     1      34.597 -17.668 -25.620  0.00  0.00    -0.250 OA
ATOM     15  C   UNL     1      34.264 -16.523 -25.352  0.00  0.00    +0.314 C 
BRANCH  15  16
ATOM     16  O   UNL     1      33.782 -15.655 -26.281  0.00  0.00    -0.480 OA
ATOM     17  H   UNL     1      34.358 -15.289 -26.923  0.00  0.00    +0.295 HD
ENDBRANCH  15  16
ENDBRANCH  13  15
ENDBRANCH  12  13
ENDBRANCH  11  12
ENDBRANCH   2  11
TORSDOF 5
ENDMDL
MODEL 4
REMARK VINA RESULT:      -7.7      1.428      2.437
REMARK  Name = 8617
REMARK  5 active torsions:
REMARK  status: ('A' for Active; 'I' for Inactive)
REMARK    1  A    between atoms: C_2  and  C_11
REMARK    2  A    between atoms: C_11  and  C_12
REMARK    3  A    between atoms: C_12  and  C_13
REMARK    4  A    between atoms: C_13  and  C_15
REMARK    5  A    between atoms: C_15  and  O_16
REMARK                            x       y       z     vdW  Elec       q    Type
REMARK                         _______ _______ _______ _____ _____    ______ ____
ROOT
ATOM      1  N   UNL     1      34.872 -16.278 -21.651  0.00  0.00    -0.312 N 
ATOM      2  C   UNL     1      35.307 -18.449 -21.498  0.00  0.00    -0.006 C 
ATOM      3  C   UNL     1      34.970 -18.157 -22.849  0.00  0.00    +0.011 C 
ATOM      4  C   UNL     1      34.701 -16.787 -22.918  0.00  0.00    +0.048 C 
ATOM      5  C   UNL     1      35.237 -17.273 -20.786  0.00  0.00    +0.058 C 
ATOM      6  C   UNL     1      34.867 -18.928 -24.024  0.00  0.00    +0.001 C 
ATOM      7  C   UNL     1      34.334 -16.150 -24.108  0.00  0.00    +0.015 C 
ATOM      8  C   UNL     1      34.500 -18.303 -25.222  0.00  0.00    +0.000 C 
ATOM      9  C   UNL     1      34.237 -16.935 -25.260  0.00  0.00    +0.001 C 
ATOM     10  H   UNL     1      34.748 -15.333 -21.403  0.00  0.00    +0.152 HD
ENDROOT
BRANCH   2  11
ATOM     11  C   UNL     1      35.667 -19.771 -20.947  0.00  0.00    +0.028 C 
BRANCH  11  12
ATOM     12  C   UNL     1      34.475 -20.495 -20.288  0.00  0.00    +0.016 C 
BRANCH  12  13
ATOM     13  C   UNL     1      34.881 -21.757 -19.525  0.00  0.00    +0.110 C 
BRANCH  13  15
ATOM     14  O   UNL     1      32.571 -22.081 -18.822  0.00  0.00    -0.250 OA
ATOM     15  C   UNL     1      33.760 -22.336 -18.692  0.00  0.00    +0.314 C 
BRANCH  15  16
ATOM     16  O   UNL     1      34.235 -23.182 -17.740  0.00  0.00    -0.480 OA
ATOM     17  H   UNL     1      33.639 -23.671 -17.208  0.00  0.00    +0.295 HD
ENDBRANCH  15  16
ENDBRANCH  13  15
ENDBRANCH  12  13
ENDBRANCH  11  12
ENDBRANCH   2  11
TORSDOF 5
ENDMDL
MODEL 5
REMARK VINA RESULT:      -7.6      1.334      1.500
REMARK  Name = 8617
REMARK  5 active torsions:
REMARK  status: ('A' for Active; 'I' for Inactive)
REMARK    1  A    between atoms: C_2  and  C_11
REMARK    2  A    between atoms: C_11  and  C_12
REMARK    3  A    between atoms: C_12  and  C_13
REMARK    4  A    between atoms: C_13  and  C_15
REMARK    5  A    between atoms: C_15  and  O_16
REMARK                            x       y       z     vdW  Elec       q    Type
REMARK                         _______ _______ _______ _____ _____    ______ ____
ROOT
ATOM      1  N   UNL     1      35.210 -17.366 -24.017  0.00  0.00    -0.312 N 
ATOM      2  C   UNL     1      35.720 -18.142 -22.001  0.00  0.00    -0.006 C 
ATOM      3  C   UNL     1      35.100 -16.870 -21.846  0.00  0.00    +0.011 C 
ATOM      4  C   UNL     1      34.790 -16.405 -23.126  0.00  0.00    +0.048 C 
ATOM      5  C   UNL     1      35.774 -18.418 -23.349  0.00  0.00    +0.058 C 
ATOM      6  C   UNL     1      34.772 -16.067 -20.735  0.00  0.00    +0.001 C 
ATOM      7  C   UNL     1      34.167 -15.173 -23.351  0.00  0.00    +0.015 C 
ATOM      8  C   UNL     1      34.148 -14.832 -20.945  0.00  0.00    +0.000 C 
ATOM      9  C   UNL     1      33.851 -14.394 -22.234  0.00  0.00    +0.001 C 
ATOM     10  H   UNL     1      35.119 -17.304 -24.996  0.00  0.00    +0.152 HD
ENDROOT
BRANCH   2  11
ATOM     11  C   UNL     1      36.219 -19.015 -20.921  0.00  0.00    +0.028 C 
BRANCH  11  12
ATOM     12  C   UNL     1      35.269 -20.190 -20.608  0.00  0.00    +0.016 C 
BRANCH  12  13
ATOM     13  C   UNL     1      36.002 -21.455 -20.157  0.00  0.00    +0.110 C 
BRANCH  13  15
ATOM     14  O   UNL     1      36.871 -20.951 -17.939  0.00  0.00    -0.250 OA
ATOM     15  C   UNL     1      36.105 -21.579 -18.654  0.00  0.00    +0.314 C 
BRANCH  15  16
ATOM     16  O   UNL     1      35.239 -22.511 -18.172  0.00  0.00    -0.480 OA
ATOM     17  H   UNL     1      34.440 -22.687 -18.629  0.00  0.00    +0.295 HD
ENDBRANCH  15  16
ENDBRANCH  13  15
ENDBRANCH  12  13
ENDBRANCH  11  12
ENDBRANCH   2  11
TORSDOF 5
ENDMDL
MODEL 6
REMARK VINA RESULT:      -7.6      1.434      2.065
REMARK  Name = 8617
REMARK  5 active torsions:
REMARK  status: ('A' for Active; 'I' for Inactive)
REMARK    1  A    between atoms: C_2  and  C_11
REMARK    2  A    between atoms: C_11  and  C_12
REMARK    3  A    between atoms: C_12  and  C_13
REMARK    4  A    between atoms: C_13  and  C_15
REMARK    5  A    between atoms: C_15  and  O_16
REMARK                            x       y       z     vdW  Elec       q    Type
REMARK                         _______ _______ _______ _____ _____    ______ ____
ROOT
ATOM      1  N   UNL     1      33.925 -15.684 -24.492  0.00  0.00    -0.312 N 
ATOM      2  C   UNL     1      34.861 -16.960 -22.935  0.00  0.00    -0.006 C 
ATOM      3  C   UNL     1      34.109 -15.941 -22.284  0.00  0.00    +0.011 C 
ATOM      4  C   UNL     1      33.532 -15.154 -23.284  0.00  0.00    +0.048 C 
ATOM      5  C   UNL     1      34.728 -16.774 -24.292  0.00  0.00    +0.058 C 
ATOM      6  C   UNL     1      33.864 -15.612 -20.936  0.00  0.00    +0.001 C 
ATOM      7  C   UNL     1      32.719 -14.051 -23.001  0.00  0.00    +0.015 C 
ATOM      8  C   UNL     1      33.053 -14.510 -20.638  0.00  0.00    +0.000 C 
ATOM      9  C   UNL     1      32.491 -13.743 -21.658  0.00  0.00    +0.001 C 
ATOM     10  H   UNL     1      33.666 -15.329 -25.373  0.00  0.00    +0.152 HD
ENDROOT
BRANCH   2  11
ATOM     11  C   UNL     1      35.645 -18.027 -22.283  0.00  0.00    +0.028 C 
BRANCH  11  12
ATOM     12  C   UNL     1      34.889 -19.370 -22.207  0.00  0.00    +0.016 C 
BRANCH  12  13
ATOM     13  C   UNL     1      33.739 -19.360 -21.199  0.00  0.00    +0.110 C 
BRANCH  13  15
ATOM     14  O   UNL     1      34.838 -21.106 -19.904  0.00  0.00    -0.250 OA
ATOM     15  C   UNL     1      33.827 -20.478 -20.184  0.00  0.00    +0.314 C 
BRANCH  15  16
ATOM     16  O   UNL     1      32.618 -20.729 -19.616  0.00  0.00    -0.480 OA
ATOM     17  H   UNL     1      31.896 -20.155 -19.780  0.00  0.00    +0.295 HD
ENDBRANCH  15  16
ENDBRANCH  13  15
ENDBRANCH  12  13
ENDBRANCH  11  12
ENDBRANCH   2  11
TORSDOF 5
ENDMDL
MODEL 7
REMARK VINA RESULT:      -7.5      3.503      6.298
REMARK  Name = 8617
REMARK  5 active torsions:
REMARK  status: ('A' for Active; 'I' for Inactive)
REMARK    1  A    between atoms: C_2  and  C_11
REMARK    2  A    between atoms: C_11  and  C_12
REMARK    3  A    between atoms: C_12  and  C_13
REMARK    4  A    between atoms: C_13  and  C_15
REMARK    5  A    between atoms: C_15  and  O_16
REMARK                            x       y       z     vdW  Elec       q    Type
REMARK                         _______ _______ _______ _____ _____    ______ ____
ROOT
ATOM      1  N   UNL     1      32.666 -21.006 -19.975  0.00  0.00    -0.312 N 
ATOM      2  C   UNL     1      34.089 -19.777 -21.155  0.00  0.00    -0.006 C 
ATOM      3  C   UNL     1      34.834 -20.545 -20.217  0.00  0.00    +0.011 C 
ATOM      4  C   UNL     1      33.917 -21.307 -19.489  0.00  0.00    +0.048 C 
ATOM      5  C   UNL     1      32.758 -20.083 -20.982  0.00  0.00    +0.058 C 
ATOM      6  C   UNL     1      36.206 -20.664 -19.915  0.00  0.00    +0.001 C 
ATOM      7  C   UNL     1      34.305 -22.185 -18.471  0.00  0.00    +0.015 C 
ATOM      8  C   UNL     1      36.609 -21.539 -18.900  0.00  0.00    +0.000 C 
ATOM      9  C   UNL     1      35.670 -22.287 -18.190  0.00  0.00    +0.001 C 
ATOM     10  H   UNL     1      31.824 -21.397 -19.646  0.00  0.00    +0.152 HD
ENDROOT
BRANCH   2  11
ATOM     11  C   UNL     1      34.634 -18.823 -22.141  0.00  0.00    +0.028 C 
BRANCH  11  12
ATOM     12  C   UNL     1      35.015 -17.464 -21.518  0.00  0.00    +0.016 C 
BRANCH  12  13
ATOM     13  C   UNL     1      34.943 -16.303 -22.511  0.00  0.00    +0.110 C 
BRANCH  13  15
ATOM     14  O   UNL     1      34.239 -13.972 -22.439  0.00  0.00    -0.250 OA
ATOM     15  C   UNL     1      34.614 -14.980 -21.857  0.00  0.00    +0.314 C 
BRANCH  15  16
ATOM     16  O   UNL     1      34.808 -15.029 -20.512  0.00  0.00    -0.480 OA
ATOM     17  H   UNL     1      35.247 -14.326 -20.076  0.00  0.00    +0.295 HD
ENDBRANCH  15  16
ENDBRANCH  13  15
ENDBRANCH  12  13
ENDBRANCH  11  12
ENDBRANCH   2  11
TORSDOF 5
ENDMDL
MODEL 8
REMARK VINA RESULT:      -7.5      7.311      8.974
REMARK  Name = 8617
REMARK  5 active torsions:
REMARK  status: ('A' for Active; 'I' for Inactive)
REMARK    1  A    between atoms: C_2  and  C_11
REMARK    2  A    between atoms: C_11  and  C_12
REMARK    3  A    between atoms: C_12  and  C_13
REMARK    4  A    between atoms: C_13  and  C_15
REMARK    5  A    between atoms: C_15  and  O_16
REMARK                            x       y       z     vdW  Elec       q    Type
REMARK                         _______ _______ _______ _____ _____    ______ ____
ROOT
ATOM      1  N   UNL     1      32.355 -22.957 -17.731  0.00  0.00    -0.312 N 
ATOM      2  C   UNL     1      33.915 -23.327 -16.195  0.00  0.00    -0.006 C 
ATOM      3  C   UNL     1      32.648 -23.301 -15.547  0.00  0.00    +0.011 C 
ATOM      4  C   UNL     1      31.687 -23.066 -16.533  0.00  0.00    +0.048 C 
ATOM      5  C   UNL     1      33.701 -23.113 -17.538  0.00  0.00    +0.058 C 
ATOM      6  C   UNL     1      32.226 -23.453 -14.211  0.00  0.00    +0.001 C 
ATOM      7  C   UNL     1      30.320 -22.977 -16.248  0.00  0.00    +0.015 C 
ATOM      8  C   UNL     1      30.862 -23.365 -13.911  0.00  0.00    +0.000 C 
ATOM      9  C   UNL     1      29.925 -23.130 -14.916  0.00  0.00    +0.001 C 
ATOM     10  H   UNL     1      31.927 -22.790 -18.601  0.00  0.00    +0.152 HD
ENDROOT
BRANCH   2  11
ATOM     11  C   UNL     1      35.227 -23.545 -15.554  0.00  0.00    +0.028 C 
BRANCH  11  12
ATOM     12  C   UNL     1      35.433 -25.000 -15.083  0.00  0.00    +0.016 C 
BRANCH  12  13
ATOM     13  C   UNL     1      36.857 -25.282 -14.600  0.00  0.00    +0.110 C 
BRANCH  13  15
ATOM     14  O   UNL     1      38.329 -27.223 -14.580  0.00  0.00    -0.250 OA
ATOM     15  C   UNL     1      37.396 -26.611 -15.081  0.00  0.00    +0.314 C 
BRANCH  15  16
ATOM     16  O   UNL     1      36.723 -27.053 -16.176  0.00  0.00    -0.480 OA
ATOM     17  H   UNL     1      36.224 -27.844 -16.131  0.00  0.00    +0.295 HD
ENDBRANCH  15  16
ENDBRANCH  13  15
ENDBRANCH  12  13
ENDBRANCH  11  12
ENDBRANCH   2  11
TORSDOF 5
ENDMDL
MODEL 9
REMARK VINA RESULT:      -7.5      3.454      6.217
REMARK  Name = 8617
REMARK  5 active torsions:
REMARK  status: ('A' for Active; 'I' for Inactive)
REMARK    1  A    between atoms: C_2  and  C_11
REMARK    2  A    between atoms: C_11  and  C_12
REMARK    3  A    between atoms: C_12  and  C_13
REMARK    4  A    between atoms: C_13  and  C_15
REMARK    5  A    between atoms: C_15  and  O_16
REMARK                            x       y       z     vdW  Elec       q    Type
REMARK                         _______ _______ _______ _____ _____    ______ ____
ROOT
ATOM      1  N   UNL     1      36.795 -19.839 -20.389  0.00  0.00    -0.312 N 
ATOM      2  C   UNL     1      35.038 -18.773 -21.226  0.00  0.00    -0.006 C 
ATOM      3  C   UNL     1      34.569 -19.906 -20.504  0.00  0.00    +0.011 C 
ATOM      4  C   UNL     1      35.692 -20.558 -19.989  0.00  0.00    +0.048 C 
ATOM      5  C   UNL     1      36.411 -18.759 -21.137  0.00  0.00    +0.058 C 
ATOM      6  C   UNL     1      33.293 -20.442 -20.238  0.00  0.00    +0.001 C 
ATOM      7  C   UNL     1      35.602 -21.722 -19.219  0.00  0.00    +0.015 C 
ATOM      8  C   UNL     1      33.188 -21.607 -19.469  0.00  0.00    +0.000 C 
ATOM      9  C   UNL     1      34.326 -22.236 -18.969  0.00  0.00    +0.001 C 
ATOM     10  H   UNL     1      37.727 -20.068 -20.169  0.00  0.00    +0.152 HD
ENDROOT
BRANCH   2  11
ATOM     11  C   UNL     1      34.210 -17.784 -21.945  0.00  0.00    +0.028 C 
BRANCH  11  12
ATOM     12  C   UNL     1      34.355 -16.354 -21.383  0.00  0.00    +0.016 C 
BRANCH  12  13
ATOM     13  C   UNL     1      34.472 -15.286 -22.471  0.00  0.00    +0.110 C 
BRANCH  13  15
ATOM     14  O   UNL     1      33.236 -13.284 -23.103  0.00  0.00    -0.250 OA
ATOM     15  C   UNL     1      33.275 -14.365 -22.532  0.00  0.00    +0.314 C 
BRANCH  15  16
ATOM     16  O   UNL     1      32.219 -14.876 -21.845  0.00  0.00    -0.480 OA
ATOM     17  H   UNL     1      31.409 -15.041 -22.285  0.00  0.00    +0.295 HD
ENDBRANCH  15  16
ENDBRANCH  13  15
ENDBRANCH  12  13
ENDBRANCH  11  12
ENDBRANCH   2  11
TORSDOF 5
ENDMDL
