MODEL 1
REMARK VINA RESULT:      -9.7      0.000      0.000
REMARK  Name = 54685524
REMARK  7 active torsions:
REMARK  status: ('A' for Active; 'I' for Inactive)
REMARK    1  A    between atoms: C_1  and  C_4
REMARK    2  A    between atoms: C_1  and  C_17
REMARK    3  A    between atoms: C_1  and  C_29
REMARK    4  A    between atoms: C_5  and  O_13
REMARK    5  A    between atoms: C_18  and  O_26
REMARK    6  A    between atoms: C_29  and  O_30
REMARK    7  A    between atoms: O_30  and  C_31
REMARK                            x       y       z     vdW  Elec       q    Type
REMARK                         _______ _______ _______ _____ _____    ______ ____
ROOT
ATOM      1  C   UNL     1      35.402 -16.901 -22.689  0.00  0.00    +0.162 C 
ENDROOT
BRANCH   1   4
ATOM      2  O   UNL     1      36.574 -20.015 -20.883  0.00  0.00    -0.421 OA
ATOM      3  O   UNL     1      37.650 -18.411 -22.086  0.00  0.00    -0.245 OA
ATOM      4  C   UNL     1      35.295 -18.152 -21.859  0.00  0.00    +0.102 A 
ATOM      5  C   UNL     1      34.156 -18.654 -21.341  0.00  0.00    +0.140 A 
ATOM      6  C   UNL     1      34.170 -19.889 -20.554  0.00  0.00    +0.068 A 
ATOM      7  C   UNL     1      36.596 -18.846 -21.632  0.00  0.00    +0.345 A 
ATOM      8  C   UNL     1      35.383 -20.536 -20.349  0.00  0.00    +0.152 A 
ATOM      9  C   UNL     1      33.020 -20.461 -19.993  0.00  0.00    +0.006 C 
ATOM     10  C   UNL     1      35.482 -21.718 -19.612  0.00  0.00    +0.038 C 
ATOM     11  C   UNL     1      33.101 -21.645 -19.252  0.00  0.00    +0.000 C 
ATOM     12  C   UNL     1      34.331 -22.273 -19.062  0.00  0.00    +0.003 C 
BRANCH   5  13
ATOM     13  O   UNL     1      32.911 -18.082 -21.488  0.00  0.00    -0.505 OA
ATOM     14  H   UNL     1      32.835 -17.171 -21.696  0.00  0.00    +0.292 HD
ENDBRANCH   5  13
ENDBRANCH   1   4
BRANCH   1  17
ATOM     15  O   UNL     1      33.807 -14.641 -20.129  0.00  0.00    -0.421 OA
ATOM     16  O   UNL     1      35.285 -16.364 -19.979  0.00  0.00    -0.245 OA
ATOM     17  C   UNL     1      34.547 -15.801 -22.171  0.00  0.00    +0.102 A 
ATOM     18  C   UNL     1      33.778 -14.987 -22.919  0.00  0.00    +0.140 A 
ATOM     19  C   UNL     1      32.965 -13.940 -22.298  0.00  0.00    +0.068 A 
ATOM     20  C   UNL     1      34.590 -15.643 -20.688  0.00  0.00    +0.345 A 
ATOM     21  C   UNL     1      33.004 -13.797 -20.915  0.00  0.00    +0.152 A 
ATOM     22  C   UNL     1      32.143 -13.066 -23.023  0.00  0.00    +0.006 C 
ATOM     23  C   UNL     1      32.259 -12.825 -20.244  0.00  0.00    +0.038 C 
ATOM     24  C   UNL     1      31.389 -12.086 -22.366  0.00  0.00    +0.000 C 
ATOM     25  C   UNL     1      31.448 -11.967 -20.978  0.00  0.00    +0.003 C 
BRANCH  18  26
ATOM     26  O   UNL     1      33.677 -15.049 -24.293  0.00  0.00    -0.505 OA
ATOM     27  H   UNL     1      32.859 -15.270 -24.693  0.00  0.00    +0.292 HD
ENDBRANCH  18  26
ENDBRANCH   1  17
BRANCH   1  29
ATOM     28  O   UNL     1      35.395 -16.742 -25.118  0.00  0.00    -0.249 OA
ATOM     29  C   UNL     1      34.938 -17.230 -24.091  0.00  0.00    +0.325 C 
BRANCH  29  30
ATOM     30  O   UNL     1      33.961 -18.184 -24.029  0.00  0.00    -0.448 OA
BRANCH  30  31
ATOM     31  C   UNL     1      33.918 -19.096 -25.131  0.00  0.00    +0.209 C 
ATOM     32  C   UNL     1      34.974 -20.162 -24.930  0.00  0.00    +0.051 C 
ENDBRANCH  30  31
ENDBRANCH  29  30
ENDBRANCH   1  29
TORSDOF 7
ENDMDL
MODEL 2
REMARK VINA RESULT:      -8.9      5.852      9.715
REMARK  Name = 54685524
REMARK  7 active torsions:
REMARK  status: ('A' for Active; 'I' for Inactive)
REMARK    1  A    between atoms: C_1  and  C_4
REMARK    2  A    between atoms: C_1  and  C_17
REMARK    3  A    between atoms: C_1  and  C_29
REMARK    4  A    between atoms: C_5  and  O_13
REMARK    5  A    between atoms: C_18  and  O_26
REMARK    6  A    between atoms: C_29  and  O_30
REMARK    7  A    between atoms: O_30  and  C_31
REMARK                            x       y       z     vdW  Elec       q    Type
REMARK                         _______ _______ _______ _____ _____    ______ ____
ROOT
ATOM      1  C   UNL     1      33.819 -24.327 -15.800  0.00  0.00    +0.162 C 
ENDROOT
BRANCH   1   4
ATOM      2  O   UNL     1      37.038 -25.916 -14.596  0.00  0.00    -0.421 OA
ATOM      3  O   UNL     1      35.477 -26.527 -16.135  0.00  0.00    -0.245 OA
ATOM      4  C   UNL     1      35.088 -24.469 -15.003  0.00  0.00    +0.102 A 
ATOM      5  C   UNL     1      35.540 -23.592 -14.086  0.00  0.00    +0.140 A 
ATOM      6  C   UNL     1      36.788 -23.839 -13.361  0.00  0.00    +0.068 A 
ATOM      7  C   UNL     1      35.859 -25.711 -15.302  0.00  0.00    +0.345 A 
ATOM      8  C   UNL     1      37.502 -25.000 -13.638  0.00  0.00    +0.152 A 
ATOM      9  C   UNL     1      37.307 -22.966 -12.394  0.00  0.00    +0.006 C 
ATOM     10  C   UNL     1      38.699 -25.310 -12.991  0.00  0.00    +0.038 C 
ATOM     11  C   UNL     1      38.506 -23.262 -11.736  0.00  0.00    +0.000 C 
ATOM     12  C   UNL     1      39.201 -24.433 -12.034  0.00  0.00    +0.003 C 
BRANCH   5  13
ATOM     13  O   UNL     1      34.904 -22.417 -13.748  0.00  0.00    -0.505 OA
ATOM     14  H   UNL     1      35.369 -21.749 -13.281  0.00  0.00    +0.292 HD
ENDBRANCH   5  13
ENDBRANCH   1   4
BRANCH   1  17
ATOM     15  O   UNL     1      32.753 -22.235 -18.748  0.00  0.00    -0.421 OA
ATOM     16  O   UNL     1      31.629 -23.619 -17.334  0.00  0.00    -0.245 OA
ATOM     17  C   UNL     1      33.964 -23.380 -16.935  0.00  0.00    +0.102 A 
ATOM     18  C   UNL     1      35.112 -22.792 -17.323  0.00  0.00    +0.140 A 
ATOM     19  C   UNL     1      35.141 -21.880 -18.469  0.00  0.00    +0.068 A 
ATOM     20  C   UNL     1      32.693 -23.105 -17.666  0.00  0.00    +0.345 A 
ATOM     21  C   UNL     1      33.955 -21.628 -19.150  0.00  0.00    +0.152 A 
ATOM     22  C   UNL     1      36.304 -21.241 -18.921  0.00  0.00    +0.006 C 
ATOM     23  C   UNL     1      33.895 -20.773 -20.252  0.00  0.00    +0.038 C 
ATOM     24  C   UNL     1      36.262 -20.381 -20.024  0.00  0.00    +0.000 C 
ATOM     25  C   UNL     1      35.058 -20.147 -20.689  0.00  0.00    +0.003 C 
BRANCH  18  26
ATOM     26  O   UNL     1      36.333 -22.976 -16.710  0.00  0.00    -0.505 OA
ATOM     27  H   UNL     1      36.568 -22.454 -15.967  0.00  0.00    +0.292 HD
ENDBRANCH  18  26
ENDBRANCH   1  17
BRANCH   1  29
ATOM     28  O   UNL     1      32.411 -22.613 -14.799  0.00  0.00    -0.249 OA
ATOM     29  C   UNL     1      32.747 -23.789 -14.879  0.00  0.00    +0.325 C 
BRANCH  29  30
ATOM     30  O   UNL     1      32.187 -24.826 -14.185  0.00  0.00    -0.448 OA
BRANCH  30  31
ATOM     31  C   UNL     1      30.812 -24.657 -13.826  0.00  0.00    +0.209 C 
ATOM     32  C   UNL     1      29.945 -25.362 -14.847  0.00  0.00    +0.051 C 
ENDBRANCH  30  31
ENDBRANCH  29  30
ENDBRANCH   1  29
TORSDOF 7
ENDMDL
MODEL 3
REMARK VINA RESULT:      -7.9      0.744      1.880
REMARK  Name = 54685524
REMARK  7 active torsions:
REMARK  status: ('A' for Active; 'I' for Inactive)
REMARK    1  A    between atoms: C_1  and  C_4
REMARK    2  A    between atoms: C_1  and  C_17
REMARK    3  A    between atoms: C_1  and  C_29
REMARK    4  A    between atoms: C_5  and  O_13
REMARK    5  A    between atoms: C_18  and  O_26
REMARK    6  A    between atoms: C_29  and  O_30
REMARK    7  A    between atoms: O_30  and  C_31
REMARK                            x       y       z     vdW  Elec       q    Type
REMARK                         _______ _______ _______ _____ _____    ______ ____
ROOT
ATOM      1  C   UNL     1      35.150 -16.469 -22.265  0.00  0.00    +0.162 C 
ENDROOT
BRANCH   1   4
ATOM      2  O   UNL     1      32.902 -19.048 -20.645  0.00  0.00    -0.421 OA
ATOM      3  O   UNL     1      32.518 -17.004 -21.567  0.00  0.00    -0.245 OA
ATOM      4  C   UNL     1      34.775 -17.760 -21.590  0.00  0.00    +0.102 A 
ATOM      5  C   UNL     1      35.628 -18.751 -21.264  0.00  0.00    +0.140 A 
ATOM      6  C   UNL     1      35.151 -19.964 -20.596  0.00  0.00    +0.068 A 
ATOM      7  C   UNL     1      33.321 -17.886 -21.279  0.00  0.00    +0.345 A 
ATOM      8  C   UNL     1      33.796 -20.076 -20.304  0.00  0.00    +0.152 A 
ATOM      9  C   UNL     1      35.990 -21.026 -20.230  0.00  0.00    +0.006 C 
ATOM     10  C   UNL     1      33.262 -21.198 -19.669  0.00  0.00    +0.038 C 
ATOM     11  C   UNL     1      35.470 -22.158 -19.593  0.00  0.00    +0.000 C 
ATOM     12  C   UNL     1      34.107 -22.243 -19.312  0.00  0.00    +0.003 C 
BRANCH   5  13
ATOM     13  O   UNL     1      36.983 -18.731 -21.516  0.00  0.00    -0.505 OA
ATOM     14  H   UNL     1      37.406 -19.490 -21.870  0.00  0.00    +0.292 HD
ENDBRANCH   5  13
ENDBRANCH   1   4
BRANCH   1  17
ATOM     15  O   UNL     1      33.514 -14.022 -19.911  0.00  0.00    -0.421 OA
ATOM     16  O   UNL     1      35.000 -15.719 -19.608  0.00  0.00    -0.245 OA
ATOM     17  C   UNL     1      34.284 -15.336 -21.846  0.00  0.00    +0.102 A 
ATOM     18  C   UNL     1      33.518 -14.590 -22.664  0.00  0.00    +0.140 A 
ATOM     19  C   UNL     1      32.692 -13.501 -22.137  0.00  0.00    +0.068 A 
ATOM     20  C   UNL     1      34.309 -15.061 -20.379  0.00  0.00    +0.345 A 
ATOM     21  C   UNL     1      32.715 -13.249 -20.770  0.00  0.00    +0.152 A 
ATOM     22  C   UNL     1      31.874 -12.693 -22.938  0.00  0.00    +0.006 C 
ATOM     23  C   UNL     1      31.958 -12.232 -20.186  0.00  0.00    +0.038 C 
ATOM     24  C   UNL     1      31.107 -11.669 -22.369  0.00  0.00    +0.000 C 
ATOM     25  C   UNL     1      31.150 -11.439 -20.995  0.00  0.00    +0.003 C 
BRANCH  18  26
ATOM     26  O   UNL     1      33.433 -14.761 -24.029  0.00  0.00    -0.505 OA
ATOM     27  H   UNL     1      32.628 -14.584 -24.475  0.00  0.00    +0.292 HD
ENDBRANCH  18  26
ENDBRANCH   1  17
BRANCH   1  29
ATOM     28  O   UNL     1      35.611 -16.053 -24.619  0.00  0.00    -0.249 OA
ATOM     29  C   UNL     1      34.981 -16.655 -23.756  0.00  0.00    +0.325 C 
BRANCH  29  30
ATOM     30  O   UNL     1      34.049 -17.629 -23.985  0.00  0.00    -0.448 OA
BRANCH  30  31
ATOM     31  C   UNL     1      34.271 -18.435 -25.147  0.00  0.00    +0.209 C 
ATOM     32  C   UNL     1      34.815 -19.780 -24.718  0.00  0.00    +0.051 C 
ENDBRANCH  30  31
ENDBRANCH  29  30
ENDBRANCH   1  29
TORSDOF 7
ENDMDL
MODEL 4
REMARK VINA RESULT:      -7.9      7.163     11.208
REMARK  Name = 54685524
REMARK  7 active torsions:
REMARK  status: ('A' for Active; 'I' for Inactive)
REMARK    1  A    between atoms: C_1  and  C_4
REMARK    2  A    between atoms: C_1  and  C_17
REMARK    3  A    between atoms: C_1  and  C_29
REMARK    4  A    between atoms: C_5  and  O_13
REMARK    5  A    between atoms: C_18  and  O_26
REMARK    6  A    between atoms: C_29  and  O_30
REMARK    7  A    between atoms: O_30  and  C_31
REMARK                            x       y       z     vdW  Elec       q    Type
REMARK                         _______ _______ _______ _____ _____    ______ ____
ROOT
ATOM      1  C   UNL     1      32.809  -9.145 -22.241  0.00  0.00    +0.162 C 
ENDROOT
BRANCH   1   4
ATOM      2  O   UNL     1      32.107  -5.556 -21.261  0.00  0.00    -0.421 OA
ATOM      3  O   UNL     1      32.932  -7.350 -20.129  0.00  0.00    -0.245 OA
ATOM      4  C   UNL     1      32.375  -7.715 -22.414  0.00  0.00    +0.102 A 
ATOM      5  C   UNL     1      31.902  -7.171 -23.553  0.00  0.00    +0.140 A 
ATOM      6  C   UNL     1      31.497  -5.765 -23.603  0.00  0.00    +0.068 A 
ATOM      7  C   UNL     1      32.500  -6.886 -21.180  0.00  0.00    +0.345 A 
ATOM      8  C   UNL     1      31.611  -4.997 -22.450  0.00  0.00    +0.152 A 
ATOM      9  C   UNL     1      30.996  -5.145 -24.756  0.00  0.00    +0.006 C 
ATOM     10  C   UNL     1      31.246  -3.650 -22.413  0.00  0.00    +0.038 C 
ATOM     11  C   UNL     1      30.625  -3.796 -24.737  0.00  0.00    +0.000 C 
ATOM     12  C   UNL     1      30.751  -3.049 -23.566  0.00  0.00    +0.003 C 
BRANCH   5  13
ATOM     13  O   UNL     1      31.757  -7.852 -24.743  0.00  0.00    -0.505 OA
ATOM     14  H   UNL     1      32.325  -8.570 -24.945  0.00  0.00    +0.292 HD
ENDBRANCH   5  13
ENDBRANCH   1   4
BRANCH   1  17
ATOM     15  O   UNL     1      35.390  -9.288 -24.984  0.00  0.00    -0.421 OA
ATOM     16  O   UNL     1      35.034  -7.852 -23.255  0.00  0.00    -0.245 OA
ATOM     17  C   UNL     1      33.512  -9.674 -23.439  0.00  0.00    +0.102 A 
ATOM     18  C   UNL     1      33.166 -10.779 -24.126  0.00  0.00    +0.140 A 
ATOM     19  C   UNL     1      33.927 -11.202 -25.304  0.00  0.00    +0.068 A 
ATOM     20  C   UNL     1      34.689  -8.861 -23.864  0.00  0.00    +0.345 A 
ATOM     21  C   UNL     1      35.021 -10.440 -25.699  0.00  0.00    +0.152 A 
ATOM     22  C   UNL     1      33.614 -12.339 -26.061  0.00  0.00    +0.006 C 
ATOM     23  C   UNL     1      35.800 -10.772 -26.810  0.00  0.00    +0.038 C 
ATOM     24  C   UNL     1      34.383 -12.687 -27.177  0.00  0.00    +0.000 C 
ATOM     25  C   UNL     1      35.475 -11.903 -27.551  0.00  0.00    +0.003 C 
BRANCH  18  26
ATOM     26  O   UNL     1      32.103 -11.598 -23.809  0.00  0.00    -0.505 OA
ATOM     27  H   UNL     1      32.253 -12.407 -23.362  0.00  0.00    +0.292 HD
ENDBRANCH  18  26
ENDBRANCH   1  17
BRANCH   1  29
ATOM     28  O   UNL     1      30.494  -9.816 -22.576  0.00  0.00    -0.249 OA
ATOM     29  C   UNL     1      31.572  -9.986 -22.018  0.00  0.00    +0.325 C 
BRANCH  29  30
ATOM     30  O   UNL     1      31.862 -10.987 -21.133  0.00  0.00    -0.448 OA
BRANCH  30  31
ATOM     31  C   UNL     1      30.967 -11.107 -20.023  0.00  0.00    +0.209 C 
ATOM     32  C   UNL     1      31.589 -10.443 -18.813  0.00  0.00    +0.051 C 
ENDBRANCH  30  31
ENDBRANCH  29  30
ENDBRANCH   1  29
TORSDOF 7
ENDMDL
MODEL 5
REMARK VINA RESULT:      -7.8      5.623      9.535
REMARK  Name = 54685524
REMARK  7 active torsions:
REMARK  status: ('A' for Active; 'I' for Inactive)
REMARK    1  A    between atoms: C_1  and  C_4
REMARK    2  A    between atoms: C_1  and  C_17
REMARK    3  A    between atoms: C_1  and  C_29
REMARK    4  A    between atoms: C_5  and  O_13
REMARK    5  A    between atoms: C_18  and  O_26
REMARK    6  A    between atoms: C_29  and  O_30
REMARK    7  A    between atoms: O_30  and  C_31
REMARK                            x       y       z     vdW  Elec       q    Type
REMARK                         _______ _______ _______ _____ _____    ______ ____
ROOT
ATOM      1  C   UNL     1      33.953 -24.200 -15.919  0.00  0.00    +0.162 C 
ENDROOT
BRANCH   1   4
ATOM      2  O   UNL     1      37.050 -23.207 -13.981  0.00  0.00    -0.421 OA
ATOM      3  O   UNL     1      35.098 -22.138 -14.457  0.00  0.00    -0.245 OA
ATOM      4  C   UNL     1      35.321 -24.349 -15.310  0.00  0.00    +0.102 A 
ATOM      5  C   UNL     1      36.104 -25.442 -15.400  0.00  0.00    +0.140 A 
ATOM      6  C   UNL     1      37.428 -25.472 -14.774  0.00  0.00    +0.068 A 
ATOM      7  C   UNL     1      35.790 -23.147 -14.562  0.00  0.00    +0.345 A 
ATOM      8  C   UNL     1      37.863 -24.348 -14.081  0.00  0.00    +0.152 A 
ATOM      9  C   UNL     1      38.288 -26.577 -14.836  0.00  0.00    +0.006 C 
ATOM     10  C   UNL     1      39.111 -24.294 -13.458  0.00  0.00    +0.038 C 
ATOM     11  C   UNL     1      39.542 -26.540 -14.217  0.00  0.00    +0.000 C 
ATOM     12  C   UNL     1      39.953 -25.399 -13.528  0.00  0.00    +0.003 C 
BRANCH   5  13
ATOM     13  O   UNL     1      35.757 -26.601 -16.061  0.00  0.00    -0.505 OA
ATOM     14  H   UNL     1      35.109 -26.579 -16.738  0.00  0.00    +0.292 HD
ENDBRANCH   5  13
ENDBRANCH   1   4
BRANCH   1  17
ATOM     15  O   UNL     1      32.491 -22.099 -18.686  0.00  0.00    -0.421 OA
ATOM     16  O   UNL     1      31.573 -23.487 -17.134  0.00  0.00    -0.245 OA
ATOM     17  C   UNL     1      33.941 -23.249 -17.061  0.00  0.00    +0.102 A 
ATOM     18  C   UNL     1      35.024 -22.660 -17.603  0.00  0.00    +0.140 A 
ATOM     19  C   UNL     1      34.895 -21.745 -18.738  0.00  0.00    +0.068 A 
ATOM     20  C   UNL     1      32.581 -22.971 -17.609  0.00  0.00    +0.345 A 
ATOM     21  C   UNL     1      33.626 -21.490 -19.248  0.00  0.00    +0.152 A 
ATOM     22  C   UNL     1      35.984 -21.105 -19.345  0.00  0.00    +0.006 C 
ATOM     23  C   UNL     1      33.415 -20.632 -20.329  0.00  0.00    +0.038 C 
ATOM     24  C   UNL     1      35.791 -20.242 -20.430  0.00  0.00    +0.000 C 
ATOM     25  C   UNL     1      34.507 -20.006 -20.920  0.00  0.00    +0.003 C 
BRANCH  18  26
ATOM     26  O   UNL     1      36.318 -22.847 -17.164  0.00  0.00    -0.505 OA
ATOM     27  H   UNL     1      36.673 -22.288 -16.500  0.00  0.00    +0.292 HD
ENDBRANCH  18  26
ENDBRANCH   1  17
BRANCH   1  29
ATOM     28  O   UNL     1      32.639 -22.500 -14.777  0.00  0.00    -0.249 OA
ATOM     29  C   UNL     1      33.024 -23.660 -14.855  0.00  0.00    +0.325 C 
BRANCH  29  30
ATOM     30  O   UNL     1      32.652 -24.680 -14.023  0.00  0.00    -0.448 OA
BRANCH  30  31
ATOM     31  C   UNL     1      31.301 -24.633 -13.555  0.00  0.00    +0.209 C 
ATOM     32  C   UNL     1      30.411 -25.362 -14.539  0.00  0.00    +0.051 C 
ENDBRANCH  30  31
ENDBRANCH  29  30
ENDBRANCH   1  29
TORSDOF 7
ENDMDL
MODEL 6
REMARK VINA RESULT:      -7.8      3.166      7.769
REMARK  Name = 54685524
REMARK  7 active torsions:
REMARK  status: ('A' for Active; 'I' for Inactive)
REMARK    1  A    between atoms: C_1  and  C_4
REMARK    2  A    between atoms: C_1  and  C_17
REMARK    3  A    between atoms: C_1  and  C_29
REMARK    4  A    between atoms: C_5  and  O_13
REMARK    5  A    between atoms: C_18  and  O_26
REMARK    6  A    between atoms: C_29  and  O_30
REMARK    7  A    between atoms: O_30  and  C_31
REMARK                            x       y       z     vdW  Elec       q    Type
REMARK                         _______ _______ _______ _____ _____    ______ ____
ROOT
ATOM      1  C   UNL     1      32.995 -12.611 -24.592  0.00  0.00    +0.162 C 
ENDROOT
BRANCH   1   4
ATOM      2  O   UNL     1      31.661 -12.837 -21.056  0.00  0.00    -0.421 OA
ATOM      3  O   UNL     1      32.039 -14.383 -22.682  0.00  0.00    -0.245 OA
ATOM      4  C   UNL     1      32.573 -12.129 -23.230  0.00  0.00    +0.102 A 
ATOM      5  C   UNL     1      32.609 -10.850 -22.805  0.00  0.00    +0.140 A 
ATOM      6  C   UNL     1      32.161 -10.493 -21.457  0.00  0.00    +0.068 A 
ATOM      7  C   UNL     1      32.079 -13.209 -22.327  0.00  0.00    +0.345 A 
ATOM      8  C   UNL     1      31.697 -11.502 -20.620  0.00  0.00    +0.152 A 
ATOM      9  C   UNL     1      32.172  -9.183 -20.961  0.00  0.00    +0.006 C 
ATOM     10  C   UNL     1      31.252 -11.246 -19.322  0.00  0.00    +0.038 C 
ATOM     11  C   UNL     1      31.729  -8.909 -19.662  0.00  0.00    +0.000 C 
ATOM     12  C   UNL     1      31.269  -9.940 -18.844  0.00  0.00    +0.003 C 
BRANCH   5  13
ATOM     13  O   UNL     1      33.054  -9.787 -23.561  0.00  0.00    -0.505 OA
ATOM     14  H   UNL     1      33.761  -9.905 -24.166  0.00  0.00    +0.292 HD
ENDBRANCH   5  13
ENDBRANCH   1   4
BRANCH   1  17
ATOM     15  O   UNL     1      33.366 -16.173 -25.766  0.00  0.00    -0.421 OA
ATOM     16  O   UNL     1      32.259 -14.368 -26.598  0.00  0.00    -0.245 OA
ATOM     17  C   UNL     1      33.465 -14.021 -24.574  0.00  0.00    +0.102 A 
ATOM     18  C   UNL     1      34.257 -14.571 -23.634  0.00  0.00    +0.140 A 
ATOM     19  C   UNL     1      34.649 -15.980 -23.711  0.00  0.00    +0.068 A 
ATOM     20  C   UNL     1      32.977 -14.841 -25.721  0.00  0.00    +0.345 A 
ATOM     21  C   UNL     1      34.190 -16.742 -24.780  0.00  0.00    +0.152 A 
ATOM     22  C   UNL     1      35.468 -16.609 -22.763  0.00  0.00    +0.006 C 
ATOM     23  C   UNL     1      34.517 -18.091 -24.929  0.00  0.00    +0.038 C 
ATOM     24  C   UNL     1      35.805 -17.961 -22.896  0.00  0.00    +0.000 C 
ATOM     25  C   UNL     1      35.329 -18.701 -23.978  0.00  0.00    +0.003 C 
BRANCH  18  26
ATOM     26  O   UNL     1      34.762 -13.897 -22.544  0.00  0.00    -0.505 OA
ATOM     27  H   UNL     1      34.761 -12.959 -22.531  0.00  0.00    +0.292 HD
ENDBRANCH  18  26
ENDBRANCH   1  17
BRANCH   1  29
ATOM     28  O   UNL     1      35.046 -11.324 -24.346  0.00  0.00    -0.249 OA
ATOM     29  C   UNL     1      34.142 -11.744 -25.060  0.00  0.00    +0.325 C 
BRANCH  29  30
ATOM     30  O   UNL     1      34.033 -11.542 -26.408  0.00  0.00    -0.448 OA
BRANCH  30  31
ATOM     31  C   UNL     1      35.270 -11.478 -27.124  0.00  0.00    +0.209 C 
ATOM     32  C   UNL     1      35.983 -10.193 -26.763  0.00  0.00    +0.051 C 
ENDBRANCH  30  31
ENDBRANCH  29  30
ENDBRANCH   1  29
TORSDOF 7
ENDMDL
MODEL 7
REMARK VINA RESULT:      -7.7      5.643      9.352
REMARK  Name = 54685524
REMARK  7 active torsions:
REMARK  status: ('A' for Active; 'I' for Inactive)
REMARK    1  A    between atoms: C_1  and  C_4
REMARK    2  A    between atoms: C_1  and  C_17
REMARK    3  A    between atoms: C_1  and  C_29
REMARK    4  A    between atoms: C_5  and  O_13
REMARK    5  A    between atoms: C_18  and  O_26
REMARK    6  A    between atoms: C_29  and  O_30
REMARK    7  A    between atoms: O_30  and  C_31
REMARK                            x       y       z     vdW  Elec       q    Type
REMARK                         _______ _______ _______ _____ _____    ______ ____
ROOT
ATOM      1  C   UNL     1      33.942 -24.165 -16.136  0.00  0.00    +0.162 C 
ENDROOT
BRANCH   1   4
ATOM      2  O   UNL     1      36.884 -25.866 -14.467  0.00  0.00    -0.421 OA
ATOM      3  O   UNL     1      35.455 -26.491 -16.124  0.00  0.00    -0.245 OA
ATOM      4  C   UNL     1      35.104 -24.328 -15.194  0.00  0.00    +0.102 A 
ATOM      5  C   UNL     1      35.521 -23.413 -14.296  0.00  0.00    +0.140 A 
ATOM      6  C   UNL     1      36.662 -23.685 -13.420  0.00  0.00    +0.068 A 
ATOM      7  C   UNL     1      35.807 -25.639 -15.313  0.00  0.00    +0.345 A 
ATOM      8  C   UNL     1      37.311 -24.910 -13.531  0.00  0.00    +0.152 A 
ATOM      9  C   UNL     1      37.139 -22.775 -12.466  0.00  0.00    +0.006 C 
ATOM     10  C   UNL     1      38.405 -25.248 -12.733  0.00  0.00    +0.038 C 
ATOM     11  C   UNL     1      38.234 -23.098 -11.658  0.00  0.00    +0.000 C 
ATOM     12  C   UNL     1      38.867 -24.333 -11.792  0.00  0.00    +0.003 C 
BRANCH   5  13
ATOM     13  O   UNL     1      34.944 -22.175 -14.117  0.00  0.00    -0.505 OA
ATOM     14  H   UNL     1      35.163 -21.659 -13.366  0.00  0.00    +0.292 HD
ENDBRANCH   5  13
ENDBRANCH   1   4
BRANCH   1  17
ATOM     15  O   UNL     1      35.992 -21.877 -18.320  0.00  0.00    -0.421 OA
ATOM     16  O   UNL     1      36.520 -23.284 -16.610  0.00  0.00    -0.245 OA
ATOM     17  C   UNL     1      34.219 -23.181 -17.214  0.00  0.00    +0.102 A 
ATOM     18  C   UNL     1      33.300 -22.638 -18.035  0.00  0.00    +0.140 A 
ATOM     19  C   UNL     1      33.687 -21.665 -19.059  0.00  0.00    +0.068 A 
ATOM     20  C   UNL     1      35.657 -22.803 -17.339  0.00  0.00    +0.345 A 
ATOM     21  C   UNL     1      35.027 -21.312 -19.171  0.00  0.00    +0.152 A 
ATOM     22  C   UNL     1      32.777 -21.065 -19.940  0.00  0.00    +0.006 C 
ATOM     23  C   UNL     1      35.480 -20.393 -20.119  0.00  0.00    +0.038 C 
ATOM     24  C   UNL     1      33.213 -20.140 -20.896  0.00  0.00    +0.000 C 
ATOM     25  C   UNL     1      34.564 -19.805 -20.984  0.00  0.00    +0.003 C 
BRANCH  18  26
ATOM     26  O   UNL     1      31.953 -22.928 -18.003  0.00  0.00    -0.505 OA
ATOM     27  H   UNL     1      31.323 -22.237 -18.075  0.00  0.00    +0.292 HD
ENDBRANCH  18  26
ENDBRANCH   1  17
BRANCH   1  29
ATOM     28  O   UNL     1      32.339 -22.510 -15.352  0.00  0.00    -0.249 OA
ATOM     29  C   UNL     1      32.761 -23.660 -15.338  0.00  0.00    +0.325 C 
BRANCH  29  30
ATOM     30  O   UNL     1      32.216 -24.699 -14.635  0.00  0.00    -0.448 OA
BRANCH  30  31
ATOM     31  C   UNL     1      30.887 -24.486 -14.148  0.00  0.00    +0.209 C 
ATOM     32  C   UNL     1      29.929 -25.356 -14.933  0.00  0.00    +0.051 C 
ENDBRANCH  30  31
ENDBRANCH  29  30
ENDBRANCH   1  29
TORSDOF 7
ENDMDL
MODEL 8
REMARK VINA RESULT:      -7.6      5.634      9.615
REMARK  Name = 54685524
REMARK  7 active torsions:
REMARK  status: ('A' for Active; 'I' for Inactive)
REMARK    1  A    between atoms: C_1  and  C_4
REMARK    2  A    between atoms: C_1  and  C_17
REMARK    3  A    between atoms: C_1  and  C_29
REMARK    4  A    between atoms: C_5  and  O_13
REMARK    5  A    between atoms: C_18  and  O_26
REMARK    6  A    between atoms: C_29  and  O_30
REMARK    7  A    between atoms: O_30  and  C_31
REMARK                            x       y       z     vdW  Elec       q    Type
REMARK                         _______ _______ _______ _____ _____    ______ ____
ROOT
ATOM      1  C   UNL     1      34.648 -22.572 -16.556  0.00  0.00    +0.162 C 
ENDROOT
BRANCH   1   4
ATOM      2  O   UNL     1      38.279 -22.977 -15.564  0.00  0.00    -0.421 OA
ATOM      3  O   UNL     1      37.059 -21.216 -16.331  0.00  0.00    -0.245 OA
ATOM      4  C   UNL     1      35.885 -23.270 -16.059  0.00  0.00    +0.102 A 
ATOM      5  C   UNL     1      35.961 -24.563 -15.686  0.00  0.00    +0.140 A 
ATOM      6  C   UNL     1      37.225 -25.140 -15.226  0.00  0.00    +0.068 A 
ATOM      7  C   UNL     1      37.096 -22.399 -16.003  0.00  0.00    +0.345 A 
ATOM      8  C   UNL     1      38.352 -24.326 -15.180  0.00  0.00    +0.152 A 
ATOM      9  C   UNL     1      37.366 -26.477 -14.829  0.00  0.00    +0.006 C 
ATOM     10  C   UNL     1      39.595 -24.799 -14.756  0.00  0.00    +0.038 C 
ATOM     11  C   UNL     1      38.604 -26.967 -14.401  0.00  0.00    +0.000 C 
ATOM     12  C   UNL     1      39.718 -26.129 -14.365  0.00  0.00    +0.003 C 
BRANCH   5  13
ATOM     13  O   UNL     1      34.899 -25.442 -15.695  0.00  0.00    -0.505 OA
ATOM     14  H   UNL     1      34.781 -26.042 -14.984  0.00  0.00    +0.292 HD
ENDBRANCH   5  13
ENDBRANCH   1   4
BRANCH   1  17
ATOM     15  O   UNL     1      32.466 -23.852 -13.762  0.00  0.00    -0.421 OA
ATOM     16  O   UNL     1      34.646 -23.209 -13.865  0.00  0.00    -0.245 OA
ATOM     17  C   UNL     1      33.413 -23.068 -15.896  0.00  0.00    +0.102 A 
ATOM     18  C   UNL     1      32.222 -23.253 -16.498  0.00  0.00    +0.140 A 
ATOM     19  C   UNL     1      31.071 -23.761 -15.750  0.00  0.00    +0.068 A 
ATOM     20  C   UNL     1      33.577 -23.372 -14.444  0.00  0.00    +0.345 A 
ATOM     21  C   UNL     1      31.228 -24.046 -14.398  0.00  0.00    +0.152 A 
ATOM     22  C   UNL     1      29.809 -23.976 -16.321  0.00  0.00    +0.006 C 
ATOM     23  C   UNL     1      30.182 -24.533 -13.612  0.00  0.00    +0.038 C 
ATOM     24  C   UNL     1      28.749 -24.464 -15.548  0.00  0.00    +0.000 C 
ATOM     25  C   UNL     1      28.937 -24.743 -14.195  0.00  0.00    +0.003 C 
BRANCH  18  26
ATOM     26  O   UNL     1      31.970 -22.996 -17.829  0.00  0.00    -0.505 OA
ATOM     27  H   UNL     1      31.202 -22.519 -18.076  0.00  0.00    +0.292 HD
ENDBRANCH  18  26
ENDBRANCH   1  17
BRANCH   1  29
ATOM     28  O   UNL     1      34.332 -23.942 -18.542  0.00  0.00    -0.249 OA
ATOM     29  C   UNL     1      34.524 -22.841 -18.039  0.00  0.00    +0.325 C 
BRANCH  29  30
ATOM     30  O   UNL     1      34.616 -21.659 -18.720  0.00  0.00    -0.448 OA
BRANCH  30  31
ATOM     31  C   UNL     1      35.728 -21.547 -19.614  0.00  0.00    +0.209 C 
ATOM     32  C   UNL     1      35.522 -20.344 -20.509  0.00  0.00    +0.051 C 
ENDBRANCH  30  31
ENDBRANCH  29  30
ENDBRANCH   1  29
TORSDOF 7
ENDMDL
MODEL 9
REMARK VINA RESULT:      -7.6      2.346      4.294
REMARK  Name = 54685524
REMARK  7 active torsions:
REMARK  status: ('A' for Active; 'I' for Inactive)
REMARK    1  A    between atoms: C_1  and  C_4
REMARK    2  A    between atoms: C_1  and  C_17
REMARK    3  A    between atoms: C_1  and  C_29
REMARK    4  A    between atoms: C_5  and  O_13
REMARK    5  A    between atoms: C_18  and  O_26
REMARK    6  A    between atoms: C_29  and  O_30
REMARK    7  A    between atoms: O_30  and  C_31
REMARK                            x       y       z     vdW  Elec       q    Type
REMARK                         _______ _______ _______ _____ _____    ______ ____
ROOT
ATOM      1  C   UNL     1      34.079 -14.036 -24.589  0.00  0.00    +0.162 C 
ENDROOT
BRANCH   1   4
ATOM      2  O   UNL     1      35.146 -15.978 -21.519  0.00  0.00    -0.421 OA
ATOM      3  O   UNL     1      34.905 -13.757 -21.954  0.00  0.00    -0.245 OA
ATOM      4  C   UNL     1      34.393 -15.242 -23.744  0.00  0.00    +0.102 A 
ATOM      5  C   UNL     1      34.314 -16.525 -24.148  0.00  0.00    +0.140 A 
ATOM      6  C   UNL     1      34.656 -17.621 -23.239  0.00  0.00    +0.068 A 
ATOM      7  C   UNL     1      34.827 -14.915 -22.354  0.00  0.00    +0.345 A 
ATOM      8  C   UNL     1      35.064 -17.313 -21.946  0.00  0.00    +0.152 A 
ATOM      9  C   UNL     1      34.596 -18.974 -23.602  0.00  0.00    +0.006 C 
ATOM     10  C   UNL     1      35.409 -18.299 -21.020  0.00  0.00    +0.038 C 
ATOM     11  C   UNL     1      34.937 -19.974 -22.686  0.00  0.00    +0.000 C 
ATOM     12  C   UNL     1      35.344 -19.636 -21.396  0.00  0.00    +0.003 C 
BRANCH   5  13
ATOM     13  O   UNL     1      33.916 -16.926 -25.405  0.00  0.00    -0.505 OA
ATOM     14  H   UNL     1      34.344 -16.581 -26.164  0.00  0.00    +0.292 HD
ENDBRANCH   5  13
ENDBRANCH   1   4
BRANCH   1  17
ATOM     15  O   UNL     1      33.463 -10.489 -23.475  0.00  0.00    -0.421 OA
ATOM     16  O   UNL     1      34.790 -11.409 -25.078  0.00  0.00    -0.245 OA
ATOM     17  C   UNL     1      33.480 -12.930 -23.798  0.00  0.00    +0.102 A 
ATOM     18  C   UNL     1      32.574 -13.072 -22.811  0.00  0.00    +0.140 A 
ATOM     19  C   UNL     1      32.059 -11.908 -22.089  0.00  0.00    +0.068 A 
ATOM     20  C   UNL     1      33.970 -11.573 -24.179  0.00  0.00    +0.345 A 
ATOM     21  C   UNL     1      32.520 -10.645 -22.444  0.00  0.00    +0.152 A 
ATOM     22  C   UNL     1      31.119 -11.993 -21.052  0.00  0.00    +0.006 C 
ATOM     23  C   UNL     1      32.081  -9.483 -21.806  0.00  0.00    +0.038 C 
ATOM     24  C   UNL     1      30.668 -10.839 -20.401  0.00  0.00    +0.000 C 
ATOM     25  C   UNL     1      31.149  -9.585 -20.779  0.00  0.00    +0.003 C 
BRANCH  18  26
ATOM     26  O   UNL     1      32.056 -14.279 -22.392  0.00  0.00    -0.505 OA
ATOM     27  H   UNL     1      31.283 -14.622 -22.796  0.00  0.00    +0.292 HD
ENDBRANCH  18  26
ENDBRANCH   1  17
BRANCH   1  29
ATOM     28  O   UNL     1      31.872 -14.593 -25.453  0.00  0.00    -0.249 OA
ATOM     29  C   UNL     1      33.075 -14.452 -25.641  0.00  0.00    +0.325 C 
BRANCH  29  30
ATOM     30  O   UNL     1      33.717 -14.603 -26.839  0.00  0.00    -0.448 OA
BRANCH  30  31
ATOM     31  C   UNL     1      33.879 -13.407 -27.607  0.00  0.00    +0.209 C 
ATOM     32  C   UNL     1      32.602 -12.598 -27.537  0.00  0.00    +0.051 C 
ENDBRANCH  30  31
ENDBRANCH  29  30
ENDBRANCH   1  29
TORSDOF 7
ENDMDL
