MODEL 1
REMARK VINA RESULT:      -7.5      0.000      0.000
REMARK  Name = 445858
REMARK  5 active torsions:
REMARK  status: ('A' for Active; 'I' for Inactive)
REMARK    1  A    between atoms: C_1  and  C_11
REMARK    2  A    between atoms: C_2  and  O_7
REMARK    3  A    between atoms: C_5  and  O_9
REMARK    4  A    between atoms: C_12  and  C_14
REMARK    5  A    between atoms: C_14  and  O_15
REMARK                            x       y       z     vdW  Elec       q    Type
REMARK                         _______ _______ _______ _____ _____    ______ ____
ROOT
ATOM      1  C   UNL     1      34.254 -19.084 -21.481  0.00  0.00    +0.003 C 
ATOM      2  C   UNL     1      34.741 -16.737 -21.787  0.00  0.00    +0.172 C 
ATOM      3  C   UNL     1      34.257 -17.777 -20.992  0.00  0.00    +0.040 C 
ATOM      4  C   UNL     1      34.732 -19.351 -22.762  0.00  0.00    +0.003 C 
ATOM      5  C   UNL     1      35.220 -17.005 -23.070  0.00  0.00    +0.168 C 
ATOM      6  C   UNL     1      35.215 -18.312 -23.557  0.00  0.00    +0.040 C 
ENDROOT
BRANCH   2   7
ATOM      7  O   UNL     1      34.741 -15.465 -21.300  0.00  0.00    -0.468 OA
ATOM      8  C   UNL     1      33.524 -14.992 -20.726  0.00  0.00    +0.253 C 
ENDBRANCH   2   7
BRANCH   5   9
ATOM      9  O   UNL     1      35.695 -15.998 -23.855  0.00  0.00    -0.503 OA
ATOM     10  H   UNL     1      35.134 -15.591 -24.486  0.00  0.00    +0.292 HD
ENDBRANCH   5   9
BRANCH   1  11
ATOM     11  C   UNL     1      33.749 -20.167 -20.652  0.00  0.00    +0.007 C 
ATOM     12  C   UNL     1      34.506 -20.983 -19.885  0.00  0.00    +0.082 C 
BRANCH  12  14
ATOM     13  O   UNL     1      32.673 -22.191 -18.891  0.00  0.00    -0.245 OA
ATOM     14  C   UNL     1      33.869 -22.044 -19.079  0.00  0.00    +0.338 C 
BRANCH  14  15
ATOM     15  O   UNL     1      34.836 -22.843 -18.572  0.00  0.00    -0.477 OA
ATOM     16  H   UNL     1      34.807 -23.767 -18.724  0.00  0.00    +0.295 HD
ENDBRANCH  14  15
ENDBRANCH  12  14
ENDBRANCH   1  11
TORSDOF 5
ENDMDL
MODEL 2
REMARK VINA RESULT:      -7.5      1.286      1.827
REMARK  Name = 445858
REMARK  5 active torsions:
REMARK  status: ('A' for Active; 'I' for Inactive)
REMARK    1  A    between atoms: C_1  and  C_11
REMARK    2  A    between atoms: C_2  and  O_7
REMARK    3  A    between atoms: C_5  and  O_9
REMARK    4  A    between atoms: C_12  and  C_14
REMARK    5  A    between atoms: C_14  and  O_15
REMARK                            x       y       z     vdW  Elec       q    Type
REMARK                         _______ _______ _______ _____ _____    ______ ____
ROOT
ATOM      1  C   UNL     1      34.717 -18.784 -22.630  0.00  0.00    +0.003 C 
ATOM      2  C   UNL     1      34.880 -16.557 -23.551  0.00  0.00    +0.172 C 
ATOM      3  C   UNL     1      34.891 -17.412 -22.449  0.00  0.00    +0.040 C 
ATOM      4  C   UNL     1      34.531 -19.301 -23.911  0.00  0.00    +0.003 C 
ATOM      5  C   UNL     1      34.694 -17.074 -24.833  0.00  0.00    +0.168 C 
ATOM      6  C   UNL     1      34.520 -18.446 -25.013  0.00  0.00    +0.040 C 
ENDROOT
BRANCH   2   7
ATOM      7  O   UNL     1      35.052 -15.218 -23.363  0.00  0.00    -0.468 OA
ATOM      8  C   UNL     1      34.300 -14.610 -22.315  0.00  0.00    +0.253 C 
ENDBRANCH   2   7
BRANCH   5   9
ATOM      9  O   UNL     1      34.682 -16.249 -25.917  0.00  0.00    -0.503 OA
ATOM     10  H   UNL     1      33.963 -16.274 -26.517  0.00  0.00    +0.292 HD
ENDBRANCH   5   9
BRANCH   1  11
ATOM     11  C   UNL     1      34.728 -19.676 -21.481  0.00  0.00    +0.007 C 
ATOM     12  C   UNL     1      33.632 -20.126 -20.830  0.00  0.00    +0.082 C 
BRANCH  12  14
ATOM     13  O   UNL     1      34.817 -21.528 -19.268  0.00  0.00    -0.245 OA
ATOM     14  C   UNL     1      33.778 -21.039 -19.679  0.00  0.00    +0.338 C 
BRANCH  14  15
ATOM     15  O   UNL     1      32.556 -21.253 -19.137  0.00  0.00    -0.477 OA
ATOM     16  H   UNL     1      32.480 -21.532 -18.246  0.00  0.00    +0.295 HD
ENDBRANCH  14  15
ENDBRANCH  12  14
ENDBRANCH   1  11
TORSDOF 5
ENDMDL
MODEL 3
REMARK VINA RESULT:      -7.5      1.668      6.002
REMARK  Name = 445858
REMARK  5 active torsions:
REMARK  status: ('A' for Active; 'I' for Inactive)
REMARK    1  A    between atoms: C_1  and  C_11
REMARK    2  A    between atoms: C_2  and  O_7
REMARK    3  A    between atoms: C_5  and  O_9
REMARK    4  A    between atoms: C_12  and  C_14
REMARK    5  A    between atoms: C_14  and  O_15
REMARK                            x       y       z     vdW  Elec       q    Type
REMARK                         _______ _______ _______ _____ _____    ______ ____
ROOT
ATOM      1  C   UNL     1      34.578 -19.549 -21.210  0.00  0.00    +0.003 C 
ATOM      2  C   UNL     1      35.147 -21.325 -19.674  0.00  0.00    +0.172 C 
ATOM      3  C   UNL     1      35.537 -20.359 -20.602  0.00  0.00    +0.040 C 
ATOM      4  C   UNL     1      33.230 -19.704 -20.890  0.00  0.00    +0.003 C 
ATOM      5  C   UNL     1      33.798 -21.480 -19.354  0.00  0.00    +0.168 C 
ATOM      6  C   UNL     1      32.840 -20.670 -19.962  0.00  0.00    +0.040 C 
ENDROOT
BRANCH   2   7
ATOM      7  O   UNL     1      36.093 -22.110 -19.086  0.00  0.00    -0.468 OA
ATOM      8  C   UNL     1      36.681 -21.623 -17.881  0.00  0.00    +0.253 C 
ENDBRANCH   2   7
BRANCH   5   9
ATOM      9  O   UNL     1      33.405 -22.419 -18.448  0.00  0.00    -0.503 OA
ATOM     10  H   UNL     1      32.602 -22.310 -17.980  0.00  0.00    +0.292 HD
ENDBRANCH   5   9
BRANCH   1  11
ATOM     11  C   UNL     1      34.985 -18.543 -22.178  0.00  0.00    +0.007 C 
ATOM     12  C   UNL     1      34.559 -18.473 -23.459  0.00  0.00    +0.082 C 
BRANCH  12  14
ATOM     13  O   UNL     1      34.825 -17.283 -25.538  0.00  0.00    -0.245 OA
ATOM     14  C   UNL     1      35.041 -17.392 -24.342  0.00  0.00    +0.338 C 
BRANCH  14  15
ATOM     15  O   UNL     1      35.773 -16.524 -23.606  0.00  0.00    -0.477 OA
ATOM     16  H   UNL     1      35.402 -15.705 -23.343  0.00  0.00    +0.295 HD
ENDBRANCH  14  15
ENDBRANCH  12  14
ENDBRANCH   1  11
TORSDOF 5
ENDMDL
MODEL 4
REMARK VINA RESULT:      -7.2      7.377      9.804
REMARK  Name = 445858
REMARK  5 active torsions:
REMARK  status: ('A' for Active; 'I' for Inactive)
REMARK    1  A    between atoms: C_1  and  C_11
REMARK    2  A    between atoms: C_2  and  O_7
REMARK    3  A    between atoms: C_5  and  O_9
REMARK    4  A    between atoms: C_12  and  C_14
REMARK    5  A    between atoms: C_14  and  O_15
REMARK                            x       y       z     vdW  Elec       q    Type
REMARK                         _______ _______ _______ _____ _____    ______ ____
ROOT
ATOM      1  C   UNL     1      30.160 -23.287 -15.329  0.00  0.00    +0.003 C 
ATOM      2  C   UNL     1      32.524 -23.541 -14.903  0.00  0.00    +0.172 C 
ATOM      3  C   UNL     1      31.481 -22.941 -15.609  0.00  0.00    +0.040 C 
ATOM      4  C   UNL     1      29.880 -24.233 -14.344  0.00  0.00    +0.003 C 
ATOM      5  C   UNL     1      32.245 -24.487 -13.916  0.00  0.00    +0.168 C 
ATOM      6  C   UNL     1      30.923 -24.833 -13.637  0.00  0.00    +0.040 C 
ENDROOT
BRANCH   2   7
ATOM      7  O   UNL     1      33.812 -23.194 -15.184  0.00  0.00    -0.468 OA
ATOM      8  C   UNL     1      34.199 -23.203 -16.557  0.00  0.00    +0.253 C 
ENDBRANCH   2   7
BRANCH   5   9
ATOM      9  O   UNL     1      33.254 -25.079 -13.219  0.00  0.00    -0.503 OA
ATOM     10  H   UNL     1      33.236 -26.002 -13.061  0.00  0.00    +0.292 HD
ENDBRANCH   5   9
BRANCH   1  11
ATOM     11  C   UNL     1      29.073 -22.663 -16.066  0.00  0.00    +0.007 C 
ATOM     12  C   UNL     1      27.775 -22.652 -15.687  0.00  0.00    +0.082 C 
BRANCH  12  14
ATOM     13  O   UNL     1      26.958 -21.439 -17.603  0.00  0.00    -0.245 OA
ATOM     14  C   UNL     1      26.766 -21.972 -16.522  0.00  0.00    +0.338 C 
BRANCH  14  15
ATOM     15  O   UNL     1      25.569 -22.033 -15.892  0.00  0.00    -0.477 OA
ATOM     16  H   UNL     1      25.158 -22.861 -15.747  0.00  0.00    +0.295 HD
ENDBRANCH  14  15
ENDBRANCH  12  14
ENDBRANCH   1  11
TORSDOF 5
ENDMDL
MODEL 5
REMARK VINA RESULT:      -6.9      2.829      6.306
REMARK  Name = 445858
REMARK  5 active torsions:
REMARK  status: ('A' for Active; 'I' for Inactive)
REMARK    1  A    between atoms: C_1  and  C_11
REMARK    2  A    between atoms: C_2  and  O_7
REMARK    3  A    between atoms: C_5  and  O_9
REMARK    4  A    between atoms: C_12  and  C_14
REMARK    5  A    between atoms: C_14  and  O_15
REMARK                            x       y       z     vdW  Elec       q    Type
REMARK                         _______ _______ _______ _____ _____    ______ ____
ROOT
ATOM      1  C   UNL     1      34.588 -16.884 -24.091  0.00  0.00    +0.003 C 
ATOM      2  C   UNL     1      35.026 -16.837 -21.716  0.00  0.00    +0.172 C 
ATOM      3  C   UNL     1      34.594 -16.196 -22.878  0.00  0.00    +0.040 C 
ATOM      4  C   UNL     1      35.012 -18.211 -24.143  0.00  0.00    +0.003 C 
ATOM      5  C   UNL     1      35.450 -18.165 -21.768  0.00  0.00    +0.168 C 
ATOM      6  C   UNL     1      35.443 -18.852 -22.981  0.00  0.00    +0.040 C 
ENDROOT
BRANCH   2   7
ATOM      7  O   UNL     1      35.027 -16.155 -20.536  0.00  0.00    -0.468 OA
ATOM      8  C   UNL     1      34.433 -14.859 -20.536  0.00  0.00    +0.253 C 
ENDBRANCH   2   7
BRANCH   5   9
ATOM      9  O   UNL     1      35.873 -18.801 -20.640  0.00  0.00    -0.503 OA
ATOM     10  H   UNL     1      35.614 -18.483 -19.798  0.00  0.00    +0.292 HD
ENDBRANCH   5   9
BRANCH   1  11
ATOM     11  C   UNL     1      34.139 -16.216 -25.302  0.00  0.00    +0.007 C 
ATOM     12  C   UNL     1      33.635 -14.963 -25.364  0.00  0.00    +0.082 C 
BRANCH  12  14
ATOM     13  O   UNL     1      33.963 -14.001 -27.549  0.00  0.00    -0.245 OA
ATOM     14  C   UNL     1      33.223 -14.394 -26.662  0.00  0.00    +0.338 C 
BRANCH  14  15
ATOM     15  O   UNL     1      31.871 -14.374 -26.718  0.00  0.00    -0.477 OA
ATOM     16  H   UNL     1      31.369 -14.443 -25.930  0.00  0.00    +0.295 HD
ENDBRANCH  14  15
ENDBRANCH  12  14
ENDBRANCH   1  11
TORSDOF 5
ENDMDL
MODEL 6
REMARK VINA RESULT:      -6.9      5.142      9.248
REMARK  Name = 445858
REMARK  5 active torsions:
REMARK  status: ('A' for Active; 'I' for Inactive)
REMARK    1  A    between atoms: C_1  and  C_11
REMARK    2  A    between atoms: C_2  and  O_7
REMARK    3  A    between atoms: C_5  and  O_9
REMARK    4  A    between atoms: C_12  and  C_14
REMARK    5  A    between atoms: C_14  and  O_15
REMARK                            x       y       z     vdW  Elec       q    Type
REMARK                         _______ _______ _______ _____ _____    ______ ____
ROOT
ATOM      1  C   UNL     1      31.903 -23.326 -16.126  0.00  0.00    +0.003 C 
ATOM      2  C   UNL     1      32.279 -24.169 -13.893  0.00  0.00    +0.172 C 
ATOM      3  C   UNL     1      32.780 -23.685 -15.102  0.00  0.00    +0.040 C 
ATOM      4  C   UNL     1      30.527 -23.451 -15.941  0.00  0.00    +0.003 C 
ATOM      5  C   UNL     1      30.902 -24.293 -13.708  0.00  0.00    +0.168 C 
ATOM      6  C   UNL     1      30.026 -23.934 -14.732  0.00  0.00    +0.040 C 
ENDROOT
BRANCH   2   7
ATOM      7  O   UNL     1      33.145 -24.515 -12.899  0.00  0.00    -0.468 OA
ATOM      8  C   UNL     1      34.514 -24.158 -13.080  0.00  0.00    +0.253 C 
ENDBRANCH   2   7
BRANCH   5   9
ATOM      9  O   UNL     1      30.401 -24.763 -12.532  0.00  0.00    -0.503 OA
ATOM     10  H   UNL     1      30.605 -25.632 -12.250  0.00  0.00    +0.292 HD
ENDBRANCH   5   9
BRANCH   1  11
ATOM     11  C   UNL     1      32.425 -22.823 -17.386  0.00  0.00    +0.007 C 
ATOM     12  C   UNL     1      33.674 -23.038 -17.858  0.00  0.00    +0.082 C 
BRANCH  12  14
ATOM     13  O   UNL     1      35.212 -22.445 -19.615  0.00  0.00    -0.245 OA
ATOM     14  C   UNL     1      34.080 -22.478 -19.162  0.00  0.00    +0.338 C 
BRANCH  14  15
ATOM     15  O   UNL     1      32.980 -22.000 -19.790  0.00  0.00    -0.477 OA
ATOM     16  H   UNL     1      33.063 -21.312 -20.420  0.00  0.00    +0.295 HD
ENDBRANCH  14  15
ENDBRANCH  12  14
ENDBRANCH   1  11
TORSDOF 5
ENDMDL
MODEL 7
REMARK VINA RESULT:      -6.9      5.294      8.122
REMARK  Name = 445858
REMARK  5 active torsions:
REMARK  status: ('A' for Active; 'I' for Inactive)
REMARK    1  A    between atoms: C_1  and  C_11
REMARK    2  A    between atoms: C_2  and  O_7
REMARK    3  A    between atoms: C_5  and  O_9
REMARK    4  A    between atoms: C_12  and  C_14
REMARK    5  A    between atoms: C_14  and  O_15
REMARK                            x       y       z     vdW  Elec       q    Type
REMARK                         _______ _______ _______ _____ _____    ______ ____
ROOT
ATOM      1  C   UNL     1      31.712 -23.249 -15.789  0.00  0.00    +0.003 C 
ATOM      2  C   UNL     1      33.771 -23.204 -17.052  0.00  0.00    +0.172 C 
ATOM      3  C   UNL     1      32.386 -23.048 -16.994  0.00  0.00    +0.040 C 
ATOM      4  C   UNL     1      32.422 -23.606 -14.643  0.00  0.00    +0.003 C 
ATOM      5  C   UNL     1      34.482 -23.560 -15.905  0.00  0.00    +0.168 C 
ATOM      6  C   UNL     1      33.807 -23.761 -14.701  0.00  0.00    +0.040 C 
ENDROOT
BRANCH   2   7
ATOM      7  O   UNL     1      34.419 -23.003 -18.233  0.00  0.00    -0.468 OA
ATOM      8  C   UNL     1      33.768 -22.178 -19.197  0.00  0.00    +0.253 C 
ENDBRANCH   2   7
BRANCH   5   9
ATOM      9  O   UNL     1      35.835 -23.714 -15.949  0.00  0.00    -0.503 OA
ATOM     10  H   UNL     1      36.205 -24.561 -16.099  0.00  0.00    +0.292 HD
ENDBRANCH   5   9
BRANCH   1  11
ATOM     11  C   UNL     1      30.268 -23.088 -15.729  0.00  0.00    +0.007 C 
ATOM     12  C   UNL     1      29.475 -22.749 -16.769  0.00  0.00    +0.082 C 
BRANCH  12  14
ATOM     13  O   UNL     1      27.449 -21.996 -15.702  0.00  0.00    -0.245 OA
ATOM     14  C   UNL     1      28.016 -22.627 -16.580  0.00  0.00    +0.338 C 
BRANCH  14  15
ATOM     15  O   UNL     1      27.391 -23.335 -17.549  0.00  0.00    -0.477 OA
ATOM     16  H   UNL     1      26.546 -23.069 -17.852  0.00  0.00    +0.295 HD
ENDBRANCH  14  15
ENDBRANCH  12  14
ENDBRANCH   1  11
TORSDOF 5
ENDMDL
MODEL 8
REMARK VINA RESULT:      -6.8      1.581      5.958
REMARK  Name = 445858
REMARK  5 active torsions:
REMARK  status: ('A' for Active; 'I' for Inactive)
REMARK    1  A    between atoms: C_1  and  C_11
REMARK    2  A    between atoms: C_2  and  O_7
REMARK    3  A    between atoms: C_5  and  O_9
REMARK    4  A    between atoms: C_12  and  C_14
REMARK    5  A    between atoms: C_14  and  O_15
REMARK                            x       y       z     vdW  Elec       q    Type
REMARK                         _______ _______ _______ _____ _____    ______ ____
ROOT
ATOM      1  C   UNL     1      34.977 -19.542 -21.189  0.00  0.00    +0.003 C 
ATOM      2  C   UNL     1      34.007 -21.308 -19.855  0.00  0.00    +0.172 C 
ATOM      3  C   UNL     1      33.864 -20.283 -20.791  0.00  0.00    +0.040 C 
ATOM      4  C   UNL     1      36.232 -19.826 -20.653  0.00  0.00    +0.003 C 
ATOM      5  C   UNL     1      35.264 -21.592 -19.319  0.00  0.00    +0.168 C 
ATOM      6  C   UNL     1      36.376 -20.851 -19.718  0.00  0.00    +0.040 C 
ENDROOT
BRANCH   2   7
ATOM      7  O   UNL     1      32.914 -22.026 -19.474  0.00  0.00    -0.468 OA
ATOM      8  C   UNL     1      32.773 -22.300 -18.082  0.00  0.00    +0.253 C 
ENDBRANCH   2   7
BRANCH   5   9
ATOM      9  O   UNL     1      35.417 -22.591 -18.406  0.00  0.00    -0.503 OA
ATOM     10  H   UNL     1      36.145 -23.177 -18.470  0.00  0.00    +0.292 HD
ENDBRANCH   5   9
BRANCH   1  11
ATOM     11  C   UNL     1      34.827 -18.473 -22.163  0.00  0.00    +0.007 C 
ATOM     12  C   UNL     1      35.223 -18.530 -23.454  0.00  0.00    +0.082 C 
BRANCH  12  14
ATOM     13  O   UNL     1      34.432 -17.391 -25.425  0.00  0.00    -0.245 OA
ATOM     14  C   UNL     1      35.004 -17.375 -24.348  0.00  0.00    +0.338 C 
BRANCH  14  15
ATOM     15  O   UNL     1      35.545 -16.274 -23.775  0.00  0.00    -0.477 OA
ATOM     16  H   UNL     1      35.368 -16.079 -22.877  0.00  0.00    +0.295 HD
ENDBRANCH  14  15
ENDBRANCH  12  14
ENDBRANCH   1  11
TORSDOF 5
ENDMDL
MODEL 9
REMARK VINA RESULT:      -6.8      7.822     10.543
REMARK  Name = 445858
REMARK  5 active torsions:
REMARK  status: ('A' for Active; 'I' for Inactive)
REMARK    1  A    between atoms: C_1  and  C_11
REMARK    2  A    between atoms: C_2  and  O_7
REMARK    3  A    between atoms: C_5  and  O_9
REMARK    4  A    between atoms: C_12  and  C_14
REMARK    5  A    between atoms: C_14  and  O_15
REMARK                            x       y       z     vdW  Elec       q    Type
REMARK                         _______ _______ _______ _____ _____    ______ ____
ROOT
ATOM      1  C   UNL     1      36.929 -25.172 -13.863  0.00  0.00    +0.003 C 
ATOM      2  C   UNL     1      35.034 -23.725 -14.249  0.00  0.00    +0.172 C 
ATOM      3  C   UNL     1      36.188 -24.355 -14.716  0.00  0.00    +0.040 C 
ATOM      4  C   UNL     1      36.518 -25.360 -12.544  0.00  0.00    +0.003 C 
ATOM      5  C   UNL     1      34.622 -23.913 -12.929  0.00  0.00    +0.168 C 
ATOM      6  C   UNL     1      35.364 -24.730 -12.077  0.00  0.00    +0.040 C 
ENDROOT
BRANCH   2   7
ATOM      7  O   UNL     1      34.317 -22.929 -15.091  0.00  0.00    -0.468 OA
ATOM      8  C   UNL     1      33.445 -23.582 -16.012  0.00  0.00    +0.253 C 
ENDBRANCH   2   7
BRANCH   5   9
ATOM      9  O   UNL     1      33.497 -23.304 -12.462  0.00  0.00    -0.503 OA
ATOM     10  H   UNL     1      32.662 -23.519 -12.827  0.00  0.00    +0.292 HD
ENDBRANCH   5   9
BRANCH   1  11
ATOM     11  C   UNL     1      38.132 -25.828 -14.349  0.00  0.00    +0.007 C 
ATOM     12  C   UNL     1      39.394 -25.375 -14.178  0.00  0.00    +0.082 C 
BRANCH  12  14
ATOM     13  O   UNL     1      41.338 -26.795 -14.067  0.00  0.00    -0.245 OA
ATOM     14  C   UNL     1      40.536 -26.141 -14.714  0.00  0.00    +0.338 C 
BRANCH  14  15
ATOM     15  O   UNL     1      40.557 -26.006 -16.061  0.00  0.00    -0.477 OA
ATOM     16  H   UNL     1      40.289 -26.718 -16.607  0.00  0.00    +0.295 HD
ENDBRANCH  14  15
ENDBRANCH  12  14
ENDBRANCH   1  11
TORSDOF 5
ENDMDL
