MODEL 1
REMARK VINA RESULT:      -9.2      0.000      0.000
REMARK  Name = 9966051
REMARK  3 active torsions:
REMARK  status: ('A' for Active; 'I' for Inactive)
REMARK    1  A    between atoms: C_1  and  N_7
REMARK    2  A    between atoms: C_2  and  S_15
REMARK    3  A    between atoms: S_15  and  C_16
REMARK                            x       y       z     vdW  Elec       q    Type
REMARK                         _______ _______ _______ _____ _____    ______ ____
ROOT
ATOM      1  C   UNL     1      33.406  -8.708 -23.349  0.00  0.00    +0.054 C 
ATOM      2  C   UNL     1      32.926 -10.031 -23.466  0.00  0.00    +0.043 C 
ATOM      3  C   UNL     1      34.583  -8.371 -24.048  0.00  0.00    +0.015 C 
ATOM      4  C   UNL     1      33.595 -10.972 -24.249  0.00  0.00    +0.008 C 
ATOM      5  C   UNL     1      35.251  -9.312 -24.831  0.00  0.00    +0.001 C 
ATOM      6  C   UNL     1      34.758 -10.612 -24.931  0.00  0.00    +0.001 C 
ENDROOT
BRANCH   1   7
ATOM      7  N   UNL     1      32.762  -7.737 -22.573  0.00  0.00    -0.311 N 
ATOM      8  N   UNL     1      31.675  -5.637 -20.973  0.00  0.00    +0.386 N 
ATOM      9  C   UNL     1      33.156  -7.606 -21.163  0.00  0.00    +0.067 C 
ATOM     10  C   UNL     1      32.259  -6.514 -23.209  0.00  0.00    +0.067 C 
ATOM     11  C   UNL     1      32.055  -6.910 -20.363  0.00  0.00    -0.060 C 
ATOM     12  C   UNL     1      31.191  -5.857 -22.335  0.00  0.00    -0.060 C 
ATOM     13  H   UNL     1      32.488  -5.021 -21.000  0.00  0.00    -0.084 HD
ATOM     14  H   UNL     1      30.933  -5.210 -20.420  0.00  0.00    -0.084 HD
ENDBRANCH   1   7
BRANCH   2  15
ATOM     15  S   UNL     1      31.440 -10.548 -22.613  0.00  0.00    -0.086 S 
BRANCH  15  16
ATOM     16  C   UNL     1      31.930 -12.159 -22.022  0.00  0.00    +0.026 C 
ATOM     17  C   UNL     1      32.001 -12.452 -20.658  0.00  0.00    -0.016 C 
ATOM     18  C   UNL     1      32.247 -13.143 -22.961  0.00  0.00    +0.006 C 
ATOM     19  C   UNL     1      32.389 -13.725 -20.235  0.00  0.00    -0.008 C 
ATOM     20  C   UNL     1      32.705 -14.705 -21.174  0.00  0.00    -0.022 C 
ATOM     21  C   UNL     1      32.634 -14.415 -22.538  0.00  0.00    -0.004 C 
ATOM     22  C   UNL     1      31.673 -11.434 -19.613  0.00  0.00    +0.032 C 
ATOM     23  C   UNL     1      33.120 -16.065 -20.723  0.00  0.00    +0.031 C 
ENDBRANCH  15  16
ENDBRANCH   2  15
TORSDOF 3
ENDMDL
MODEL 2
REMARK VINA RESULT:      -9.0      4.548      7.621
REMARK  Name = 9966051
REMARK  3 active torsions:
REMARK  status: ('A' for Active; 'I' for Inactive)
REMARK    1  A    between atoms: C_1  and  N_7
REMARK    2  A    between atoms: C_2  and  S_15
REMARK    3  A    between atoms: S_15  and  C_16
REMARK                            x       y       z     vdW  Elec       q    Type
REMARK                         _______ _______ _______ _____ _____    ______ ____
ROOT
ATOM      1  C   UNL     1      34.013 -16.233 -23.849  0.00  0.00    +0.054 C 
ATOM      2  C   UNL     1      34.655 -17.260 -23.123  0.00  0.00    +0.043 C 
ATOM      3  C   UNL     1      33.819 -16.429 -25.232  0.00  0.00    +0.015 C 
ATOM      4  C   UNL     1      35.080 -18.429 -23.753  0.00  0.00    +0.008 C 
ATOM      5  C   UNL     1      34.244 -17.597 -25.862  0.00  0.00    +0.001 C 
ATOM      6  C   UNL     1      34.875 -18.598 -25.123  0.00  0.00    +0.001 C 
ENDROOT
BRANCH   1   7
ATOM      7  N   UNL     1      33.573 -15.046 -23.251  0.00  0.00    -0.311 N 
ATOM      8  N   UNL     1      32.461 -12.648 -22.174  0.00  0.00    +0.386 N 
ATOM      9  C   UNL     1      33.417 -13.860 -24.103  0.00  0.00    +0.067 C 
ATOM     10  C   UNL     1      32.694 -15.107 -22.078  0.00  0.00    +0.067 C 
ATOM     11  C   UNL     1      33.440 -12.587 -23.257  0.00  0.00    -0.060 C 
ATOM     12  C   UNL     1      32.743 -13.789 -21.305  0.00  0.00    -0.060 C 
ATOM     13  H   UNL     1      31.527 -12.749 -22.570  0.00  0.00    -0.084 HD
ATOM     14  H   UNL     1      32.515 -11.790 -21.626  0.00  0.00    -0.084 HD
ENDBRANCH   1   7
BRANCH   2  15
ATOM     15  S   UNL     1      34.944 -17.098 -21.364  0.00  0.00    -0.086 S 
BRANCH  15  16
ATOM     16  C   UNL     1      34.654 -18.772 -20.815  0.00  0.00    +0.026 C 
ATOM     17  C   UNL     1      35.706 -19.660 -20.575  0.00  0.00    -0.016 C 
ATOM     18  C   UNL     1      33.336 -19.190 -20.625  0.00  0.00    +0.006 C 
ATOM     19  C   UNL     1      35.438 -20.961 -20.147  0.00  0.00    -0.008 C 
ATOM     20  C   UNL     1      34.121 -21.376 -19.958  0.00  0.00    -0.022 C 
ATOM     21  C   UNL     1      33.069 -20.490 -20.197  0.00  0.00    -0.004 C 
ATOM     22  C   UNL     1      37.135 -19.262 -20.764  0.00  0.00    +0.032 C 
ATOM     23  C   UNL     1      33.834 -22.767 -19.501  0.00  0.00    +0.031 C 
ENDBRANCH  15  16
ENDBRANCH   2  15
TORSDOF 3
ENDMDL
MODEL 3
REMARK VINA RESULT:      -9.0     10.083     14.495
REMARK  Name = 9966051
REMARK  3 active torsions:
REMARK  status: ('A' for Active; 'I' for Inactive)
REMARK    1  A    between atoms: C_1  and  N_7
REMARK    2  A    between atoms: C_2  and  S_15
REMARK    3  A    between atoms: S_15  and  C_16
REMARK                            x       y       z     vdW  Elec       q    Type
REMARK                         _______ _______ _______ _____ _____    ______ ____
ROOT
ATOM      1  C   UNL     1      33.728 -23.321 -15.814  0.00  0.00    +0.054 C 
ATOM      2  C   UNL     1      33.179 -23.263 -17.114  0.00  0.00    +0.043 C 
ATOM      3  C   UNL     1      32.874 -23.047 -14.727  0.00  0.00    +0.015 C 
ATOM      4  C   UNL     1      31.836 -22.945 -17.314  0.00  0.00    +0.008 C 
ATOM      5  C   UNL     1      31.531 -22.730 -14.927  0.00  0.00    +0.001 C 
ATOM      6  C   UNL     1      31.011 -22.679 -16.221  0.00  0.00    +0.001 C 
ENDROOT
BRANCH   1   7
ATOM      7  N   UNL     1      35.071 -23.635 -15.575  0.00  0.00    -0.311 N 
ATOM      8  N   UNL     1      37.787 -24.153 -14.863  0.00  0.00    +0.386 N 
ATOM      9  C   UNL     1      36.039 -22.532 -15.513  0.00  0.00    +0.067 C 
ATOM     10  C   UNL     1      35.409 -24.823 -14.783  0.00  0.00    +0.067 C 
ATOM     11  C   UNL     1      37.456 -23.048 -15.761  0.00  0.00    -0.060 C 
ATOM     12  C   UNL     1      36.849 -25.257 -15.057  0.00  0.00    -0.060 C 
ATOM     13  H   UNL     1      37.731 -23.829 -13.897  0.00  0.00    -0.084 HD
ATOM     14  H   UNL     1      38.731 -24.477 -15.066  0.00  0.00    -0.084 HD
ENDBRANCH   1   7
BRANCH   2  15
ATOM     15  S   UNL     1      34.190 -23.595 -18.553  0.00  0.00    -0.086 S 
BRANCH  15  16
ATOM     16  C   UNL     1      34.165 -22.003 -19.362  0.00  0.00    +0.026 C 
ATOM     17  C   UNL     1      35.334 -21.267 -19.573  0.00  0.00    -0.016 C 
ATOM     18  C   UNL     1      32.937 -21.494 -19.788  0.00  0.00    +0.006 C 
ATOM     19  C   UNL     1      35.273 -20.026 -20.209  0.00  0.00    -0.008 C 
ATOM     20  C   UNL     1      34.045 -19.520 -20.634  0.00  0.00    -0.022 C 
ATOM     21  C   UNL     1      32.877 -20.254 -20.424  0.00  0.00    -0.004 C 
ATOM     22  C   UNL     1      36.673 -21.767 -19.135  0.00  0.00    +0.032 C 
ATOM     23  C   UNL     1      33.979 -18.194 -21.314  0.00  0.00    +0.031 C 
ENDBRANCH  15  16
ENDBRANCH   2  15
TORSDOF 3
ENDMDL
MODEL 4
REMARK VINA RESULT:      -8.8      4.186      6.778
REMARK  Name = 9966051
REMARK  3 active torsions:
REMARK  status: ('A' for Active; 'I' for Inactive)
REMARK    1  A    between atoms: C_1  and  N_7
REMARK    2  A    between atoms: C_2  and  S_15
REMARK    3  A    between atoms: S_15  and  C_16
REMARK                            x       y       z     vdW  Elec       q    Type
REMARK                         _______ _______ _______ _____ _____    ______ ____
ROOT
ATOM      1  C   UNL     1      33.228 -13.882 -23.070  0.00  0.00    +0.054 C 
ATOM      2  C   UNL     1      33.881 -15.041 -22.595  0.00  0.00    +0.043 C 
ATOM      3  C   UNL     1      32.389 -13.187 -22.175  0.00  0.00    +0.015 C 
ATOM      4  C   UNL     1      33.699 -15.482 -21.285  0.00  0.00    +0.008 C 
ATOM      5  C   UNL     1      32.207 -13.628 -20.865  0.00  0.00    +0.001 C 
ATOM      6  C   UNL     1      32.863 -14.776 -20.419  0.00  0.00    +0.001 C 
ENDROOT
BRANCH   1   7
ATOM      7  N   UNL     1      33.386 -13.409 -24.378  0.00  0.00    -0.311 N 
ATOM      8  N   UNL     1      33.458 -12.381 -27.040  0.00  0.00    +0.386 N 
ATOM      9  C   UNL     1      32.670 -14.105 -25.455  0.00  0.00    +0.067 C 
ATOM     10  C   UNL     1      33.653 -11.985 -24.609  0.00  0.00    +0.067 C 
ATOM     11  C   UNL     1      33.325 -13.818 -26.806  0.00  0.00    -0.060 C 
ATOM     12  C   UNL     1      34.272 -11.774 -25.990  0.00  0.00    -0.060 C 
ATOM     13  H   UNL     1      32.532 -11.953 -27.039  0.00  0.00    -0.084 HD
ATOM     14  H   UNL     1      33.909 -12.230 -27.942  0.00  0.00    -0.084 HD
ENDBRANCH   1   7
BRANCH   2  15
ATOM     15  S   UNL     1      34.965 -15.986 -23.660  0.00  0.00    -0.086 S 
BRANCH  15  16
ATOM     16  C   UNL     1      35.137 -17.493 -22.719  0.00  0.00    +0.026 C 
ATOM     17  C   UNL     1      34.800 -18.738 -23.256  0.00  0.00    -0.016 C 
ATOM     18  C   UNL     1      35.624 -17.409 -21.413  0.00  0.00    +0.006 C 
ATOM     19  C   UNL     1      34.949 -19.894 -22.488  0.00  0.00    -0.008 C 
ATOM     20  C   UNL     1      35.435 -19.808 -21.184  0.00  0.00    -0.022 C 
ATOM     21  C   UNL     1      35.773 -18.565 -20.646  0.00  0.00    -0.004 C 
ATOM     22  C   UNL     1      34.275 -18.883 -24.648  0.00  0.00    +0.032 C 
ATOM     23  C   UNL     1      35.595 -21.042 -20.363  0.00  0.00    +0.031 C 
ENDBRANCH  15  16
ENDBRANCH   2  15
TORSDOF 3
ENDMDL
MODEL 5
REMARK VINA RESULT:      -8.7      5.342      9.154
REMARK  Name = 9966051
REMARK  3 active torsions:
REMARK  status: ('A' for Active; 'I' for Inactive)
REMARK    1  A    between atoms: C_1  and  N_7
REMARK    2  A    between atoms: C_2  and  S_15
REMARK    3  A    between atoms: S_15  and  C_16
REMARK                            x       y       z     vdW  Elec       q    Type
REMARK                         _______ _______ _______ _____ _____    ______ ____
ROOT
ATOM      1  C   UNL     1      34.807 -18.774 -22.826  0.00  0.00    +0.054 C 
ATOM      2  C   UNL     1      34.714 -17.364 -22.808  0.00  0.00    +0.043 C 
ATOM      3  C   UNL     1      34.712 -19.422 -24.074  0.00  0.00    +0.015 C 
ATOM      4  C   UNL     1      34.534 -16.640 -23.985  0.00  0.00    +0.008 C 
ATOM      5  C   UNL     1      34.532 -18.697 -25.252  0.00  0.00    +0.001 C 
ATOM      6  C   UNL     1      34.443 -17.306 -25.208  0.00  0.00    +0.001 C 
ENDROOT
BRANCH   1   7
ATOM      7  N   UNL     1      34.987 -19.534 -21.665  0.00  0.00    -0.311 N 
ATOM      8  N   UNL     1      35.371 -20.863 -19.168  0.00  0.00    +0.386 N 
ATOM      9  C   UNL     1      36.282 -19.447 -20.976  0.00  0.00    +0.067 C 
ATOM     10  C   UNL     1      33.833 -19.846 -20.814  0.00  0.00    +0.067 C 
ATOM     11  C   UNL     1      36.495 -20.668 -20.081  0.00  0.00    -0.060 C 
ATOM     12  C   UNL     1      34.135 -21.052 -19.925  0.00  0.00    -0.060 C 
ATOM     13  H   UNL     1      35.277 -20.042 -18.569  0.00  0.00    -0.084 HD
ATOM     14  H   UNL     1      35.543 -21.691 -18.598  0.00  0.00    -0.084 HD
ENDBRANCH   1   7
BRANCH   2  15
ATOM     15  S   UNL     1      34.823 -16.457 -21.269  0.00  0.00    -0.086 S 
BRANCH  15  16
ATOM     16  C   UNL     1      33.938 -14.965 -21.689  0.00  0.00    +0.026 C 
ATOM     17  C   UNL     1      32.804 -14.558 -20.982  0.00  0.00    -0.016 C 
ATOM     18  C   UNL     1      34.405 -14.194 -22.756  0.00  0.00    +0.006 C 
ATOM     19  C   UNL     1      32.139 -13.385 -21.342  0.00  0.00    -0.008 C 
ATOM     20  C   UNL     1      32.607 -12.617 -22.408  0.00  0.00    -0.022 C 
ATOM     21  C   UNL     1      33.740 -13.022 -23.115  0.00  0.00    -0.004 C 
ATOM     22  C   UNL     1      32.264 -15.347 -19.833  0.00  0.00    +0.032 C 
ATOM     23  C   UNL     1      31.897 -11.363 -22.793  0.00  0.00    +0.031 C 
ENDBRANCH  15  16
ENDBRANCH   2  15
TORSDOF 3
ENDMDL
MODEL 6
REMARK VINA RESULT:      -8.6      2.741      4.616
REMARK  Name = 9966051
REMARK  3 active torsions:
REMARK  status: ('A' for Active; 'I' for Inactive)
REMARK    1  A    between atoms: C_1  and  N_7
REMARK    2  A    between atoms: C_2  and  S_15
REMARK    3  A    between atoms: S_15  and  C_16
REMARK                            x       y       z     vdW  Elec       q    Type
REMARK                         _______ _______ _______ _____ _____    ______ ____
ROOT
ATOM      1  C   UNL     1      33.557 -12.770 -25.159  0.00  0.00    +0.054 C 
ATOM      2  C   UNL     1      33.661 -13.941 -24.376  0.00  0.00    +0.043 C 
ATOM      3  C   UNL     1      33.222 -12.917 -26.520  0.00  0.00    +0.015 C 
ATOM      4  C   UNL     1      33.440 -15.200 -24.933  0.00  0.00    +0.008 C 
ATOM      5  C   UNL     1      33.001 -14.176 -27.077  0.00  0.00    +0.001 C 
ATOM      6  C   UNL     1      33.110 -15.319 -26.284  0.00  0.00    +0.001 C 
ENDROOT
BRANCH   1   7
ATOM      7  N   UNL     1      33.772 -11.490 -24.635  0.00  0.00    -0.311 N 
ATOM      8  N   UNL     1      34.115  -8.786 -23.786  0.00  0.00    +0.386 N 
ATOM      9  C   UNL     1      34.770 -10.634 -25.290  0.00  0.00    +0.067 C 
ATOM     10  C   UNL     1      32.674 -10.787 -23.961  0.00  0.00    +0.067 C 
ATOM     11  C   UNL     1      35.242  -9.536 -24.336  0.00  0.00    -0.060 C 
ATOM     12  C   UNL     1      33.222  -9.684 -23.056  0.00  0.00    -0.060 C 
ATOM     13  H   UNL     1      33.600  -8.345 -24.548  0.00  0.00    -0.084 HD
ATOM     14  H   UNL     1      34.468  -8.074 -23.148  0.00  0.00    -0.084 HD
ENDBRANCH   1   7
BRANCH   2  15
ATOM     15  S   UNL     1      34.081 -13.850 -22.639  0.00  0.00    -0.086 S 
BRANCH  15  16
ATOM     16  C   UNL     1      34.322 -15.578 -22.256  0.00  0.00    +0.026 C 
ATOM     17  C   UNL     1      33.564 -16.227 -21.277  0.00  0.00    -0.016 C 
ATOM     18  C   UNL     1      35.296 -16.285 -22.962  0.00  0.00    +0.006 C 
ATOM     19  C   UNL     1      33.782 -17.578 -21.007  0.00  0.00    -0.008 C 
ATOM     20  C   UNL     1      34.756 -18.283 -21.714  0.00  0.00    -0.022 C 
ATOM     21  C   UNL     1      35.513 -17.636 -22.692  0.00  0.00    -0.004 C 
ATOM     22  C   UNL     1      32.509 -15.514 -20.493  0.00  0.00    +0.032 C 
ATOM     23  C   UNL     1      34.989 -19.728 -21.425  0.00  0.00    +0.031 C 
ENDBRANCH  15  16
ENDBRANCH   2  15
TORSDOF 3
ENDMDL
MODEL 7
REMARK VINA RESULT:      -8.5     13.934     16.441
REMARK  Name = 9966051
REMARK  3 active torsions:
REMARK  status: ('A' for Active; 'I' for Inactive)
REMARK    1  A    between atoms: C_1  and  N_7
REMARK    2  A    between atoms: C_2  and  S_15
REMARK    3  A    between atoms: S_15  and  C_16
REMARK                            x       y       z     vdW  Elec       q    Type
REMARK                         _______ _______ _______ _____ _____    ______ ____
ROOT
ATOM      1  C   UNL     1      33.012 -23.512 -15.909  0.00  0.00    +0.054 C 
ATOM      2  C   UNL     1      34.309 -23.494 -15.351  0.00  0.00    +0.043 C 
ATOM      3  C   UNL     1      32.857 -23.043 -17.229  0.00  0.00    +0.015 C 
ATOM      4  C   UNL     1      35.400 -23.027 -16.083  0.00  0.00    +0.008 C 
ATOM      5  C   UNL     1      33.948 -22.576 -17.961  0.00  0.00    +0.001 C 
ATOM      6  C   UNL     1      35.220 -22.568 -17.389  0.00  0.00    +0.001 C 
ENDROOT
BRANCH   1   7
ATOM      7  N   UNL     1      31.893 -23.973 -15.204  0.00  0.00    -0.311 N 
ATOM      8  N   UNL     1      29.493 -24.697 -13.840  0.00  0.00    +0.386 N 
ATOM      9  C   UNL     1      31.462 -23.216 -14.021  0.00  0.00    +0.067 C 
ATOM     10  C   UNL     1      30.836 -24.700 -15.915  0.00  0.00    +0.067 C 
ATOM     11  C   UNL     1      30.604 -24.092 -13.108  0.00  0.00    -0.060 C 
ATOM     12  C   UNL     1      30.001 -25.523 -14.934  0.00  0.00    -0.060 C 
ATOM     13  H   UNL     1      28.900 -23.960 -14.221  0.00  0.00    -0.084 HD
ATOM     14  H   UNL     1      28.953 -25.282 -13.203  0.00  0.00    -0.084 HD
ENDBRANCH   1   7
BRANCH   2  15
ATOM     15  S   UNL     1      34.600 -24.071 -13.682  0.00  0.00    -0.086 S 
BRANCH  15  16
ATOM     16  C   UNL     1      36.288 -24.639 -13.806  0.00  0.00    +0.026 C 
ATOM     17  C   UNL     1      37.302 -24.116 -13.000  0.00  0.00    -0.016 C 
ATOM     18  C   UNL     1      36.586 -25.634 -14.739  0.00  0.00    +0.006 C 
ATOM     19  C   UNL     1      38.609 -24.587 -13.128  0.00  0.00    -0.008 C 
ATOM     20  C   UNL     1      38.905 -25.580 -14.060  0.00  0.00    -0.022 C 
ATOM     21  C   UNL     1      37.893 -26.104 -14.866  0.00  0.00    -0.004 C 
ATOM     22  C   UNL     1      37.035 -23.049 -11.987  0.00  0.00    +0.032 C 
ATOM     23  C   UNL     1      40.302 -26.084 -14.198  0.00  0.00    +0.031 C 
ENDBRANCH  15  16
ENDBRANCH   2  15
TORSDOF 3
ENDMDL
MODEL 8
REMARK VINA RESULT:      -8.5      2.660      6.980
REMARK  Name = 9966051
REMARK  3 active torsions:
REMARK  status: ('A' for Active; 'I' for Inactive)
REMARK    1  A    between atoms: C_1  and  N_7
REMARK    2  A    between atoms: C_2  and  S_15
REMARK    3  A    between atoms: S_15  and  C_16
REMARK                            x       y       z     vdW  Elec       q    Type
REMARK                         _______ _______ _______ _____ _____    ______ ____
ROOT
ATOM      1  C   UNL     1      32.422 -12.094 -21.733  0.00  0.00    +0.054 C 
ATOM      2  C   UNL     1      32.446 -10.736 -22.122  0.00  0.00    +0.043 C 
ATOM      3  C   UNL     1      31.878 -12.406 -20.470  0.00  0.00    +0.015 C 
ATOM      4  C   UNL     1      31.948  -9.739 -21.284  0.00  0.00    +0.008 C 
ATOM      5  C   UNL     1      31.381 -11.409 -19.632  0.00  0.00    +0.001 C 
ATOM      6  C   UNL     1      31.416 -10.075 -20.038  0.00  0.00    +0.001 C 
ENDROOT
BRANCH   1   7
ATOM      7  N   UNL     1      32.912 -13.121 -22.547  0.00  0.00    -0.311 N 
ATOM      8  N   UNL     1      33.749 -15.375 -24.086  0.00  0.00    +0.386 N 
ATOM      9  C   UNL     1      33.655 -14.215 -21.906  0.00  0.00    +0.067 C 
ATOM     10  C   UNL     1      32.202 -13.472 -23.782  0.00  0.00    +0.067 C 
ATOM     11  C   UNL     1      34.530 -14.939 -22.930  0.00  0.00    -0.060 C 
ATOM     12  C   UNL     1      33.129 -14.223 -24.737  0.00  0.00    -0.060 C 
ATOM     13  H   UNL     1      33.022 -16.020 -23.777  0.00  0.00    -0.084 HD
ATOM     14  H   UNL     1      34.367 -15.841 -24.750  0.00  0.00    -0.084 HD
ENDBRANCH   1   7
BRANCH   2  15
ATOM     15  S   UNL     1      33.117 -10.247 -23.707  0.00  0.00    -0.086 S 
BRANCH  15  16
ATOM     16  C   UNL     1      32.555  -8.555 -23.807  0.00  0.00    +0.026 C 
ATOM     17  C   UNL     1      33.438  -7.478 -23.687  0.00  0.00    -0.016 C 
ATOM     18  C   UNL     1      31.195  -8.318 -24.012  0.00  0.00    +0.006 C 
ATOM     19  C   UNL     1      32.959  -6.170 -23.772  0.00  0.00    -0.008 C 
ATOM     20  C   UNL     1      31.600  -5.936 -23.976  0.00  0.00    -0.022 C 
ATOM     21  C   UNL     1      30.717  -7.010 -24.096  0.00  0.00    -0.004 C 
ATOM     22  C   UNL     1      34.903  -7.678 -23.467  0.00  0.00    +0.032 C 
ATOM     23  C   UNL     1      31.088  -4.538 -24.066  0.00  0.00    +0.031 C 
ENDBRANCH  15  16
ENDBRANCH   2  15
TORSDOF 3
ENDMDL
MODEL 9
REMARK VINA RESULT:      -8.5      4.802      7.316
REMARK  Name = 9966051
REMARK  3 active torsions:
REMARK  status: ('A' for Active; 'I' for Inactive)
REMARK    1  A    between atoms: C_1  and  N_7
REMARK    2  A    between atoms: C_2  and  S_15
REMARK    3  A    between atoms: S_15  and  C_16
REMARK                            x       y       z     vdW  Elec       q    Type
REMARK                         _______ _______ _______ _____ _____    ______ ____
ROOT
ATOM      1  C   UNL     1      33.153 -14.562 -22.811  0.00  0.00    +0.054 C 
ATOM      2  C   UNL     1      33.804 -15.617 -22.134  0.00  0.00    +0.043 C 
ATOM      3  C   UNL     1      32.416 -13.641 -22.040  0.00  0.00    +0.015 C 
ATOM      4  C   UNL     1      33.719 -15.741 -20.747  0.00  0.00    +0.008 C 
ATOM      5  C   UNL     1      32.332 -13.765 -20.653  0.00  0.00    +0.001 C 
ATOM      6  C   UNL     1      32.983 -14.816 -20.006  0.00  0.00    +0.001 C 
ENDROOT
BRANCH   1   7
ATOM      7  N   UNL     1      33.215 -14.405 -24.201  0.00  0.00    -0.311 N 
ATOM      8  N   UNL     1      33.598 -14.075 -27.010  0.00  0.00    +0.386 N 
ATOM      9  C   UNL     1      33.727 -13.133 -24.730  0.00  0.00    +0.067 C 
ATOM     10  C   UNL     1      33.421 -15.578 -25.057  0.00  0.00    +0.067 C 
ATOM     11  C   UNL     1      33.261 -12.927 -26.171  0.00  0.00    -0.060 C 
ATOM     12  C   UNL     1      32.966 -15.284 -26.486  0.00  0.00    -0.060 C 
ATOM     13  H   UNL     1      34.611 -14.201 -27.018  0.00  0.00    -0.084 HD
ATOM     14  H   UNL     1      33.262 -13.907 -27.958  0.00  0.00    -0.084 HD
ENDBRANCH   1   7
BRANCH   2  15
ATOM     15  S   UNL     1      34.761 -16.833 -23.032  0.00  0.00    -0.086 S 
BRANCH  15  16
ATOM     16  C   UNL     1      34.580 -18.259 -21.973  0.00  0.00    +0.026 C 
ATOM     17  C   UNL     1      35.685 -18.982 -21.517  0.00  0.00    -0.016 C 
ATOM     18  C   UNL     1      33.293 -18.649 -21.599  0.00  0.00    +0.006 C 
ATOM     19  C   UNL     1      35.502 -20.091 -20.690  0.00  0.00    -0.008 C 
ATOM     20  C   UNL     1      34.215 -20.479 -20.318  0.00  0.00    -0.022 C 
ATOM     21  C   UNL     1      33.110 -19.758 -20.773  0.00  0.00    -0.004 C 
ATOM     22  C   UNL     1      37.084 -18.605 -21.888  0.00  0.00    +0.032 C 
ATOM     23  C   UNL     1      34.019 -21.665 -19.435  0.00  0.00    +0.031 C 
ENDBRANCH  15  16
ENDBRANCH   2  15
TORSDOF 3
ENDMDL
