MODEL 1
REMARK VINA RESULT:      -5.8      0.000      0.000
REMARK  Name = 3366
REMARK  1 active torsions:
REMARK  status: ('A' for Active; 'I' for Inactive)
REMARK    1  A    between atoms: C_5  and  N_10
REMARK                            x       y       z     vdW  Elec       q    Type
REMARK                         _______ _______ _______ _____ _____    ______ ____
ROOT
ATOM      1  F   UNL     1      38.697 -24.481 -11.814  0.00  0.00    -0.204 F 
ATOM      2  O   UNL     1      36.796 -27.249 -15.967  0.00  0.00    -0.206 OA
ATOM      3  N   UNL     1      36.459 -26.362 -13.895  0.00  0.00    -0.244 N 
ATOM      4  N   UNL     1      38.546 -26.113 -15.028  0.00  0.00    -0.160 NA
ATOM      5  C   UNL     1      36.880 -25.657 -12.785  0.00  0.00    +0.187 C 
ATOM      6  C   UNL     1      38.132 -25.186 -12.808  0.00  0.00    +0.171 C 
ATOM      7  C   UNL     1      37.251 -26.608 -15.018  0.00  0.00    +0.214 C 
ATOM      8  C   UNL     1      38.950 -25.451 -13.994  0.00  0.00    +0.140 C 
ATOM      9  H   UNL     1      35.541 -26.716 -13.894  0.00  0.00    +0.161 HD
ENDROOT
BRANCH   5  10
ATOM     10  N   UNL     1      36.043 -25.462 -11.723  0.00  0.00    -0.301 NA
ATOM     11  H   UNL     1      36.227 -24.743 -11.076  0.00  0.00    +0.121 HD
ATOM     12  H   UNL     1      35.256 -26.042 -11.604  0.00  0.00    +0.121 HD
ENDBRANCH   5  10
TORSDOF 1
ENDMDL
MODEL 2
REMARK VINA RESULT:      -5.6      2.357      2.626
REMARK  Name = 3366
REMARK  1 active torsions:
REMARK  status: ('A' for Active; 'I' for Inactive)
REMARK    1  A    between atoms: C_5  and  N_10
REMARK                            x       y       z     vdW  Elec       q    Type
REMARK                         _______ _______ _______ _____ _____    ______ ____
ROOT
ATOM      1  F   UNL     1      35.875 -24.445 -13.869  0.00  0.00    -0.204 F 
ATOM      2  O   UNL     1      41.024 -25.758 -14.400  0.00  0.00    -0.206 OA
ATOM      3  N   UNL     1      39.029 -26.073 -13.345  0.00  0.00    -0.244 N 
ATOM      4  N   UNL     1      39.268 -24.466 -15.093  0.00  0.00    -0.160 NA
ATOM      5  C   UNL     1      37.692 -25.787 -13.148  0.00  0.00    +0.187 C 
ATOM      6  C   UNL     1      37.156 -24.842 -13.929  0.00  0.00    +0.171 C 
ATOM      7  C   UNL     1      39.838 -25.442 -14.292  0.00  0.00    +0.214 C 
ATOM      8  C   UNL     1      38.018 -24.191 -14.919  0.00  0.00    +0.140 C 
ATOM      9  H   UNL     1      39.439 -26.766 -12.778  0.00  0.00    +0.161 HD
ENDROOT
BRANCH   5  10
ATOM     10  N   UNL     1      36.969 -26.449 -12.196  0.00  0.00    -0.301 NA
ATOM     11  H   UNL     1      37.430 -26.992 -11.517  0.00  0.00    +0.121 HD
ATOM     12  H   UNL     1      35.987 -26.385 -12.192  0.00  0.00    +0.121 HD
ENDBRANCH   5  10
TORSDOF 1
ENDMDL
MODEL 3
REMARK VINA RESULT:      -5.6      2.332      3.078
REMARK  Name = 3366
REMARK  1 active torsions:
REMARK  status: ('A' for Active; 'I' for Inactive)
REMARK    1  A    between atoms: C_5  and  N_10
REMARK                            x       y       z     vdW  Elec       q    Type
REMARK                         _______ _______ _______ _____ _____    ______ ____
ROOT
ATOM      1  F   UNL     1      39.718 -25.749 -15.440  0.00  0.00    -0.204 F 
ATOM      2  O   UNL     1      36.089 -25.536 -11.528  0.00  0.00    -0.206 OA
ATOM      3  N   UNL     1      36.653 -26.207 -13.631  0.00  0.00    -0.244 N 
ATOM      4  N   UNL     1      38.192 -25.006 -12.257  0.00  0.00    -0.160 NA
ATOM      5  C   UNL     1      37.537 -26.301 -14.687  0.00  0.00    +0.187 C 
ATOM      6  C   UNL     1      38.742 -25.746 -14.517  0.00  0.00    +0.171 C 
ATOM      7  C   UNL     1      36.939 -25.576 -12.419  0.00  0.00    +0.214 C 
ATOM      8  C   UNL     1      39.028 -25.089 -13.239  0.00  0.00    +0.140 C 
ATOM      9  H   UNL     1      35.762 -26.610 -13.740  0.00  0.00    +0.161 HD
ENDROOT
BRANCH   5  10
ATOM     10  N   UNL     1      37.179 -26.935 -15.844  0.00  0.00    -0.301 NA
ATOM     11  H   UNL     1      36.893 -26.409 -16.625  0.00  0.00    +0.121 HD
ATOM     12  H   UNL     1      37.205 -27.918 -15.894  0.00  0.00    +0.121 HD
ENDBRANCH   5  10
TORSDOF 1
ENDMDL
MODEL 4
REMARK VINA RESULT:      -5.5      2.662      3.078
REMARK  Name = 3366
REMARK  1 active torsions:
REMARK  status: ('A' for Active; 'I' for Inactive)
REMARK    1  A    between atoms: C_5  and  N_10
REMARK                            x       y       z     vdW  Elec       q    Type
REMARK                         _______ _______ _______ _____ _____    ______ ____
ROOT
ATOM      1  F   UNL     1      35.899 -24.942 -13.417  0.00  0.00    -0.204 F 
ATOM      2  O   UNL     1      40.979 -25.584 -14.936  0.00  0.00    -0.206 OA
ATOM      3  N   UNL     1      38.918 -24.698 -15.340  0.00  0.00    -0.244 N 
ATOM      4  N   UNL     1      39.343 -26.017 -13.397  0.00  0.00    -0.160 NA
ATOM      5  C   UNL     1      37.593 -24.490 -15.015  0.00  0.00    +0.187 C 
ATOM      6  C   UNL     1      37.156 -25.047 -13.880  0.00  0.00    +0.171 C 
ATOM      7  C   UNL     1      39.811 -25.446 -14.569  0.00  0.00    +0.214 C 
ATOM      8  C   UNL     1      38.104 -25.828 -13.081  0.00  0.00    +0.140 C 
ATOM      9  H   UNL     1      39.257 -24.295 -16.172  0.00  0.00    +0.161 HD
ENDROOT
BRANCH   5  10
ATOM     10  N   UNL     1      36.783 -23.746 -15.826  0.00  0.00    -0.301 NA
ATOM     11  H   UNL     1      36.645 -22.789 -15.640  0.00  0.00    +0.121 HD
ATOM     12  H   UNL     1      36.338 -24.168 -16.596  0.00  0.00    +0.121 HD
ENDBRANCH   5  10
TORSDOF 1
ENDMDL
MODEL 5
REMARK VINA RESULT:      -5.4     12.206     12.770
REMARK  Name = 3366
REMARK  1 active torsions:
REMARK  status: ('A' for Active; 'I' for Inactive)
REMARK    1  A    between atoms: C_5  and  N_10
REMARK                            x       y       z     vdW  Elec       q    Type
REMARK                         _______ _______ _______ _____ _____    ______ ____
ROOT
ATOM      1  F   UNL     1      34.971 -19.583 -24.314  0.00  0.00    -0.204 F 
ATOM      2  O   UNL     1      35.059 -16.212 -20.173  0.00  0.00    -0.206 OA
ATOM      3  N   UNL     1      35.092 -16.532 -22.429  0.00  0.00    -0.244 N 
ATOM      4  N   UNL     1      34.958 -18.373 -20.915  0.00  0.00    -0.160 NA
ATOM      5  C   UNL     1      35.075 -17.340 -23.548  0.00  0.00    +0.187 C 
ATOM      6  C   UNL     1      34.998 -18.659 -23.339  0.00  0.00    +0.171 C 
ATOM      7  C   UNL     1      35.037 -17.004 -21.116  0.00  0.00    +0.214 C 
ATOM      8  C   UNL     1      34.940 -19.139 -21.956  0.00  0.00    +0.140 C 
ATOM      9  H   UNL     1      35.148 -15.559 -22.565  0.00  0.00    +0.161 HD
ENDROOT
BRANCH   5  10
ATOM     10  N   UNL     1      35.135 -16.799 -24.801  0.00  0.00    -0.301 NA
ATOM     11  H   UNL     1      35.498 -15.893 -24.929  0.00  0.00    +0.121 HD
ATOM     12  H   UNL     1      34.812 -17.315 -25.576  0.00  0.00    +0.121 HD
ENDBRANCH   5  10
TORSDOF 1
ENDMDL
MODEL 6
REMARK VINA RESULT:      -5.4      3.294      3.971
REMARK  Name = 3366
REMARK  1 active torsions:
REMARK  status: ('A' for Active; 'I' for Inactive)
REMARK    1  A    between atoms: C_5  and  N_10
REMARK                            x       y       z     vdW  Elec       q    Type
REMARK                         _______ _______ _______ _____ _____    ______ ____
ROOT
ATOM      1  F   UNL     1      36.818 -24.914 -15.036  0.00  0.00    -0.204 F 
ATOM      2  O   UNL     1      35.350 -24.414  -9.925  0.00  0.00    -0.206 OA
ATOM      3  N   UNL     1      35.212 -23.674 -12.076  0.00  0.00    -0.244 N 
ATOM      4  N   UNL     1      36.576 -25.544 -11.492  0.00  0.00    -0.160 NA
ATOM      5  C   UNL     1      35.546 -23.740 -13.414  0.00  0.00    +0.187 C 
ATOM      6  C   UNL     1      36.392 -24.709 -13.779  0.00  0.00    +0.171 C 
ATOM      7  C   UNL     1      35.700 -24.545 -11.100  0.00  0.00    +0.214 C 
ATOM      8  C   UNL     1      36.895 -25.616 -12.742  0.00  0.00    +0.140 C 
ATOM      9  H   UNL     1      34.590 -22.967 -11.792  0.00  0.00    +0.161 HD
ENDROOT
BRANCH   5  10
ATOM     10  N   UNL     1      35.025 -22.847 -14.309  0.00  0.00    -0.301 NA
ATOM     11  H   UNL     1      34.945 -21.897 -14.065  0.00  0.00    +0.121 HD
ATOM     12  H   UNL     1      34.729 -23.156 -15.195  0.00  0.00    +0.121 HD
ENDBRANCH   5  10
TORSDOF 1
ENDMDL
MODEL 7
REMARK VINA RESULT:      -5.4      7.986      8.401
REMARK  Name = 3366
REMARK  1 active torsions:
REMARK  status: ('A' for Active; 'I' for Inactive)
REMARK    1  A    between atoms: C_5  and  N_10
REMARK                            x       y       z     vdW  Elec       q    Type
REMARK                         _______ _______ _______ _____ _____    ______ ____
ROOT
ATOM      1  F   UNL     1      35.198 -19.583 -20.885  0.00  0.00    -0.204 F 
ATOM      2  O   UNL     1      33.551 -23.657 -17.850  0.00  0.00    -0.206 OA
ATOM      3  N   UNL     1      33.038 -21.946 -19.265  0.00  0.00    -0.244 N 
ATOM      4  N   UNL     1      35.295 -22.405 -18.640  0.00  0.00    -0.160 NA
ATOM      5  C   UNL     1      33.387 -20.879 -20.068  0.00  0.00    +0.187 C 
ATOM      6  C   UNL     1      34.689 -20.586 -20.150  0.00  0.00    +0.171 C 
ATOM      7  C   UNL     1      33.949 -22.721 -18.546  0.00  0.00    +0.214 C 
ATOM      8  C   UNL     1      35.634 -21.409 -19.390  0.00  0.00    +0.140 C 
ATOM      9  H   UNL     1      32.083 -22.176 -19.194  0.00  0.00    +0.161 HD
ENDROOT
BRANCH   5  10
ATOM     10  N   UNL     1      32.432 -20.168 -20.739  0.00  0.00    -0.301 NA
ATOM     11  H   UNL     1      32.513 -20.030 -21.710  0.00  0.00    +0.121 HD
ATOM     12  H   UNL     1      31.663 -19.794 -20.251  0.00  0.00    +0.121 HD
ENDBRANCH   5  10
TORSDOF 1
ENDMDL
MODEL 8
REMARK VINA RESULT:      -5.4      8.177      8.603
REMARK  Name = 3366
REMARK  1 active torsions:
REMARK  status: ('A' for Active; 'I' for Inactive)
REMARK    1  A    between atoms: C_5  and  N_10
REMARK                            x       y       z     vdW  Elec       q    Type
REMARK                         _______ _______ _______ _____ _____    ______ ____
ROOT
ATOM      1  F   UNL     1      31.758 -23.156 -14.475  0.00  0.00    -0.204 F 
ATOM      2  O   UNL     1      27.474 -23.821 -17.595  0.00  0.00    -0.206 OA
ATOM      3  N   UNL     1      28.735 -24.530 -15.833  0.00  0.00    -0.244 N 
ATOM      4  N   UNL     1      29.344 -22.599 -17.098  0.00  0.00    -0.160 NA
ATOM      5  C   UNL     1      29.820 -24.424 -14.987  0.00  0.00    +0.187 C 
ATOM      6  C   UNL     1      30.658 -23.404 -15.204  0.00  0.00    +0.171 C 
ATOM      7  C   UNL     1      28.467 -23.651 -16.885  0.00  0.00    +0.214 C 
ATOM      8  C   UNL     1      30.363 -22.489 -16.311  0.00  0.00    +0.140 C 
ATOM      9  H   UNL     1      28.108 -25.275 -15.687  0.00  0.00    +0.161 HD
ENDROOT
BRANCH   5  10
ATOM     10  N   UNL     1      30.012 -25.328 -13.980  0.00  0.00    -0.301 NA
ATOM     11  H   UNL     1      30.691 -25.159 -13.289  0.00  0.00    +0.121 HD
ATOM     12  H   UNL     1      29.471 -26.151 -13.949  0.00  0.00    +0.121 HD
ENDBRANCH   5  10
TORSDOF 1
ENDMDL
MODEL 9
REMARK VINA RESULT:      -5.4      8.391      8.993
REMARK  Name = 3366
REMARK  1 active torsions:
REMARK  status: ('A' for Active; 'I' for Inactive)
REMARK    1  A    between atoms: C_5  and  N_10
REMARK                            x       y       z     vdW  Elec       q    Type
REMARK                         _______ _______ _______ _____ _____    ______ ____
ROOT
ATOM      1  F   UNL     1      34.390 -18.753 -21.154  0.00  0.00    -0.204 F 
ATOM      2  O   UNL     1      33.841 -23.532 -18.833  0.00  0.00    -0.206 OA
ATOM      3  N   UNL     1      35.202 -21.825 -19.487  0.00  0.00    -0.244 N 
ATOM      4  N   UNL     1      32.848 -21.753 -19.874  0.00  0.00    -0.160 NA
ATOM      5  C   UNL     1      35.423 -20.595 -20.074  0.00  0.00    +0.187 C 
ATOM      6  C   UNL     1      34.352 -19.955 -20.555  0.00  0.00    +0.171 C 
ATOM      7  C   UNL     1      33.949 -22.428 -19.371  0.00  0.00    +0.214 C 
ATOM      8  C   UNL     1      33.043 -20.600 -20.425  0.00  0.00    +0.140 C 
ATOM      9  H   UNL     1      35.980 -22.310 -19.128  0.00  0.00    +0.161 HD
ENDROOT
BRANCH   5  10
ATOM     10  N   UNL     1      36.684 -20.074 -20.150  0.00  0.00    -0.301 NA
ATOM     11  H   UNL     1      37.326 -20.432 -20.804  0.00  0.00    +0.121 HD
ATOM     12  H   UNL     1      36.951 -19.342 -19.548  0.00  0.00    +0.121 HD
ENDBRANCH   5  10
TORSDOF 1
ENDMDL
