MODEL 1
REMARK VINA RESULT:      -6.4      0.000      0.000
REMARK  Name = 135
REMARK  3 active torsions:
REMARK  status: ('A' for Active; 'I' for Inactive)
REMARK    1  A    between atoms: C_1  and  C_10
REMARK    2  A    between atoms: C_4  and  O_7
REMARK    3  A    between atoms: C_10  and  O_11
REMARK                            x       y       z     vdW  Elec       q    Type
REMARK                         _______ _______ _______ _____ _____    ______ ____
ROOT
ATOM      1  C   UNL     1      34.105 -21.494 -19.555  0.00  0.00    +0.076 C 
ATOM      2  C   UNL     1      35.500 -21.504 -19.535  0.00  0.00    +0.010 C 
ATOM      3  C   UNL     1      33.424 -20.496 -20.253  0.00  0.00    +0.010 C 
ATOM      4  C   UNL     1      35.532 -19.517 -20.910  0.00  0.00    +0.134 C 
ATOM      5  C   UNL     1      36.213 -20.515 -20.213  0.00  0.00    +0.037 C 
ATOM      6  C   UNL     1      34.138 -19.508 -20.930  0.00  0.00    +0.037 C 
ENDROOT
BRANCH   4   7
ATOM      7  O   UNL     1      36.229 -18.552 -21.570  0.00  0.00    -0.506 OA
ATOM      8  H   UNL     1      36.454 -18.669 -22.472  0.00  0.00    +0.292 HD
ENDBRANCH   4   7
BRANCH   1  10
ATOM      9  O   UNL     1      32.339 -22.340 -18.180  0.00  0.00    -0.245 OA
ATOM     10  C   UNL     1      33.361 -22.525 -18.848  0.00  0.00    +0.338 C 
BRANCH  10  11
ATOM     11  O   UNL     1      33.916 -23.760 -18.998  0.00  0.00    -0.477 OA
ATOM     12  H   UNL     1      33.532 -24.501 -18.575  0.00  0.00    +0.295 HD
ENDBRANCH  10  11
ENDBRANCH   1  10
TORSDOF 3
ENDMDL
MODEL 2
REMARK VINA RESULT:      -6.4      0.008      1.528
REMARK  Name = 135
REMARK  3 active torsions:
REMARK  status: ('A' for Active; 'I' for Inactive)
REMARK    1  A    between atoms: C_1  and  C_10
REMARK    2  A    between atoms: C_4  and  O_7
REMARK    3  A    between atoms: C_10  and  O_11
REMARK                            x       y       z     vdW  Elec       q    Type
REMARK                         _______ _______ _______ _____ _____    ______ ____
ROOT
ATOM      1  C   UNL     1      34.110 -21.493 -19.553  0.00  0.00    +0.076 C 
ATOM      2  C   UNL     1      33.431 -20.494 -20.252  0.00  0.00    +0.010 C 
ATOM      3  C   UNL     1      35.505 -21.503 -19.530  0.00  0.00    +0.010 C 
ATOM      4  C   UNL     1      35.542 -19.517 -20.906  0.00  0.00    +0.134 C 
ATOM      5  C   UNL     1      34.147 -19.507 -20.928  0.00  0.00    +0.037 C 
ATOM      6  C   UNL     1      36.220 -20.514 -20.207  0.00  0.00    +0.037 C 
ENDROOT
BRANCH   4   7
ATOM      7  O   UNL     1      36.240 -18.553 -21.567  0.00  0.00    -0.506 OA
ATOM      8  H   UNL     1      37.034 -18.216 -21.203  0.00  0.00    +0.292 HD
ENDBRANCH   4   7
BRANCH   1  10
ATOM      9  O   UNL     1      32.338 -22.337 -18.185  0.00  0.00    -0.245 OA
ATOM     10  C   UNL     1      33.363 -22.523 -18.849  0.00  0.00    +0.338 C 
BRANCH  10  11
ATOM     11  O   UNL     1      33.918 -23.758 -18.994  0.00  0.00    -0.477 OA
ATOM     12  H   UNL     1      34.084 -24.289 -18.242  0.00  0.00    +0.295 HD
ENDBRANCH  10  11
ENDBRANCH   1  10
TORSDOF 3
ENDMDL
MODEL 3
REMARK VINA RESULT:      -6.4      6.619      7.708
REMARK  Name = 135
REMARK  3 active torsions:
REMARK  status: ('A' for Active; 'I' for Inactive)
REMARK    1  A    between atoms: C_1  and  C_10
REMARK    2  A    between atoms: C_4  and  O_7
REMARK    3  A    between atoms: C_10  and  O_11
REMARK                            x       y       z     vdW  Elec       q    Type
REMARK                         _______ _______ _______ _____ _____    ______ ____
ROOT
ATOM      1  C   UNL     1      29.262 -23.576 -16.080  0.00  0.00    +0.076 C 
ATOM      2  C   UNL     1      30.540 -23.023 -15.998  0.00  0.00    +0.010 C 
ATOM      3  C   UNL     1      28.965 -24.752 -15.392  0.00  0.00    +0.010 C 
ATOM      4  C   UNL     1      31.226 -24.826 -14.542  0.00  0.00    +0.134 C 
ATOM      5  C   UNL     1      31.522 -23.649 -15.229  0.00  0.00    +0.037 C 
ATOM      6  C   UNL     1      29.948 -25.377 -14.623  0.00  0.00    +0.037 C 
ENDROOT
BRANCH   4   7
ATOM      7  O   UNL     1      32.185 -25.436 -13.793  0.00  0.00    -0.506 OA
ATOM      8  H   UNL     1      32.187 -25.335 -12.862  0.00  0.00    +0.292 HD
ENDBRANCH   4   7
BRANCH   1  10
ATOM      9  O   UNL     1      27.955 -21.722 -16.841  0.00  0.00    -0.245 OA
ATOM     10  C   UNL     1      28.239 -22.923 -16.881  0.00  0.00    +0.338 C 
BRANCH  10  11
ATOM     11  O   UNL     1      27.599 -23.792 -17.713  0.00  0.00    -0.477 OA
ATOM     12  H   UNL     1      27.197 -24.563 -17.366  0.00  0.00    +0.295 HD
ENDBRANCH  10  11
ENDBRANCH   1  10
TORSDOF 3
ENDMDL
MODEL 4
REMARK VINA RESULT:      -6.2      1.036      4.357
REMARK  Name = 135
REMARK  3 active torsions:
REMARK  status: ('A' for Active; 'I' for Inactive)
REMARK    1  A    between atoms: C_1  and  C_10
REMARK    2  A    between atoms: C_4  and  O_7
REMARK    3  A    between atoms: C_10  and  O_11
REMARK                            x       y       z     vdW  Elec       q    Type
REMARK                         _______ _______ _______ _____ _____    ______ ____
ROOT
ATOM      1  C   UNL     1      34.701 -19.941 -20.638  0.00  0.00    +0.076 C 
ATOM      2  C   UNL     1      33.413 -20.358 -20.300  0.00  0.00    +0.010 C 
ATOM      3  C   UNL     1      35.808 -20.655 -20.180  0.00  0.00    +0.010 C 
ATOM      4  C   UNL     1      34.341 -22.202 -19.044  0.00  0.00    +0.134 C 
ATOM      5  C   UNL     1      33.234 -21.489 -19.503  0.00  0.00    +0.037 C 
ATOM      6  C   UNL     1      35.628 -21.786 -19.383  0.00  0.00    +0.037 C 
ENDROOT
BRANCH   4   7
ATOM      7  O   UNL     1      34.164 -23.305 -18.265  0.00  0.00    -0.506 OA
ATOM      8  H   UNL     1      33.467 -23.902 -18.450  0.00  0.00    +0.292 HD
ENDBRANCH   4   7
BRANCH   1  10
ATOM      9  O   UNL     1      34.591 -18.675 -22.665  0.00  0.00    -0.245 OA
ATOM     10  C   UNL     1      34.887 -18.763 -21.470  0.00  0.00    +0.338 C 
BRANCH  10  11
ATOM     11  O   UNL     1      35.439 -17.725 -20.782  0.00  0.00    -0.477 OA
ATOM     12  H   UNL     1      35.383 -16.854 -21.122  0.00  0.00    +0.295 HD
ENDBRANCH  10  11
ENDBRANCH   1  10
TORSDOF 3
ENDMDL
MODEL 5
REMARK VINA RESULT:      -6.2      1.029      4.120
REMARK  Name = 135
REMARK  3 active torsions:
REMARK  status: ('A' for Active; 'I' for Inactive)
REMARK    1  A    between atoms: C_1  and  C_10
REMARK    2  A    between atoms: C_4  and  O_7
REMARK    3  A    between atoms: C_10  and  O_11
REMARK                            x       y       z     vdW  Elec       q    Type
REMARK                         _______ _______ _______ _____ _____    ______ ____
ROOT
ATOM      1  C   UNL     1      34.687 -19.863 -20.684  0.00  0.00    +0.076 C 
ATOM      2  C   UNL     1      35.793 -20.597 -20.256  0.00  0.00    +0.010 C 
ATOM      3  C   UNL     1      33.400 -20.281 -20.347  0.00  0.00    +0.010 C 
ATOM      4  C   UNL     1      34.324 -22.168 -19.154  0.00  0.00    +0.134 C 
ATOM      5  C   UNL     1      35.611 -21.749 -19.491  0.00  0.00    +0.037 C 
ATOM      6  C   UNL     1      33.219 -21.433 -19.582  0.00  0.00    +0.037 C 
ENDROOT
BRANCH   4   7
ATOM      7  O   UNL     1      34.148 -23.293 -18.408  0.00  0.00    -0.506 OA
ATOM      8  H   UNL     1      34.413 -23.306 -17.510  0.00  0.00    +0.292 HD
ENDBRANCH   4   7
BRANCH   1  10
ATOM      9  O   UNL     1      34.622 -18.554 -22.686  0.00  0.00    -0.245 OA
ATOM     10  C   UNL     1      34.877 -18.662 -21.482  0.00  0.00    +0.338 C 
BRANCH  10  11
ATOM     11  O   UNL     1      35.379 -17.628 -20.752  0.00  0.00    -0.477 OA
ATOM     12  H   UNL     1      35.172 -16.745 -20.985  0.00  0.00    +0.295 HD
ENDBRANCH  10  11
ENDBRANCH   1  10
TORSDOF 3
ENDMDL
MODEL 6
REMARK VINA RESULT:      -6.2      1.122      1.428
REMARK  Name = 135
REMARK  3 active torsions:
REMARK  status: ('A' for Active; 'I' for Inactive)
REMARK    1  A    between atoms: C_1  and  C_10
REMARK    2  A    between atoms: C_4  and  O_7
REMARK    3  A    between atoms: C_10  and  O_11
REMARK                            x       y       z     vdW  Elec       q    Type
REMARK                         _______ _______ _______ _____ _____    ______ ____
ROOT
ATOM      1  C   UNL     1      34.481 -21.449 -19.528  0.00  0.00    +0.076 C 
ATOM      2  C   UNL     1      35.659 -20.847 -19.974  0.00  0.00    +0.010 C 
ATOM      3  C   UNL     1      33.245 -20.960 -19.952  0.00  0.00    +0.010 C 
ATOM      4  C   UNL     1      34.363 -19.269 -21.266  0.00  0.00    +0.134 C 
ATOM      5  C   UNL     1      35.599 -19.758 -20.843  0.00  0.00    +0.037 C 
ATOM      6  C   UNL     1      33.186 -19.870 -20.821  0.00  0.00    +0.037 C 
ENDROOT
BRANCH   4   7
ATOM      7  O   UNL     1      34.306 -18.205 -22.113  0.00  0.00    -0.506 OA
ATOM      8  H   UNL     1      33.551 -17.651 -22.119  0.00  0.00    +0.292 HD
ENDBRANCH   4   7
BRANCH   1  10
ATOM      9  O   UNL     1      35.368 -22.732 -17.714  0.00  0.00    -0.245 OA
ATOM     10  C   UNL     1      34.544 -22.585 -18.622  0.00  0.00    +0.338 C 
BRANCH  10  11
ATOM     11  O   UNL     1      33.572 -23.505 -18.876  0.00  0.00    -0.477 OA
ATOM     12  H   UNL     1      33.496 -23.883 -19.729  0.00  0.00    +0.295 HD
ENDBRANCH  10  11
ENDBRANCH   1  10
TORSDOF 3
ENDMDL
MODEL 7
REMARK VINA RESULT:      -6.1      7.387      8.851
REMARK  Name = 135
REMARK  3 active torsions:
REMARK  status: ('A' for Active; 'I' for Inactive)
REMARK    1  A    between atoms: C_1  and  C_10
REMARK    2  A    between atoms: C_4  and  O_7
REMARK    3  A    between atoms: C_10  and  O_11
REMARK                            x       y       z     vdW  Elec       q    Type
REMARK                         _______ _______ _______ _____ _____    ______ ____
ROOT
ATOM      1  C   UNL     1      37.418 -24.703 -12.914  0.00  0.00    +0.076 C 
ATOM      2  C   UNL     1      36.283 -24.516 -13.702  0.00  0.00    +0.010 C 
ATOM      3  C   UNL     1      38.331 -25.709 -13.232  0.00  0.00    +0.010 C 
ATOM      4  C   UNL     1      36.971 -26.344 -15.126  0.00  0.00    +0.134 C 
ATOM      5  C   UNL     1      36.060 -25.337 -14.808  0.00  0.00    +0.037 C 
ATOM      6  C   UNL     1      38.106 -26.529 -14.338  0.00  0.00    +0.037 C 
ENDROOT
BRANCH   4   7
ATOM      7  O   UNL     1      36.752 -27.144 -16.204  0.00  0.00    -0.506 OA
ATOM      8  H   UNL     1      37.441 -27.685 -16.535  0.00  0.00    +0.292 HD
ENDBRANCH   4   7
BRANCH   1  10
ATOM      9  O   UNL     1      38.495 -22.947 -11.695  0.00  0.00    -0.245 OA
ATOM     10  C   UNL     1      37.651 -23.847 -11.761  0.00  0.00    +0.338 C 
BRANCH  10  11
ATOM     11  O   UNL     1      36.821 -24.140 -10.722  0.00  0.00    -0.477 OA
ATOM     12  H   UNL     1      36.651 -25.032 -10.494  0.00  0.00    +0.295 HD
ENDBRANCH  10  11
ENDBRANCH   1  10
TORSDOF 3
ENDMDL
MODEL 8
REMARK VINA RESULT:      -6.1      7.446      8.728
REMARK  Name = 135
REMARK  3 active torsions:
REMARK  status: ('A' for Active; 'I' for Inactive)
REMARK    1  A    between atoms: C_1  and  C_10
REMARK    2  A    between atoms: C_4  and  O_7
REMARK    3  A    between atoms: C_10  and  O_11
REMARK                            x       y       z     vdW  Elec       q    Type
REMARK                         _______ _______ _______ _____ _____    ______ ____
ROOT
ATOM      1  C   UNL     1      37.447 -24.699 -12.915  0.00  0.00    +0.076 C 
ATOM      2  C   UNL     1      38.407 -25.640 -13.287  0.00  0.00    +0.010 C 
ATOM      3  C   UNL     1      36.265 -24.581 -13.647  0.00  0.00    +0.010 C 
ATOM      4  C   UNL     1      37.005 -26.343 -15.125  0.00  0.00    +0.134 C 
ATOM      5  C   UNL     1      38.186 -26.462 -14.392  0.00  0.00    +0.037 C 
ATOM      6  C   UNL     1      36.045 -25.404 -14.752  0.00  0.00    +0.037 C 
ENDROOT
BRANCH   4   7
ATOM      7  O   UNL     1      36.790 -27.146 -16.204  0.00  0.00    -0.506 OA
ATOM      8  H   UNL     1      37.515 -27.545 -16.642  0.00  0.00    +0.292 HD
ENDBRANCH   4   7
BRANCH   1  10
ATOM      9  O   UNL     1      38.533 -22.953 -11.691  0.00  0.00    -0.245 OA
ATOM     10  C   UNL     1      37.678 -23.842 -11.763  0.00  0.00    +0.338 C 
BRANCH  10  11
ATOM     11  O   UNL     1      36.832 -24.119 -10.732  0.00  0.00    -0.477 OA
ATOM     12  H   UNL     1      36.834 -24.969 -10.340  0.00  0.00    +0.295 HD
ENDBRANCH  10  11
ENDBRANCH   1  10
TORSDOF 3
ENDMDL
MODEL 9
REMARK VINA RESULT:      -6.1      8.037      9.279
REMARK  Name = 135
REMARK  3 active torsions:
REMARK  status: ('A' for Active; 'I' for Inactive)
REMARK    1  A    between atoms: C_1  and  C_10
REMARK    2  A    between atoms: C_4  and  O_7
REMARK    3  A    between atoms: C_10  and  O_11
REMARK                            x       y       z     vdW  Elec       q    Type
REMARK                         _______ _______ _______ _____ _____    ______ ____
ROOT
ATOM      1  C   UNL     1      38.967 -25.816 -14.161  0.00  0.00    +0.076 C 
ATOM      2  C   UNL     1      38.871 -25.248 -12.890  0.00  0.00    +0.010 C 
ATOM      3  C   UNL     1      37.811 -26.127 -14.876  0.00  0.00    +0.010 C 
ATOM      4  C   UNL     1      36.460 -25.302 -13.050  0.00  0.00    +0.134 C 
ATOM      5  C   UNL     1      37.617 -24.991 -12.335  0.00  0.00    +0.037 C 
ATOM      6  C   UNL     1      36.557 -25.870 -14.320  0.00  0.00    +0.037 C 
ENDROOT
BRANCH   4   7
ATOM      7  O   UNL     1      35.237 -25.052 -12.507  0.00  0.00    -0.506 OA
ATOM      8  H   UNL     1      34.695 -24.377 -12.864  0.00  0.00    +0.292 HD
ENDBRANCH   4   7
BRANCH   1  10
ATOM      9  O   UNL     1      41.248 -26.538 -14.129  0.00  0.00    -0.245 OA
ATOM     10  C   UNL     1      40.275 -26.084 -14.739  0.00  0.00    +0.338 C 
BRANCH  10  11
ATOM     11  O   UNL     1      40.328 -25.777 -16.065  0.00  0.00    -0.477 OA
ATOM     12  H   UNL     1      39.898 -25.011 -16.386  0.00  0.00    +0.295 HD
ENDBRANCH  10  11
ENDBRANCH   1  10
TORSDOF 3
ENDMDL
