MODEL 1
REMARK VINA RESULT:      -6.9      0.000      0.000
REMARK  Name = 9923
REMARK  2 active torsions:
REMARK  status: ('A' for Active; 'I' for Inactive)
REMARK    1  A    between atoms: C_6  and  C_12
REMARK    2  A    between atoms: C_12  and  O_13
REMARK                            x       y       z     vdW  Elec       q    Type
REMARK                         _______ _______ _______ _____ _____    ______ ____
ROOT
ATOM      1  F   UNL     1      35.070 -16.454 -20.388  0.00  0.00    -0.202 F 
ATOM      2  F   UNL     1      34.962 -19.887 -23.666  0.00  0.00    -0.202 F 
ATOM      3  F   UNL     1      34.571 -18.013 -25.608  0.00  0.00    -0.199 F 
ATOM      4  F   UNL     1      34.678 -14.589 -22.338  0.00  0.00    -0.199 F 
ATOM      5  F   UNL     1      34.427 -15.364 -24.948  0.00  0.00    -0.199 F 
ATOM      6  C   UNL     1      35.021 -18.195 -22.002  0.00  0.00    +0.067 A 
ATOM      7  C   UNL     1      34.948 -16.843 -21.665  0.00  0.00    +0.170 A 
ATOM      8  C   UNL     1      34.894 -18.590 -23.333  0.00  0.00    +0.170 A 
ATOM      9  C   UNL     1      34.693 -17.634 -24.329  0.00  0.00    +0.197 A 
ATOM     10  C   UNL     1      34.748 -15.887 -22.661  0.00  0.00    +0.197 A 
ATOM     11  C   UNL     1      34.621 -16.282 -23.992  0.00  0.00    +0.199 A 
ENDROOT
BRANCH   6  12
ATOM     12  C   UNL     1      35.236 -19.217 -20.937  0.00  0.00    +0.168 C 
BRANCH  12  13
ATOM     13  O   UNL     1      36.597 -19.197 -20.529  0.00  0.00    -0.377 OA
ATOM     14  H   UNL     1      37.005 -18.360 -20.800  0.00  0.00    +0.211 HD
ENDBRANCH  12  13
ENDBRANCH   6  12
TORSDOF 2
ENDMDL
MODEL 2
REMARK VINA RESULT:      -6.9      0.090      2.953
REMARK  Name = 9923
REMARK  2 active torsions:
REMARK  status: ('A' for Active; 'I' for Inactive)
REMARK    1  A    between atoms: C_6  and  C_12
REMARK    2  A    between atoms: C_12  and  O_13
REMARK                            x       y       z     vdW  Elec       q    Type
REMARK                         _______ _______ _______ _____ _____    ______ ____
ROOT
ATOM      1  F   UNL     1      34.957 -19.810 -23.720  0.00  0.00    -0.202 F 
ATOM      2  F   UNL     1      35.060 -16.480 -20.336  0.00  0.00    -0.202 F 
ATOM      3  F   UNL     1      34.654 -14.557 -22.225  0.00  0.00    -0.199 F 
ATOM      4  F   UNL     1      34.551 -17.878 -25.599  0.00  0.00    -0.199 F 
ATOM      5  F   UNL     1      34.399 -15.250 -24.857  0.00  0.00    -0.199 F 
ATOM      6  C   UNL     1      35.014 -18.170 -22.003  0.00  0.00    +0.067 A 
ATOM      7  C   UNL     1      34.884 -18.524 -23.346  0.00  0.00    +0.170 A 
ATOM      8  C   UNL     1      34.937 -16.830 -21.624  0.00  0.00    +0.170 A 
ATOM      9  C   UNL     1      34.728 -15.844 -22.588  0.00  0.00    +0.197 A 
ATOM     10  C   UNL     1      34.676 -17.538 -24.310  0.00  0.00    +0.197 A 
ATOM     11  C   UNL     1      34.598 -16.198 -23.931  0.00  0.00    +0.199 A 
ENDROOT
BRANCH   6  12
ATOM     12  C   UNL     1      35.237 -19.225 -20.972  0.00  0.00    +0.168 C 
BRANCH  12  13
ATOM     13  O   UNL     1      36.595 -19.198 -20.554  0.00  0.00    -0.377 OA
ATOM     14  H   UNL     1      36.713 -19.793 -19.798  0.00  0.00    +0.211 HD
ENDBRANCH  12  13
ENDBRANCH   6  12
TORSDOF 2
ENDMDL
MODEL 3
REMARK VINA RESULT:      -6.8      3.374      4.609
REMARK  Name = 9923
REMARK  2 active torsions:
REMARK  status: ('A' for Active; 'I' for Inactive)
REMARK    1  A    between atoms: C_6  and  C_12
REMARK    2  A    between atoms: C_12  and  O_13
REMARK                            x       y       z     vdW  Elec       q    Type
REMARK                         _______ _______ _______ _____ _____    ______ ____
ROOT
ATOM      1  F   UNL     1      36.647 -21.929 -19.043  0.00  0.00    -0.202 F 
ATOM      2  F   UNL     1      32.376 -20.357 -20.399  0.00  0.00    -0.202 F 
ATOM      3  F   UNL     1      33.568 -18.351 -21.808  0.00  0.00    -0.199 F 
ATOM      4  F   UNL     1      37.827 -19.918 -20.455  0.00  0.00    -0.199 F 
ATOM      5  F   UNL     1      36.292 -18.126 -21.839  0.00  0.00    -0.199 F 
ATOM      6  C   UNL     1      34.496 -21.169 -19.703  0.00  0.00    +0.067 A 
ATOM      7  C   UNL     1      35.886 -21.055 -19.718  0.00  0.00    +0.170 A 
ATOM      8  C   UNL     1      33.712 -20.256 -20.408  0.00  0.00    +0.170 A 
ATOM      9  C   UNL     1      34.320 -19.228 -21.130  0.00  0.00    +0.197 A 
ATOM     10  C   UNL     1      36.493 -20.027 -20.441  0.00  0.00    +0.197 A 
ATOM     11  C   UNL     1      35.709 -19.114 -21.146  0.00  0.00    +0.199 A 
ENDROOT
BRANCH   6  12
ATOM     12  C   UNL     1      33.847 -22.268 -18.931  0.00  0.00    +0.168 C 
BRANCH  12  13
ATOM     13  O   UNL     1      34.027 -23.500 -19.618  0.00  0.00    -0.377 OA
ATOM     14  H   UNL     1      34.391 -23.328 -20.501  0.00  0.00    +0.211 HD
ENDBRANCH  12  13
ENDBRANCH   6  12
TORSDOF 2
ENDMDL
MODEL 4
REMARK VINA RESULT:      -6.7      3.411      4.642
REMARK  Name = 9923
REMARK  2 active torsions:
REMARK  status: ('A' for Active; 'I' for Inactive)
REMARK    1  A    between atoms: C_6  and  C_12
REMARK    2  A    between atoms: C_12  and  O_13
REMARK                            x       y       z     vdW  Elec       q    Type
REMARK                         _______ _______ _______ _____ _____    ______ ____
ROOT
ATOM      1  F   UNL     1      32.435 -20.553 -20.272  0.00  0.00    -0.202 F 
ATOM      2  F   UNL     1      36.821 -21.879 -19.027  0.00  0.00    -0.202 F 
ATOM      3  F   UNL     1      37.853 -19.831 -20.500  0.00  0.00    -0.199 F 
ATOM      4  F   UNL     1      33.478 -18.508 -21.742  0.00  0.00    -0.199 F 
ATOM      5  F   UNL     1      36.186 -18.143 -21.860  0.00  0.00    -0.199 F 
ATOM      6  C   UNL     1      34.614 -21.243 -19.630  0.00  0.00    +0.067 A 
ATOM      7  C   UNL     1      33.764 -20.382 -20.324  0.00  0.00    +0.170 A 
ATOM      8  C   UNL     1      35.995 -21.057 -19.690  0.00  0.00    +0.170 A 
ATOM      9  C   UNL     1      36.526 -20.010 -20.443  0.00  0.00    +0.197 A 
ATOM     10  C   UNL     1      34.295 -19.334 -21.077  0.00  0.00    +0.197 A 
ATOM     11  C   UNL     1      35.676 -19.149 -21.136  0.00  0.00    +0.199 A 
ENDROOT
BRANCH   6  12
ATOM     12  C   UNL     1      34.047 -22.363 -18.825  0.00  0.00    +0.168 C 
BRANCH  12  13
ATOM     13  O   UNL     1      34.029 -23.549 -19.610  0.00  0.00    -0.377 OA
ATOM     14  H   UNL     1      34.939 -23.843 -19.773  0.00  0.00    +0.211 HD
ENDBRANCH  12  13
ENDBRANCH   6  12
TORSDOF 2
ENDMDL
MODEL 5
REMARK VINA RESULT:      -6.7      2.290      4.509
REMARK  Name = 9923
REMARK  2 active torsions:
REMARK  status: ('A' for Active; 'I' for Inactive)
REMARK    1  A    between atoms: C_6  and  C_12
REMARK    2  A    between atoms: C_12  and  O_13
REMARK                            x       y       z     vdW  Elec       q    Type
REMARK                         _______ _______ _______ _____ _____    ______ ____
ROOT
ATOM      1  F   UNL     1      33.976 -15.653 -25.725  0.00  0.00    -0.202 F 
ATOM      2  F   UNL     1      34.722 -14.995 -21.083  0.00  0.00    -0.202 F 
ATOM      3  F   UNL     1      35.372 -17.629 -20.819  0.00  0.00    -0.199 F 
ATOM      4  F   UNL     1      34.628 -18.285 -25.450  0.00  0.00    -0.199 F 
ATOM      5  F   UNL     1      35.326 -19.278 -22.999  0.00  0.00    -0.199 F 
ATOM      6  C   UNL     1      34.340 -15.289 -23.408  0.00  0.00    +0.067 A 
ATOM      7  C   UNL     1      34.317 -16.130 -24.520  0.00  0.00    +0.170 A 
ATOM      8  C   UNL     1      34.696 -15.795 -22.158  0.00  0.00    +0.170 A 
ATOM      9  C   UNL     1      35.030 -17.143 -22.020  0.00  0.00    +0.197 A 
ATOM     10  C   UNL     1      34.651 -17.478 -24.382  0.00  0.00    +0.197 A 
ATOM     11  C   UNL     1      35.007 -17.984 -23.132  0.00  0.00    +0.199 A 
ENDROOT
BRANCH   6  12
ATOM     12  C   UNL     1      33.984 -13.848 -23.555  0.00  0.00    +0.168 C 
BRANCH  12  13
ATOM     13  O   UNL     1      32.576 -13.695 -23.435  0.00  0.00    -0.377 OA
ATOM     14  H   UNL     1      32.361 -13.349 -22.555  0.00  0.00    +0.211 HD
ENDBRANCH  12  13
ENDBRANCH   6  12
TORSDOF 2
ENDMDL
MODEL 6
REMARK VINA RESULT:      -6.7      2.283      3.672
REMARK  Name = 9923
REMARK  2 active torsions:
REMARK  status: ('A' for Active; 'I' for Inactive)
REMARK    1  A    between atoms: C_6  and  C_12
REMARK    2  A    between atoms: C_12  and  O_13
REMARK                            x       y       z     vdW  Elec       q    Type
REMARK                         _______ _______ _______ _____ _____    ______ ____
ROOT
ATOM      1  F   UNL     1      34.734 -14.912 -21.125  0.00  0.00    -0.202 F 
ATOM      2  F   UNL     1      33.932 -15.715 -25.735  0.00  0.00    -0.202 F 
ATOM      3  F   UNL     1      34.642 -18.326 -25.398  0.00  0.00    -0.199 F 
ATOM      4  F   UNL     1      35.441 -17.525 -20.799  0.00  0.00    -0.199 F 
ATOM      5  F   UNL     1      35.397 -19.235 -22.933  0.00  0.00    -0.199 F 
ATOM      6  C   UNL     1      34.324 -15.280 -23.434  0.00  0.00    +0.067 A 
ATOM      7  C   UNL     1      34.710 -15.743 -22.177  0.00  0.00    +0.170 A 
ATOM      8  C   UNL     1      34.301 -16.151 -24.523  0.00  0.00    +0.170 A 
ATOM      9  C   UNL     1      34.663 -17.488 -24.353  0.00  0.00    +0.197 A 
ATOM     10  C   UNL     1      35.071 -17.080 -22.007  0.00  0.00    +0.197 A 
ATOM     11  C   UNL     1      35.049 -17.952 -23.095  0.00  0.00    +0.199 A 
ENDROOT
BRANCH   6  12
ATOM     12  C   UNL     1      33.937 -13.851 -23.616  0.00  0.00    +0.168 C 
BRANCH  12  13
ATOM     13  O   UNL     1      32.571 -13.682 -23.259  0.00  0.00    -0.377 OA
ATOM     14  H   UNL     1      32.026 -13.662 -24.060  0.00  0.00    +0.211 HD
ENDBRANCH  12  13
ENDBRANCH   6  12
TORSDOF 2
ENDMDL
MODEL 7
REMARK VINA RESULT:      -6.6      2.575      4.021
REMARK  Name = 9923
REMARK  2 active torsions:
REMARK  status: ('A' for Active; 'I' for Inactive)
REMARK    1  A    between atoms: C_6  and  C_12
REMARK    2  A    between atoms: C_12  and  O_13
REMARK                            x       y       z     vdW  Elec       q    Type
REMARK                         _______ _______ _______ _____ _____    ______ ____
ROOT
ATOM      1  F   UNL     1      32.876 -14.663 -25.034  0.00  0.00    -0.202 F 
ATOM      2  F   UNL     1      35.953 -17.411 -22.683  0.00  0.00    -0.202 F 
ATOM      3  F   UNL     1      35.050 -16.393 -20.321  0.00  0.00    -0.199 F 
ATOM      4  F   UNL     1      31.980 -13.652 -22.666  0.00  0.00    -0.199 F 
ATOM      5  F   UNL     1      33.064 -14.513 -20.308  0.00  0.00    -0.199 F 
ATOM      6  C   UNL     1      34.427 -16.050 -23.889  0.00  0.00    +0.067 A 
ATOM      7  C   UNL     1      33.414 -15.092 -23.883  0.00  0.00    +0.170 A 
ATOM      8  C   UNL     1      34.980 -16.490 -22.687  0.00  0.00    +0.170 A 
ATOM      9  C   UNL     1      34.519 -15.971 -21.477  0.00  0.00    +0.197 A 
ATOM     10  C   UNL     1      32.953 -14.573 -22.672  0.00  0.00    +0.197 A 
ATOM     11  C   UNL     1      33.506 -15.012 -21.470  0.00  0.00    +0.199 A 
ENDROOT
BRANCH   6  12
ATOM     12  C   UNL     1      34.919 -16.606 -25.183  0.00  0.00    +0.168 C 
BRANCH  12  13
ATOM     13  O   UNL     1      34.007 -17.590 -25.653  0.00  0.00    -0.377 OA
ATOM     14  H   UNL     1      33.255 -17.156 -26.084  0.00  0.00    +0.211 HD
ENDBRANCH  12  13
ENDBRANCH   6  12
TORSDOF 2
ENDMDL
MODEL 8
REMARK VINA RESULT:      -6.6      1.753      3.119
REMARK  Name = 9923
REMARK  2 active torsions:
REMARK  status: ('A' for Active; 'I' for Inactive)
REMARK    1  A    between atoms: C_6  and  C_12
REMARK    2  A    between atoms: C_12  and  O_13
REMARK                            x       y       z     vdW  Elec       q    Type
REMARK                         _______ _______ _______ _____ _____    ______ ____
ROOT
ATOM      1  F   UNL     1      34.361 -14.300 -23.578  0.00  0.00    -0.202 F 
ATOM      2  F   UNL     1      34.935 -18.051 -20.725  0.00  0.00    -0.202 F 
ATOM      3  F   UNL     1      34.964 -19.694 -22.899  0.00  0.00    -0.199 F 
ATOM      4  F   UNL     1      34.392 -15.952 -25.746  0.00  0.00    -0.199 F 
ATOM      5  F   UNL     1      34.693 -18.650 -25.412  0.00  0.00    -0.199 F 
ATOM      6  C   UNL     1      34.647 -16.154 -22.123  0.00  0.00    +0.067 A 
ATOM      7  C   UNL     1      34.509 -15.621 -23.404  0.00  0.00    +0.170 A 
ATOM      8  C   UNL     1      34.801 -17.529 -21.952  0.00  0.00    +0.170 A 
ATOM      9  C   UNL     1      34.817 -18.373 -23.063  0.00  0.00    +0.197 A 
ATOM     10  C   UNL     1      34.525 -16.464 -24.516  0.00  0.00    +0.197 A 
ATOM     11  C   UNL     1      34.678 -17.840 -24.345  0.00  0.00    +0.199 A 
ENDROOT
BRANCH   6  12
ATOM     12  C   UNL     1      34.630 -15.252 -20.935  0.00  0.00    +0.168 C 
BRANCH  12  13
ATOM     13  O   UNL     1      33.297 -15.122 -20.458  0.00  0.00    -0.377 OA
ATOM     14  H   UNL     1      33.277 -15.282 -19.502  0.00  0.00    +0.211 HD
ENDBRANCH  12  13
ENDBRANCH   6  12
TORSDOF 2
ENDMDL
MODEL 9
REMARK VINA RESULT:      -6.6      3.804      5.994
REMARK  Name = 9923
REMARK  2 active torsions:
REMARK  status: ('A' for Active; 'I' for Inactive)
REMARK    1  A    between atoms: C_6  and  C_12
REMARK    2  A    between atoms: C_12  and  O_13
REMARK                            x       y       z     vdW  Elec       q    Type
REMARK                         _______ _______ _______ _____ _____    ______ ____
ROOT
ATOM      1  F   UNL     1      32.397 -19.997 -20.756  0.00  0.00    -0.202 F 
ATOM      2  F   UNL     1      37.144 -19.899 -20.740  0.00  0.00    -0.202 F 
ATOM      3  F   UNL     1      37.172 -21.811 -18.797  0.00  0.00    -0.199 F 
ATOM      4  F   UNL     1      32.437 -21.908 -18.812  0.00  0.00    -0.199 F 
ATOM      5  F   UNL     1      34.821 -22.818 -17.829  0.00  0.00    -0.199 F 
ATOM      6  C   UNL     1      34.770 -19.923 -20.773  0.00  0.00    +0.067 A 
ATOM      7  C   UNL     1      33.571 -20.437 -20.280  0.00  0.00    +0.170 A 
ATOM      8  C   UNL     1      35.987 -20.387 -20.272  0.00  0.00    +0.170 A 
ATOM      9  C   UNL     1      36.004 -21.365 -19.278  0.00  0.00    +0.197 A 
ATOM     10  C   UNL     1      33.588 -21.415 -19.286  0.00  0.00    +0.197 A 
ATOM     11  C   UNL     1      34.805 -21.879 -18.785  0.00  0.00    +0.199 A 
ENDROOT
BRANCH   6  12
ATOM     12  C   UNL     1      34.752 -18.877 -21.837  0.00  0.00    +0.168 C 
BRANCH  12  13
ATOM     13  O   UNL     1      34.879 -19.495 -23.111  0.00  0.00    -0.377 OA
ATOM     14  H   UNL     1      34.472 -18.932 -23.786  0.00  0.00    +0.211 HD
ENDBRANCH  12  13
ENDBRANCH   6  12
TORSDOF 2
ENDMDL
