MODEL 1
REMARK VINA RESULT:      -9.3      0.000      0.000
REMARK  Name = 11561674
REMARK  8 active torsions:
REMARK  status: ('A' for Active; 'I' for Inactive)
REMARK    1  A    between atoms: C_1  and  N_4
REMARK    2  A    between atoms: C_1  and  C_18
REMARK    3  A    between atoms: C_1  and  C_29
REMARK    4  A    between atoms: C_9  and  N_14
REMARK    5  A    between atoms: C_21  and  O_26
REMARK    6  A    between atoms: C_23  and  O_24
REMARK    7  A    between atoms: O_26  and  C_27
REMARK    8  A    between atoms: C_29  and  S_30
REMARK                            x       y       z     vdW  Elec       q    Type
REMARK                         _______ _______ _______ _____ _____    ______ ____
ROOT
ATOM      1  C   UNL     1      33.526 -13.624 -24.036  0.00  0.00    +0.129 C 
ENDROOT
BRANCH   1   4
ATOM      2  O   UNL     1      33.850 -10.668 -24.040  0.00  0.00    -0.269 OA
ATOM      3  O   UNL     1      31.811 -14.060 -21.637  0.00  0.00    -0.269 OA
ATOM      4  N   UNL     1      32.992 -12.649 -23.107  0.00  0.00    -0.219 N 
ATOM      5  C   UNL     1      33.215 -11.292 -23.209  0.00  0.00    +0.257 C 
ATOM      6  C   UNL     1      32.207 -12.976 -22.021  0.00  0.00    +0.255 C 
ATOM      7  C   UNL     1      32.513 -10.690 -22.076  0.00  0.00    +0.072 C 
ATOM      8  C   UNL     1      31.904 -11.708 -21.357  0.00  0.00    +0.060 C 
ATOM      9  C   UNL     1      32.410  -9.367 -21.698  0.00  0.00    +0.055 C 
ATOM     10  C   UNL     1      31.158 -11.456 -20.224  0.00  0.00    +0.005 C 
ATOM     11  C   UNL     1      31.659  -9.088 -20.553  0.00  0.00    +0.015 C 
ATOM     12  C   UNL     1      31.039 -10.123 -19.822  0.00  0.00    +0.001 C 
BRANCH   9  14
ATOM     13  O   UNL     1      31.416  -7.775 -24.052  0.00  0.00    -0.275 OA
ATOM     14  N   UNL     1      33.016  -8.335 -22.413  0.00  0.00    -0.284 N 
ATOM     15  C   UNL     1      32.505  -7.624 -23.509  0.00  0.00    +0.227 C 
ATOM     16  C   UNL     1      33.476  -6.579 -24.000  0.00  0.00    +0.095 C 
ATOM     17  H   UNL     1      33.914  -8.071 -22.110  0.00  0.00    +0.155 HD
ENDBRANCH   9  14
ENDBRANCH   1   4
BRANCH   1  18
ATOM     18  C   UNL     1      34.133 -14.795 -23.292  0.00  0.00    +0.001 C 
ATOM     19  C   UNL     1      34.490 -15.930 -23.999  0.00  0.00    +0.037 C 
ATOM     20  C   UNL     1      34.315 -14.703 -21.924  0.00  0.00    +0.001 C 
ATOM     21  C   UNL     1      35.049 -17.009 -23.313  0.00  0.00    +0.172 C 
ATOM     22  C   UNL     1      34.874 -15.781 -21.239  0.00  0.00    +0.040 C 
ATOM     23  C   UNL     1      35.242 -16.935 -21.934  0.00  0.00    +0.172 C 
BRANCH  23  24
ATOM     24  O   UNL     1      35.786 -17.982 -21.253  0.00  0.00    -0.468 OA
ATOM     25  C   UNL     1      34.930 -19.085 -20.966  0.00  0.00    +0.253 C 
ENDBRANCH  23  24
BRANCH  21  26
ATOM     26  O   UNL     1      35.404 -18.129 -24.003  0.00  0.00    -0.472 OA
BRANCH  26  27
ATOM     27  C   UNL     1      34.381 -18.775 -24.760  0.00  0.00    +0.206 C 
ATOM     28  C   UNL     1      34.826 -20.184 -25.089  0.00  0.00    +0.051 C 
ENDBRANCH  26  27
ENDBRANCH  21  26
ENDBRANCH   1  18
BRANCH   1  29
ATOM     29  C   UNL     1      32.457 -14.081 -25.031  0.00  0.00    +0.176 C 
BRANCH  29  30
ATOM     30  S   UNL     1      32.949 -13.819 -26.708  0.00  0.00    -0.006 S 
ATOM     31  O   UNL     1      33.693 -14.985 -27.149  0.00  0.00    -0.173 OA
ATOM     32  O   UNL     1      31.790 -13.355 -27.452  0.00  0.00    -0.173 OA
ATOM     33  C   UNL     1      34.092 -12.463 -26.592  0.00  0.00    +0.176 C 
ENDBRANCH  29  30
ENDBRANCH   1  29
TORSDOF 8
ENDMDL
MODEL 2
REMARK VINA RESULT:      -8.9      1.487      2.856
REMARK  Name = 11561674
REMARK  8 active torsions:
REMARK  status: ('A' for Active; 'I' for Inactive)
REMARK    1  A    between atoms: C_1  and  N_4
REMARK    2  A    between atoms: C_1  and  C_18
REMARK    3  A    between atoms: C_1  and  C_29
REMARK    4  A    between atoms: C_9  and  N_14
REMARK    5  A    between atoms: C_21  and  O_26
REMARK    6  A    between atoms: C_23  and  O_24
REMARK    7  A    between atoms: O_26  and  C_27
REMARK    8  A    between atoms: C_29  and  S_30
REMARK                            x       y       z     vdW  Elec       q    Type
REMARK                         _______ _______ _______ _____ _____    ______ ____
ROOT
ATOM      1  C   UNL     1      33.746 -13.210 -24.637  0.00  0.00    +0.129 C 
ENDROOT
BRANCH   1   4
ATOM      2  O   UNL     1      32.024 -12.205 -22.430  0.00  0.00    -0.269 OA
ATOM      3  O   UNL     1      35.259 -10.760 -25.411  0.00  0.00    -0.269 OA
ATOM      4  N   UNL     1      33.661 -11.872 -24.086  0.00  0.00    -0.219 N 
ATOM      5  C   UNL     1      32.814 -11.521 -23.055  0.00  0.00    +0.257 C 
ATOM      6  C   UNL     1      34.417 -10.810 -24.534  0.00  0.00    +0.255 C 
ATOM      7  C   UNL     1      33.042 -10.095 -22.825  0.00  0.00    +0.072 C 
ATOM      8  C   UNL     1      34.010  -9.664 -23.720  0.00  0.00    +0.060 C 
ATOM      9  C   UNL     1      32.457  -9.238 -21.915  0.00  0.00    +0.055 C 
ATOM     10  C   UNL     1      34.446  -8.355 -23.750  0.00  0.00    +0.005 C 
ATOM     11  C   UNL     1      32.883  -7.907 -21.928  0.00  0.00    +0.015 C 
ATOM     12  C   UNL     1      33.868  -7.470 -22.836  0.00  0.00    +0.001 C 
BRANCH   9  14
ATOM     13  O   UNL     1      32.669  -9.906 -18.987  0.00  0.00    -0.275 OA
ATOM     14  N   UNL     1      31.484  -9.659 -21.011  0.00  0.00    -0.284 N 
ATOM     15  C   UNL     1      31.638  -9.960 -19.649  0.00  0.00    +0.227 C 
ATOM     16  C   UNL     1      30.335 -10.381 -19.017  0.00  0.00    +0.095 C 
ATOM     17  H   UNL     1      30.573  -9.757 -21.372  0.00  0.00    +0.155 HD
ENDBRANCH   9  14
ENDBRANCH   1   4
BRANCH   1  18
ATOM     18  C   UNL     1      34.163 -14.201 -23.571  0.00  0.00    +0.001 C 
ATOM     19  C   UNL     1      34.573 -15.467 -23.951  0.00  0.00    +0.037 C 
ATOM     20  C   UNL     1      34.122 -13.818 -22.242  0.00  0.00    +0.001 C 
ATOM     21  C   UNL     1      34.958 -16.380 -22.968  0.00  0.00    +0.172 C 
ATOM     22  C   UNL     1      34.507 -14.732 -21.260  0.00  0.00    +0.040 C 
ATOM     23  C   UNL     1      34.925 -16.012 -21.623  0.00  0.00    +0.172 C 
BRANCH  23  24
ATOM     24  O   UNL     1      35.297 -16.895 -20.655  0.00  0.00    -0.468 OA
ATOM     25  C   UNL     1      34.991 -18.270 -20.878  0.00  0.00    +0.253 C 
ENDBRANCH  23  24
BRANCH  21  26
ATOM     26  O   UNL     1      35.364 -17.627 -23.336  0.00  0.00    -0.472 OA
BRANCH  26  27
ATOM     27  C   UNL     1      34.859 -18.136 -24.569  0.00  0.00    +0.206 C 
ATOM     28  C   UNL     1      34.788 -19.646 -24.488  0.00  0.00    +0.051 C 
ENDBRANCH  26  27
ENDBRANCH  21  26
ENDBRANCH   1  18
BRANCH   1  29
ATOM     29  C   UNL     1      32.430 -13.617 -25.301  0.00  0.00    +0.176 C 
BRANCH  29  30
ATOM     30  S   UNL     1      32.657 -14.118 -26.981  0.00  0.00    -0.006 S 
ATOM     31  O   UNL     1      33.027 -15.523 -26.989  0.00  0.00    -0.173 OA
ATOM     32  O   UNL     1      31.518 -13.648 -27.751  0.00  0.00    -0.173 OA
ATOM     33  C   UNL     1      34.078 -13.184 -27.498  0.00  0.00    +0.176 C 
ENDBRANCH  29  30
ENDBRANCH   1  29
TORSDOF 8
ENDMDL
MODEL 3
REMARK VINA RESULT:      -8.4      3.732      9.175
REMARK  Name = 11561674
REMARK  8 active torsions:
REMARK  status: ('A' for Active; 'I' for Inactive)
REMARK    1  A    between atoms: C_1  and  N_4
REMARK    2  A    between atoms: C_1  and  C_18
REMARK    3  A    between atoms: C_1  and  C_29
REMARK    4  A    between atoms: C_9  and  N_14
REMARK    5  A    between atoms: C_21  and  O_26
REMARK    6  A    between atoms: C_23  and  O_24
REMARK    7  A    between atoms: O_26  and  C_27
REMARK    8  A    between atoms: C_29  and  S_30
REMARK                            x       y       z     vdW  Elec       q    Type
REMARK                         _______ _______ _______ _____ _____    ______ ____
ROOT
ATOM      1  C   UNL     1      32.492  -8.921 -21.787  0.00  0.00    +0.129 C 
ENDROOT
BRANCH   1   4
ATOM      2  O   UNL     1      32.217 -11.467 -23.298  0.00  0.00    -0.269 OA
ATOM      3  O   UNL     1      34.677  -7.544 -23.277  0.00  0.00    -0.269 OA
ATOM      4  N   UNL     1      33.234  -9.377 -22.945  0.00  0.00    -0.219 N 
ATOM      5  C   UNL     1      33.018 -10.590 -23.564  0.00  0.00    +0.257 C 
ATOM      6  C   UNL     1      34.235  -8.645 -23.549  0.00  0.00    +0.255 C 
ATOM      7  C   UNL     1      33.978 -10.647 -24.666  0.00  0.00    +0.072 C 
ATOM      8  C   UNL     1      34.714  -9.471 -24.657  0.00  0.00    +0.060 C 
ATOM      9  C   UNL     1      34.196 -11.638 -25.602  0.00  0.00    +0.055 C 
ATOM     10  C   UNL     1      35.706  -9.224 -25.584  0.00  0.00    +0.005 C 
ATOM     11  C   UNL     1      35.196 -11.408 -26.551  0.00  0.00    +0.015 C 
ATOM     12  C   UNL     1      35.944 -10.213 -26.542  0.00  0.00    +0.001 C 
BRANCH   9  14
ATOM     13  O   UNL     1      33.828 -13.670 -27.792  0.00  0.00    -0.275 OA
ATOM     14  N   UNL     1      33.462 -12.822 -25.622  0.00  0.00    -0.284 N 
ATOM     15  C   UNL     1      33.323 -13.737 -26.676  0.00  0.00    +0.227 C 
ATOM     16  C   UNL     1      32.440 -14.899 -26.296  0.00  0.00    +0.095 C 
ATOM     17  H   UNL     1      32.982 -13.046 -24.792  0.00  0.00    +0.155 HD
ENDBRANCH   9  14
ENDBRANCH   1   4
BRANCH   1  18
ATOM     18  C   UNL     1      31.923  -7.538 -22.026  0.00  0.00    +0.001 C 
ATOM     19  C   UNL     1      31.688  -7.122 -23.325  0.00  0.00    +0.037 C 
ATOM     20  C   UNL     1      31.654  -6.723 -20.942  0.00  0.00    +0.001 C 
ATOM     21  C   UNL     1      31.164  -5.848 -23.546  0.00  0.00    +0.172 C 
ATOM     22  C   UNL     1      31.131  -5.449 -21.163  0.00  0.00    +0.040 C 
ATOM     23  C   UNL     1      30.885  -5.012 -22.465  0.00  0.00    +0.172 C 
BRANCH  23  24
ATOM     24  O   UNL     1      30.375  -3.765 -22.668  0.00  0.00    -0.468 OA
ATOM     25  C   UNL     1      31.309  -2.701 -22.841  0.00  0.00    +0.253 C 
ENDBRANCH  23  24
BRANCH  21  26
ATOM     26  O   UNL     1      30.928  -5.434 -24.822  0.00  0.00    -0.472 OA
BRANCH  26  27
ATOM     27  C   UNL     1      32.067  -5.114 -25.620  0.00  0.00    +0.206 C 
ATOM     28  C   UNL     1      31.873  -3.741 -26.228  0.00  0.00    +0.051 C 
ENDBRANCH  26  27
ENDBRANCH  21  26
ENDBRANCH   1  18
BRANCH   1  29
ATOM     29  C   UNL     1      31.399  -9.921 -21.403  0.00  0.00    +0.176 C 
BRANCH  29  30
ATOM     30  S   UNL     1      31.540 -10.453 -19.724  0.00  0.00    -0.006 S 
ATOM     31  O   UNL     1      32.636  -9.726 -19.108  0.00  0.00    -0.173 OA
ATOM     32  O   UNL     1      30.213 -10.435 -19.131  0.00  0.00    -0.173 OA
ATOM     33  C   UNL     1      32.039 -12.152 -19.874  0.00  0.00    +0.176 C 
ENDBRANCH  29  30
ENDBRANCH   1  29
TORSDOF 8
ENDMDL
MODEL 4
REMARK VINA RESULT:      -8.4      0.968      2.083
REMARK  Name = 11561674
REMARK  8 active torsions:
REMARK  status: ('A' for Active; 'I' for Inactive)
REMARK    1  A    between atoms: C_1  and  N_4
REMARK    2  A    between atoms: C_1  and  C_18
REMARK    3  A    between atoms: C_1  and  C_29
REMARK    4  A    between atoms: C_9  and  N_14
REMARK    5  A    between atoms: C_21  and  O_26
REMARK    6  A    between atoms: C_23  and  O_24
REMARK    7  A    between atoms: O_26  and  C_27
REMARK    8  A    between atoms: C_29  and  S_30
REMARK                            x       y       z     vdW  Elec       q    Type
REMARK                         _______ _______ _______ _____ _____    ______ ____
ROOT
ATOM      1  C   UNL     1      33.614 -13.616 -24.657  0.00  0.00    +0.129 C 
ENDROOT
BRANCH   1   4
ATOM      2  O   UNL     1      33.865 -10.676 -24.288  0.00  0.00    -0.269 OA
ATOM      3  O   UNL     1      31.893 -14.388 -22.347  0.00  0.00    -0.269 OA
ATOM      4  N   UNL     1      33.050 -12.777 -23.618  0.00  0.00    -0.219 N 
ATOM      5  C   UNL     1      33.240 -11.413 -23.548  0.00  0.00    +0.257 C 
ATOM      6  C   UNL     1      32.265 -13.255 -22.590  0.00  0.00    +0.255 C 
ATOM      7  C   UNL     1      32.515 -10.974 -22.356  0.00  0.00    +0.072 C 
ATOM      8  C   UNL     1      31.926 -12.088 -21.776  0.00  0.00    +0.060 C 
ATOM      9  C   UNL     1      32.377  -9.711 -21.817  0.00  0.00    +0.055 C 
ATOM     10  C   UNL     1      31.166 -11.997 -20.628  0.00  0.00    +0.005 C 
ATOM     11  C   UNL     1      31.611  -9.596 -20.653  0.00  0.00    +0.015 C 
ATOM     12  C   UNL     1      31.012 -10.728 -20.064  0.00  0.00    +0.001 C 
BRANCH   9  14
ATOM     13  O   UNL     1      31.279  -7.740 -23.811  0.00  0.00    -0.275 OA
ATOM     14  N   UNL     1      32.962  -8.585 -22.391  0.00  0.00    -0.284 N 
ATOM     15  C   UNL     1      32.403  -7.696 -23.322  0.00  0.00    +0.227 C 
ATOM     16  C   UNL     1      33.366  -6.598 -23.696  0.00  0.00    +0.095 C 
ATOM     17  H   UNL     1      33.884  -8.386 -22.108  0.00  0.00    +0.155 HD
ENDBRANCH   9  14
ENDBRANCH   1   4
BRANCH   1  18
ATOM     18  C   UNL     1      34.108 -14.924 -24.077  0.00  0.00    +0.001 C 
ATOM     19  C   UNL     1      34.454 -14.980 -22.738  0.00  0.00    +0.037 C 
ATOM     20  C   UNL     1      34.205 -16.032 -24.900  0.00  0.00    +0.001 C 
ATOM     21  C   UNL     1      34.909 -16.186 -22.204  0.00  0.00    +0.172 C 
ATOM     22  C   UNL     1      34.660 -17.237 -24.365  0.00  0.00    +0.040 C 
ATOM     23  C   UNL     1      35.012 -17.315 -23.017  0.00  0.00    +0.172 C 
BRANCH  23  24
ATOM     24  O   UNL     1      35.457 -18.497 -22.508  0.00  0.00    -0.468 OA
ATOM     25  C   UNL     1      34.468 -19.431 -22.078  0.00  0.00    +0.253 C 
ENDBRANCH  23  24
BRANCH  21  26
ATOM     26  O   UNL     1      35.249 -16.248 -20.886  0.00  0.00    -0.472 OA
BRANCH  26  27
ATOM     27  C   UNL     1      34.627 -15.309 -20.011  0.00  0.00    +0.206 C 
ATOM     28  C   UNL     1      33.146 -15.610 -19.936  0.00  0.00    +0.051 C 
ENDBRANCH  26  27
ENDBRANCH  21  26
ENDBRANCH   1  18
BRANCH   1  29
ATOM     29  C   UNL     1      32.609 -13.844 -25.787  0.00  0.00    +0.176 C 
BRANCH  29  30
ATOM     30  S   UNL     1      33.194 -13.224 -27.336  0.00  0.00    -0.006 S 
ATOM     31  O   UNL     1      33.912 -14.293 -28.009  0.00  0.00    -0.173 OA
ATOM     32  O   UNL     1      32.094 -12.542 -27.995  0.00  0.00    -0.173 OA
ATOM     33  C   UNL     1      34.384 -11.993 -26.861  0.00  0.00    +0.176 C 
ENDBRANCH  29  30
ENDBRANCH   1  29
TORSDOF 8
ENDMDL
MODEL 5
REMARK VINA RESULT:      -8.0      3.435      6.975
REMARK  Name = 11561674
REMARK  8 active torsions:
REMARK  status: ('A' for Active; 'I' for Inactive)
REMARK    1  A    between atoms: C_1  and  N_4
REMARK    2  A    between atoms: C_1  and  C_18
REMARK    3  A    between atoms: C_1  and  C_29
REMARK    4  A    between atoms: C_9  and  N_14
REMARK    5  A    between atoms: C_21  and  O_26
REMARK    6  A    between atoms: C_23  and  O_24
REMARK    7  A    between atoms: O_26  and  C_27
REMARK    8  A    between atoms: C_29  and  S_30
REMARK                            x       y       z     vdW  Elec       q    Type
REMARK                         _______ _______ _______ _____ _____    ______ ____
ROOT
ATOM      1  C   UNL     1      32.668  -8.275 -22.810  0.00  0.00    +0.129 C 
ENDROOT
BRANCH   1   4
ATOM      2  O   UNL     1      31.160  -6.027 -24.041  0.00  0.00    -0.269 OA
ATOM      3  O   UNL     1      35.284  -8.123 -24.233  0.00  0.00    -0.269 OA
ATOM      4  N   UNL     1      33.094  -7.350 -23.840  0.00  0.00    -0.219 N 
ATOM      5  C   UNL     1      32.298  -6.339 -24.338  0.00  0.00    +0.257 C 
ATOM      6  C   UNL     1      34.340  -7.381 -24.431  0.00  0.00    +0.255 C 
ATOM      7  C   UNL     1      33.106  -5.664 -25.353  0.00  0.00    +0.072 C 
ATOM      8  C   UNL     1      34.341  -6.294 -25.410  0.00  0.00    +0.060 C 
ATOM      9  C   UNL     1      32.798  -4.589 -26.162  0.00  0.00    +0.055 C 
ATOM     10  C   UNL     1      35.332  -5.882 -26.276  0.00  0.00    +0.005 C 
ATOM     11  C   UNL     1      33.787  -4.155 -27.049  0.00  0.00    +0.015 C 
ATOM     12  C   UNL     1      35.042  -4.795 -27.106  0.00  0.00    +0.001 C 
BRANCH   9  14
ATOM     13  O   UNL     1      31.974  -2.040 -24.789  0.00  0.00    -0.275 OA
ATOM     14  N   UNL     1      31.562  -3.947 -26.114  0.00  0.00    -0.284 N 
ATOM     15  C   UNL     1      31.231  -2.754 -25.454  0.00  0.00    +0.227 C 
ATOM     16  C   UNL     1      29.779  -2.392 -25.647  0.00  0.00    +0.095 C 
ATOM     17  H   UNL     1      30.830  -4.385 -26.605  0.00  0.00    +0.155 HD
ENDBRANCH   9  14
ENDBRANCH   1   4
BRANCH   1  18
ATOM     18  C   UNL     1      32.875  -9.706 -23.259  0.00  0.00    +0.001 C 
ATOM     19  C   UNL     1      32.290 -10.731 -22.535  0.00  0.00    +0.037 C 
ATOM     20  C   UNL     1      33.644  -9.956 -24.382  0.00  0.00    +0.001 C 
ATOM     21  C   UNL     1      32.481 -12.050 -22.950  0.00  0.00    +0.172 C 
ATOM     22  C   UNL     1      33.834 -11.274 -24.795  0.00  0.00    +0.040 C 
ATOM     23  C   UNL     1      33.252 -12.322 -24.079  0.00  0.00    +0.172 C 
BRANCH  23  24
ATOM     24  O   UNL     1      33.446 -13.605 -24.493  0.00  0.00    -0.468 OA
ATOM     25  C   UNL     1      33.059 -13.922 -25.828  0.00  0.00    +0.253 C 
ENDBRANCH  23  24
BRANCH  21  26
ATOM     26  O   UNL     1      31.907 -13.063 -22.242  0.00  0.00    -0.472 OA
BRANCH  26  27
ATOM     27  C   UNL     1      32.603 -13.519 -21.083  0.00  0.00    +0.206 C 
ATOM     28  C   UNL     1      32.659 -15.031 -21.105  0.00  0.00    +0.051 C 
ENDBRANCH  26  27
ENDBRANCH  21  26
ENDBRANCH   1  18
BRANCH   1  29
ATOM     29  C   UNL     1      33.379  -7.992 -21.485  0.00  0.00    +0.176 C 
BRANCH  29  30
ATOM     30  S   UNL     1      32.274  -7.372 -20.253  0.00  0.00    -0.006 S 
ATOM     31  O   UNL     1      33.061  -6.694 -19.239  0.00  0.00    -0.173 OA
ATOM     32  O   UNL     1      31.184  -6.686 -20.926  0.00  0.00    -0.173 OA
ATOM     33  C   UNL     1      31.608  -8.848 -19.520  0.00  0.00    +0.176 C 
ENDBRANCH  29  30
ENDBRANCH   1  29
TORSDOF 8
ENDMDL
MODEL 6
REMARK VINA RESULT:      -7.9      9.881     14.630
REMARK  Name = 11561674
REMARK  8 active torsions:
REMARK  status: ('A' for Active; 'I' for Inactive)
REMARK    1  A    between atoms: C_1  and  N_4
REMARK    2  A    between atoms: C_1  and  C_18
REMARK    3  A    between atoms: C_1  and  C_29
REMARK    4  A    between atoms: C_9  and  N_14
REMARK    5  A    between atoms: C_21  and  O_26
REMARK    6  A    between atoms: C_23  and  O_24
REMARK    7  A    between atoms: O_26  and  C_27
REMARK    8  A    between atoms: C_29  and  S_30
REMARK                            x       y       z     vdW  Elec       q    Type
REMARK                         _______ _______ _______ _____ _____    ______ ____
ROOT
ATOM      1  C   UNL     1      32.998 -23.545 -15.628  0.00  0.00    +0.129 C 
ENDROOT
BRANCH   1   4
ATOM      2  O   UNL     1      35.646 -24.884 -15.822  0.00  0.00    -0.269 OA
ATOM      3  O   UNL     1      32.754 -23.069 -12.695  0.00  0.00    -0.269 OA
ATOM      4  N   UNL     1      33.926 -23.884 -14.568  0.00  0.00    -0.219 N 
ATOM      5  C   UNL     1      35.135 -24.513 -14.781  0.00  0.00    +0.257 C 
ATOM      6  C   UNL     1      33.698 -23.613 -13.235  0.00  0.00    +0.255 C 
ATOM      7  C   UNL     1      35.737 -24.670 -13.458  0.00  0.00    +0.072 C 
ATOM      8  C   UNL     1      34.868 -24.127 -12.522  0.00  0.00    +0.060 C 
ATOM      9  C   UNL     1      36.940 -25.239 -13.092  0.00  0.00    +0.055 C 
ATOM     10  C   UNL     1      35.158 -24.121 -11.173  0.00  0.00    +0.005 C 
ATOM     11  C   UNL     1      37.254 -25.244 -11.730  0.00  0.00    +0.015 C 
ATOM     12  C   UNL     1      36.372 -24.691 -10.780  0.00  0.00    +0.001 C 
BRANCH   9  14
ATOM     13  O   UNL     1      39.876 -24.739 -13.530  0.00  0.00    -0.275 OA
ATOM     14  N   UNL     1      37.821 -25.786 -14.022  0.00  0.00    -0.284 N 
ATOM     15  C   UNL     1      39.188 -25.516 -14.184  0.00  0.00    +0.227 C 
ATOM     16  C   UNL     1      39.789 -26.321 -15.310  0.00  0.00    +0.095 C 
ATOM     17  H   UNL     1      37.437 -26.447 -14.642  0.00  0.00    +0.155 HD
ENDBRANCH   9  14
ENDBRANCH   1   4
BRANCH   1  18
ATOM     18  C   UNL     1      33.741 -23.030 -16.844  0.00  0.00    +0.001 C 
ATOM     19  C   UNL     1      35.006 -22.493 -16.683  0.00  0.00    +0.037 C 
ATOM     20  C   UNL     1      33.137 -23.108 -18.086  0.00  0.00    +0.001 C 
ATOM     21  C   UNL     1      35.690 -22.020 -17.803  0.00  0.00    +0.172 C 
ATOM     22  C   UNL     1      33.821 -22.635 -19.205  0.00  0.00    +0.040 C 
ATOM     23  C   UNL     1      35.098 -22.090 -19.064  0.00  0.00    +0.172 C 
BRANCH  23  24
ATOM     24  O   UNL     1      35.756 -21.630 -20.164  0.00  0.00    -0.468 OA
ATOM     25  C   UNL     1      35.421 -20.322 -20.621  0.00  0.00    +0.253 C 
ENDBRANCH  23  24
BRANCH  21  26
ATOM     26  O   UNL     1      36.936 -21.491 -17.651  0.00  0.00    -0.472 OA
BRANCH  26  27
ATOM     27  C   UNL     1      37.495 -21.512 -16.338  0.00  0.00    +0.206 C 
ATOM     28  C   UNL     1      38.215 -22.827 -16.130  0.00  0.00    +0.051 C 
ENDBRANCH  26  27
ENDBRANCH  21  26
ENDBRANCH   1  18
BRANCH   1  29
ATOM     29  C   UNL     1      32.101 -24.733 -15.977  0.00  0.00    +0.176 C 
BRANCH  29  30
ATOM     30  S   UNL     1      30.493 -24.591 -15.256  0.00  0.00    -0.006 S 
ATOM     31  O   UNL     1      29.516 -25.029 -16.238  0.00  0.00    -0.173 OA
ATOM     32  O   UNL     1      30.536 -25.192 -13.934  0.00  0.00    -0.173 OA
ATOM     33  C   UNL     1      30.294 -22.838 -15.043  0.00  0.00    +0.176 C 
ENDBRANCH  29  30
ENDBRANCH   1  29
TORSDOF 8
ENDMDL
MODEL 7
REMARK VINA RESULT:      -7.7     11.124     14.558
REMARK  Name = 11561674
REMARK  8 active torsions:
REMARK  status: ('A' for Active; 'I' for Inactive)
REMARK    1  A    between atoms: C_1  and  N_4
REMARK    2  A    between atoms: C_1  and  C_18
REMARK    3  A    between atoms: C_1  and  C_29
REMARK    4  A    between atoms: C_9  and  N_14
REMARK    5  A    between atoms: C_21  and  O_26
REMARK    6  A    between atoms: C_23  and  O_24
REMARK    7  A    between atoms: O_26  and  C_27
REMARK    8  A    between atoms: C_29  and  S_30
REMARK                            x       y       z     vdW  Elec       q    Type
REMARK                         _______ _______ _______ _____ _____    ______ ____
ROOT
ATOM      1  C   UNL     1      34.450 -24.813 -13.178  0.00  0.00    +0.129 C 
ENDROOT
BRANCH   1   4
ATOM      2  O   UNL     1      34.565 -23.252 -15.706  0.00  0.00    -0.269 OA
ATOM      3  O   UNL     1      31.534 -25.385 -12.931  0.00  0.00    -0.269 OA
ATOM      4  N   UNL     1      33.366 -24.426 -14.058  0.00  0.00    -0.219 N 
ATOM      5  C   UNL     1      33.543 -23.692 -15.212  0.00  0.00    +0.257 C 
ATOM      6  C   UNL     1      32.045 -24.749 -13.834  0.00  0.00    +0.255 C 
ATOM      7  C   UNL     1      32.206 -23.520 -15.779  0.00  0.00    +0.072 C 
ATOM      8  C   UNL     1      31.300 -24.158 -14.945  0.00  0.00    +0.060 C 
ATOM      9  C   UNL     1      31.806 -22.863 -16.925  0.00  0.00    +0.055 C 
ATOM     10  C   UNL     1      29.946 -24.176 -15.215  0.00  0.00    +0.005 C 
ATOM     11  C   UNL     1      30.439 -22.867 -17.217  0.00  0.00    +0.015 C 
ATOM     12  C   UNL     1      29.518 -23.516 -16.371  0.00  0.00    +0.001 C 
BRANCH   9  14
ATOM     13  O   UNL     1      33.698 -23.983 -18.981  0.00  0.00    -0.275 OA
ATOM     14  N   UNL     1      32.707 -22.219 -17.771  0.00  0.00    -0.284 N 
ATOM     15  C   UNL     1      33.571 -22.793 -18.715  0.00  0.00    +0.227 C 
ATOM     16  C   UNL     1      34.389 -21.748 -19.433  0.00  0.00    +0.095 C 
ATOM     17  H   UNL     1      32.741 -21.238 -17.697  0.00  0.00    +0.155 HD
ENDBRANCH   9  14
ENDBRANCH   1   4
BRANCH   1  18
ATOM     18  C   UNL     1      35.739 -24.975 -13.956  0.00  0.00    +0.001 C 
ATOM     19  C   UNL     1      36.434 -23.846 -14.351  0.00  0.00    +0.037 C 
ATOM     20  C   UNL     1      36.190 -26.248 -14.256  0.00  0.00    +0.001 C 
ATOM     21  C   UNL     1      37.622 -23.995 -15.069  0.00  0.00    +0.172 C 
ATOM     22  C   UNL     1      37.376 -26.397 -14.974  0.00  0.00    +0.040 C 
ATOM     23  C   UNL     1      38.093 -25.270 -15.380  0.00  0.00    +0.172 C 
BRANCH  23  24
ATOM     24  O   UNL     1      39.250 -25.429 -16.080  0.00  0.00    -0.468 OA
ATOM     25  C   UNL     1      40.428 -25.718 -15.331  0.00  0.00    +0.253 C 
ENDBRANCH  23  24
BRANCH  21  26
ATOM     26  O   UNL     1      38.311 -22.887 -15.459  0.00  0.00    -0.472 OA
BRANCH  26  27
ATOM     27  C   UNL     1      37.545 -21.779 -15.929  0.00  0.00    +0.206 C 
ATOM     28  C   UNL     1      37.201 -21.999 -17.386  0.00  0.00    +0.051 C 
ENDBRANCH  26  27
ENDBRANCH  21  26
ENDBRANCH   1  18
BRANCH   1  29
ATOM     29  C   UNL     1      34.609 -23.819 -12.026  0.00  0.00    +0.176 C 
BRANCH  29  30
ATOM     30  S   UNL     1      35.810 -24.352 -10.844  0.00  0.00    -0.006 S 
ATOM     31  O   UNL     1      35.225 -24.232  -9.520  0.00  0.00    -0.173 OA
ATOM     32  O   UNL     1      36.362 -25.617 -11.298  0.00  0.00    -0.173 OA
ATOM     33  C   UNL     1      37.090 -23.126 -10.980  0.00  0.00    +0.176 C 
ENDBRANCH  29  30
ENDBRANCH   1  29
TORSDOF 8
ENDMDL
MODEL 8
REMARK VINA RESULT:      -7.7      9.287     14.434
REMARK  Name = 11561674
REMARK  8 active torsions:
REMARK  status: ('A' for Active; 'I' for Inactive)
REMARK    1  A    between atoms: C_1  and  N_4
REMARK    2  A    between atoms: C_1  and  C_18
REMARK    3  A    between atoms: C_1  and  C_29
REMARK    4  A    between atoms: C_9  and  N_14
REMARK    5  A    between atoms: C_21  and  O_26
REMARK    6  A    between atoms: C_23  and  O_24
REMARK    7  A    between atoms: O_26  and  C_27
REMARK    8  A    between atoms: C_29  and  S_30
REMARK                            x       y       z     vdW  Elec       q    Type
REMARK                         _______ _______ _______ _____ _____    ______ ____
ROOT
ATOM      1  C   UNL     1      33.158 -23.475 -15.599  0.00  0.00    +0.129 C 
ENDROOT
BRANCH   1   4
ATOM      2  O   UNL     1      35.812 -24.796 -15.838  0.00  0.00    -0.269 OA
ATOM      3  O   UNL     1      32.911 -23.104 -12.650  0.00  0.00    -0.269 OA
ATOM      4  N   UNL     1      34.087 -23.847 -14.551  0.00  0.00    -0.219 N 
ATOM      5  C   UNL     1      35.299 -24.464 -14.785  0.00  0.00    +0.257 C 
ATOM      6  C   UNL     1      33.858 -23.625 -13.209  0.00  0.00    +0.255 C 
ATOM      7  C   UNL     1      35.901 -24.665 -13.468  0.00  0.00    +0.072 C 
ATOM      8  C   UNL     1      35.029 -24.159 -12.514  0.00  0.00    +0.060 C 
ATOM      9  C   UNL     1      37.106 -25.241 -13.122  0.00  0.00    +0.055 C 
ATOM     10  C   UNL     1      35.319 -24.200 -11.166  0.00  0.00    +0.005 C 
ATOM     11  C   UNL     1      37.420 -25.293 -11.761  0.00  0.00    +0.015 C 
ATOM     12  C   UNL     1      36.535 -24.778 -10.792  0.00  0.00    +0.001 C 
BRANCH   9  14
ATOM     13  O   UNL     1      40.005 -24.608 -13.631  0.00  0.00    -0.275 OA
ATOM     14  N   UNL     1      37.990 -25.752 -14.070  0.00  0.00    -0.284 N 
ATOM     15  C   UNL     1      39.339 -25.419 -14.266  0.00  0.00    +0.227 C 
ATOM     16  C   UNL     1      39.950 -26.201 -15.402  0.00  0.00    +0.095 C 
ATOM     17  H   UNL     1      37.623 -26.433 -14.679  0.00  0.00    +0.155 HD
ENDBRANCH   9  14
ENDBRANCH   1   4
BRANCH   1  18
ATOM     18  C   UNL     1      33.898 -22.908 -16.792  0.00  0.00    +0.001 C 
ATOM     19  C   UNL     1      33.194 -22.624 -17.949  0.00  0.00    +0.037 C 
ATOM     20  C   UNL     1      35.261 -22.689 -16.698  0.00  0.00    +0.001 C 
ATOM     21  C   UNL     1      33.877 -22.101 -19.048  0.00  0.00    +0.172 C 
ATOM     22  C   UNL     1      35.942 -22.167 -17.797  0.00  0.00    +0.040 C 
ATOM     23  C   UNL     1      35.250 -21.873 -18.972  0.00  0.00    +0.172 C 
BRANCH  23  24
ATOM     24  O   UNL     1      35.927 -21.364 -20.039  0.00  0.00    -0.468 OA
ATOM     25  C   UNL     1      36.749 -20.223 -19.803  0.00  0.00    +0.253 C 
ENDBRANCH  23  24
BRANCH  21  26
ATOM     26  O   UNL     1      33.189 -21.818 -20.189  0.00  0.00    -0.472 OA
BRANCH  26  27
ATOM     27  C   UNL     1      32.632 -20.510 -20.304  0.00  0.00    +0.206 C 
ATOM     28  C   UNL     1      33.440 -19.715 -21.306  0.00  0.00    +0.051 C 
ENDBRANCH  26  27
ENDBRANCH  21  26
ENDBRANCH   1  18
BRANCH   1  29
ATOM     29  C   UNL     1      32.271 -24.656 -15.995  0.00  0.00    +0.176 C 
BRANCH  29  30
ATOM     30  S   UNL     1      30.683 -24.589 -15.220  0.00  0.00    -0.006 S 
ATOM     31  O   UNL     1      29.690 -25.027 -16.184  0.00  0.00    -0.173 OA
ATOM     32  O   UNL     1      30.787 -25.231 -13.920  0.00  0.00    -0.173 OA
ATOM     33  C   UNL     1      30.436 -22.851 -14.943  0.00  0.00    +0.176 C 
ENDBRANCH  29  30
ENDBRANCH   1  29
TORSDOF 8
ENDMDL
MODEL 9
REMARK VINA RESULT:      -7.6     10.239     13.695
REMARK  Name = 11561674
REMARK  8 active torsions:
REMARK  status: ('A' for Active; 'I' for Inactive)
REMARK    1  A    between atoms: C_1  and  N_4
REMARK    2  A    between atoms: C_1  and  C_18
REMARK    3  A    between atoms: C_1  and  C_29
REMARK    4  A    between atoms: C_9  and  N_14
REMARK    5  A    between atoms: C_21  and  O_26
REMARK    6  A    between atoms: C_23  and  O_24
REMARK    7  A    between atoms: O_26  and  C_27
REMARK    8  A    between atoms: C_29  and  S_30
REMARK                            x       y       z     vdW  Elec       q    Type
REMARK                         _______ _______ _______ _____ _____    ______ ____
ROOT
ATOM      1  C   UNL     1      34.256 -23.093 -16.381  0.00  0.00    +0.129 C 
ENDROOT
BRANCH   1   4
ATOM      2  O   UNL     1      31.514 -22.618 -17.429  0.00  0.00    -0.269 OA
ATOM      3  O   UNL     1      33.710 -24.619 -13.878  0.00  0.00    -0.269 OA
ATOM      4  N   UNL     1      32.983 -23.495 -15.815  0.00  0.00    -0.219 N 
ATOM      5  C   UNL     1      31.765 -23.212 -16.396  0.00  0.00    +0.257 C 
ATOM      6  C   UNL     1      32.857 -24.201 -14.638  0.00  0.00    +0.255 C 
ATOM      7  C   UNL     1      30.759 -23.783 -15.501  0.00  0.00    +0.072 C 
ATOM      8  C   UNL     1      31.419 -24.381 -14.437  0.00  0.00    +0.060 C 
ATOM      9  C   UNL     1      29.382 -23.785 -15.600  0.00  0.00    +0.055 C 
ATOM     10  C   UNL     1      30.738 -25.014 -13.418  0.00  0.00    +0.005 C 
ATOM     11  C   UNL     1      28.672 -24.421 -14.578  0.00  0.00    +0.015 C 
ATOM     12  C   UNL     1      29.343 -25.029 -13.497  0.00  0.00    +0.001 C 
BRANCH   9  14
ATOM     13  O   UNL     1      26.700 -22.422 -15.694  0.00  0.00    -0.275 OA
ATOM     14  N   UNL     1      28.708 -23.190 -16.663  0.00  0.00    -0.284 N 
ATOM     15  C   UNL     1      27.452 -22.566 -16.652  0.00  0.00    +0.227 C 
ATOM     16  C   UNL     1      27.074 -22.043 -18.016  0.00  0.00    +0.095 C 
ATOM     17  H   UNL     1      29.172 -23.207 -17.532  0.00  0.00    +0.155 HD
ENDBRANCH   9  14
ENDBRANCH   1   4
BRANCH   1  18
ATOM     18  C   UNL     1      35.400 -23.757 -15.644  0.00  0.00    +0.001 C 
ATOM     19  C   UNL     1      36.101 -23.032 -14.695  0.00  0.00    +0.037 C 
ATOM     20  C   UNL     1      35.720 -25.070 -15.937  0.00  0.00    +0.001 C 
ATOM     21  C   UNL     1      37.156 -23.644 -14.016  0.00  0.00    +0.172 C 
ATOM     22  C   UNL     1      36.774 -25.681 -15.258  0.00  0.00    +0.040 C 
ATOM     23  C   UNL     1      37.492 -24.968 -14.297  0.00  0.00    +0.172 C 
BRANCH  23  24
ATOM     24  O   UNL     1      38.520 -25.576 -13.642  0.00  0.00    -0.468 OA
ATOM     25  C   UNL     1      39.787 -25.593 -14.296  0.00  0.00    +0.253 C 
ENDBRANCH  23  24
BRANCH  21  26
ATOM     26  O   UNL     1      37.848 -22.937 -13.081  0.00  0.00    -0.472 OA
BRANCH  26  27
ATOM     27  C   UNL     1      37.182 -22.665 -11.848  0.00  0.00    +0.206 C 
ATOM     28  C   UNL     1      36.644 -23.961 -11.282  0.00  0.00    +0.051 C 
ENDBRANCH  26  27
ENDBRANCH  21  26
ENDBRANCH   1  18
BRANCH   1  29
ATOM     29  C   UNL     1      34.309 -23.382 -17.882  0.00  0.00    +0.176 C 
BRANCH  29  30
ATOM     30  S   UNL     1      35.076 -22.072 -18.787  0.00  0.00    -0.006 S 
ATOM     31  O   UNL     1      35.838 -21.261 -17.854  0.00  0.00    -0.173 OA
ATOM     32  O   UNL     1      35.713 -22.646 -19.961  0.00  0.00    -0.173 OA
ATOM     33  C   UNL     1      33.698 -21.099 -19.346  0.00  0.00    +0.176 C 
ENDBRANCH  29  30
ENDBRANCH   1  29
TORSDOF 8
ENDMDL
