MODEL 1
REMARK VINA RESULT:     -11.6      0.000      0.000
REMARK  Name = 24764434
REMARK  8 active torsions:
REMARK  status: ('A' for Active; 'I' for Inactive)
REMARK    1  A    between atoms: C_1  and  N_4
REMARK    2  A    between atoms: C_1  and  C_17
REMARK    3  A    between atoms: C_1  and  C_28
REMARK    4  A    between atoms: C_11  and  C_14
REMARK    5  A    between atoms: C_14  and  O_15
REMARK    6  A    between atoms: C_17  and  C_18
REMARK    7  A    between atoms: C_28  and  C_30
REMARK    8  A    between atoms: C_30  and  O_31
REMARK                            x       y       z     vdW  Elec       q    Type
REMARK                         _______ _______ _______ _____ _____    ______ ____
ROOT
ATOM      1  C   UNL     1      32.950 -13.528 -24.231  0.00  0.00    +0.098 C 
ENDROOT
BRANCH   1   4
ATOM      2  O   UNL     1      31.591 -12.308 -21.874  0.00  0.00    -0.269 OA
ATOM      3  O   UNL     1      34.508 -11.222 -25.305  0.00  0.00    -0.269 OA
ATOM      4  N   UNL     1      33.020 -12.166 -23.741  0.00  0.00    -0.224 N 
ATOM      5  C   UNL     1      32.335 -11.715 -22.631  0.00  0.00    +0.255 C 
ATOM      6  C   UNL     1      33.779 -11.178 -24.331  0.00  0.00    +0.255 C 
ATOM      7  C   UNL     1      32.681 -10.300 -22.503  0.00  0.00    +0.059 C 
ATOM      8  C   UNL     1      33.553  -9.975 -23.530  0.00  0.00    +0.058 C 
ATOM      9  C   UNL     1      32.271  -9.369 -21.570  0.00  0.00    +0.011 C 
ATOM     10  C   UNL     1      34.065  -8.702 -23.679  0.00  0.00    +0.005 C 
ATOM     11  C   UNL     1      32.776  -8.072 -21.701  0.00  0.00    +0.076 C 
ATOM     12  C   UNL     1      33.664  -7.742 -22.745  0.00  0.00    +0.007 C 
BRANCH  11  14
ATOM     13  O   UNL     1      31.548  -6.160 -20.953  0.00  0.00    -0.245 OA
ATOM     14  C   UNL     1      32.382  -7.048 -20.746  0.00  0.00    +0.338 C 
BRANCH  14  15
ATOM     15  O   UNL     1      33.040  -7.162 -19.560  0.00  0.00    -0.477 OA
ATOM     16  H   UNL     1      32.587  -7.004 -18.756  0.00  0.00    +0.295 HD
ENDBRANCH  14  15
ENDBRANCH  11  14
ENDBRANCH   1   4
BRANCH   1  17
ATOM     17  C   UNL     1      34.323 -14.226 -24.127  0.00  0.00    +0.047 C 
BRANCH  17  18
ATOM     18  C   UNL     1      34.476 -15.204 -22.986  0.00  0.00    -0.020 C 
ATOM     19  C   UNL     1      34.612 -16.585 -23.203  0.00  0.00    -0.004 C 
ATOM     20  C   UNL     1      34.478 -14.683 -21.692  0.00  0.00    -0.004 C 
ATOM     21  C   UNL     1      34.751 -17.450 -22.092  0.00  0.00    -0.000 C 
ATOM     22  C   UNL     1      34.611 -17.126 -24.499  0.00  0.00    -0.000 C 
ATOM     23  C   UNL     1      34.616 -15.533 -20.598  0.00  0.00    -0.000 C 
ATOM     24  C   UNL     1      34.752 -16.908 -20.795  0.00  0.00    -0.000 C 
ATOM     25  C   UNL     1      34.887 -18.830 -22.308  0.00  0.00    -0.000 C 
ATOM     26  C   UNL     1      34.747 -18.501 -24.696  0.00  0.00    -0.000 C 
ATOM     27  C   UNL     1      34.885 -19.351 -23.602  0.00  0.00    -0.000 C 
ENDBRANCH  17  18
ENDBRANCH   1  17
BRANCH   1  28
ATOM     28  C   UNL     1      32.324 -13.551 -25.634  0.00  0.00    +0.130 C 
BRANCH  28  30
ATOM     29  O   UNL     1      33.368 -15.361 -26.881  0.00  0.00    -0.250 OA
ATOM     30  C   UNL     1      33.225 -14.163 -26.683  0.00  0.00    +0.316 C 
BRANCH  30  31
ATOM     31  O   UNL     1      33.847 -13.212 -27.428  0.00  0.00    -0.480 OA
ATOM     32  H   UNL     1      33.951 -13.334 -28.350  0.00  0.00    +0.295 HD
ENDBRANCH  30  31
ENDBRANCH  28  30
ENDBRANCH   1  28
TORSDOF 8
ENDMDL
MODEL 2
REMARK VINA RESULT:     -11.0      2.530      7.909
REMARK  Name = 24764434
REMARK  8 active torsions:
REMARK  status: ('A' for Active; 'I' for Inactive)
REMARK    1  A    between atoms: C_1  and  N_4
REMARK    2  A    between atoms: C_1  and  C_17
REMARK    3  A    between atoms: C_1  and  C_28
REMARK    4  A    between atoms: C_11  and  C_14
REMARK    5  A    between atoms: C_14  and  O_15
REMARK    6  A    between atoms: C_17  and  C_18
REMARK    7  A    between atoms: C_28  and  C_30
REMARK    8  A    between atoms: C_30  and  O_31
REMARK                            x       y       z     vdW  Elec       q    Type
REMARK                         _______ _______ _______ _____ _____    ______ ____
ROOT
ATOM      1  C   UNL     1      33.619 -13.764 -24.890  0.00  0.00    +0.098 C 
ENDROOT
BRANCH   1   4
ATOM      2  O   UNL     1      34.417 -14.382 -22.084  0.00  0.00    -0.269 OA
ATOM      3  O   UNL     1      33.767 -16.450 -26.177  0.00  0.00    -0.269 OA
ATOM      4  N   UNL     1      33.992 -15.037 -24.306  0.00  0.00    -0.224 N 
ATOM      5  C   UNL     1      34.349 -15.197 -22.983  0.00  0.00    +0.255 C 
ATOM      6  C   UNL     1      34.029 -16.221 -25.011  0.00  0.00    +0.255 C 
ATOM      7  C   UNL     1      34.653 -16.619 -22.827  0.00  0.00    +0.059 C 
ATOM      8  C   UNL     1      34.459 -17.238 -24.052  0.00  0.00    +0.058 C 
ATOM      9  C   UNL     1      35.064 -17.320 -21.711  0.00  0.00    +0.011 C 
ATOM     10  C   UNL     1      34.664 -18.592 -24.228  0.00  0.00    +0.005 C 
ATOM     11  C   UNL     1      35.279 -18.693 -21.865  0.00  0.00    +0.076 C 
ATOM     12  C   UNL     1      35.081 -19.322 -23.111  0.00  0.00    +0.007 C 
BRANCH  11  14
ATOM     13  O   UNL     1      36.840 -19.460 -20.223  0.00  0.00    -0.245 OA
ATOM     14  C   UNL     1      35.711 -19.485 -20.724  0.00  0.00    +0.338 C 
BRANCH  14  15
ATOM     15  O   UNL     1      34.721 -20.284 -20.241  0.00  0.00    -0.477 OA
ATOM     16  H   UNL     1      34.914 -20.926 -19.587  0.00  0.00    +0.295 HD
ENDBRANCH  14  15
ENDBRANCH  11  14
ENDBRANCH   1   4
BRANCH   1  17
ATOM     17  C   UNL     1      33.142 -12.775 -23.804  0.00  0.00    +0.047 C 
BRANCH  17  18
ATOM     18  C   UNL     1      33.649 -11.359 -23.939  0.00  0.00    -0.020 C 
ATOM     19  C   UNL     1      33.147 -10.311 -23.150  0.00  0.00    -0.004 C 
ATOM     20  C   UNL     1      34.646 -11.123 -24.885  0.00  0.00    -0.004 C 
ATOM     21  C   UNL     1      33.663  -9.004 -23.324  0.00  0.00    -0.000 C 
ATOM     22  C   UNL     1      32.142 -10.530 -22.193  0.00  0.00    -0.000 C 
ATOM     23  C   UNL     1      35.155  -9.839 -25.057  0.00  0.00    -0.000 C 
ATOM     24  C   UNL     1      34.667  -8.785 -24.282  0.00  0.00    -0.000 C 
ATOM     25  C   UNL     1      33.162  -7.957 -22.536  0.00  0.00    -0.000 C 
ATOM     26  C   UNL     1      31.656  -9.477 -21.418  0.00  0.00    -0.000 C 
ATOM     27  C   UNL     1      32.165  -8.193 -21.589  0.00  0.00    -0.000 C 
ENDBRANCH  17  18
ENDBRANCH   1  17
BRANCH   1  28
ATOM     28  C   UNL     1      32.625 -13.983 -26.039  0.00  0.00    +0.130 C 
BRANCH  28  30
ATOM     29  O   UNL     1      34.179 -13.487 -27.845  0.00  0.00    -0.250 OA
ATOM     30  C   UNL     1      33.070 -13.363 -27.345  0.00  0.00    +0.316 C 
BRANCH  30  31
ATOM     31  O   UNL     1      32.065 -12.665 -27.938  0.00  0.00    -0.480 OA
ATOM     32  H   UNL     1      31.322 -13.118 -28.284  0.00  0.00    +0.295 HD
ENDBRANCH  30  31
ENDBRANCH  28  30
ENDBRANCH   1  28
TORSDOF 8
ENDMDL
MODEL 3
REMARK VINA RESULT:     -10.9      0.889      1.914
REMARK  Name = 24764434
REMARK  8 active torsions:
REMARK  status: ('A' for Active; 'I' for Inactive)
REMARK    1  A    between atoms: C_1  and  N_4
REMARK    2  A    between atoms: C_1  and  C_17
REMARK    3  A    between atoms: C_1  and  C_28
REMARK    4  A    between atoms: C_11  and  C_14
REMARK    5  A    between atoms: C_14  and  O_15
REMARK    6  A    between atoms: C_17  and  C_18
REMARK    7  A    between atoms: C_28  and  C_30
REMARK    8  A    between atoms: C_30  and  O_31
REMARK                            x       y       z     vdW  Elec       q    Type
REMARK                         _______ _______ _______ _____ _____    ______ ____
ROOT
ATOM      1  C   UNL     1      33.033 -13.761 -24.224  0.00  0.00    +0.098 C 
ENDROOT
BRANCH   1   4
ATOM      2  O   UNL     1      33.627 -10.852 -24.498  0.00  0.00    -0.269 OA
ATOM      3  O   UNL     1      31.659 -13.863 -21.579  0.00  0.00    -0.269 OA
ATOM      4  N   UNL     1      32.740 -12.680 -23.306  0.00  0.00    -0.224 N 
ATOM      5  C   UNL     1      33.072 -11.362 -23.544  0.00  0.00    +0.255 C 
ATOM      6  C   UNL     1      32.098 -12.854 -22.098  0.00  0.00    +0.255 C 
ATOM      7  C   UNL     1      32.607 -10.621 -22.372  0.00  0.00    +0.059 C 
ATOM      8  C   UNL     1      32.018 -11.522 -21.498  0.00  0.00    +0.058 C 
ATOM      9  C   UNL     1      32.687  -9.273 -22.086  0.00  0.00    +0.011 C 
ATOM     10  C   UNL     1      31.477 -11.124 -20.292  0.00  0.00    +0.005 C 
ATOM     11  C   UNL     1      32.146  -8.846 -20.870  0.00  0.00    +0.076 C 
ATOM     12  C   UNL     1      31.547  -9.763 -19.982  0.00  0.00    +0.007 C 
BRANCH  11  14
ATOM     13  O   UNL     1      31.579  -6.531 -21.082  0.00  0.00    -0.245 OA
ATOM     14  C   UNL     1      32.200  -7.436 -20.515  0.00  0.00    +0.338 C 
BRANCH  14  15
ATOM     15  O   UNL     1      33.026  -7.197 -19.460  0.00  0.00    -0.477 OA
ATOM     16  H   UNL     1      32.782  -7.476 -18.601  0.00  0.00    +0.295 HD
ENDBRANCH  14  15
ENDBRANCH  11  14
ENDBRANCH   1   4
BRANCH   1  17
ATOM     17  C   UNL     1      34.464 -14.300 -24.008  0.00  0.00    +0.047 C 
BRANCH  17  18
ATOM     18  C   UNL     1      34.598 -15.418 -23.002  0.00  0.00    -0.020 C 
ATOM     19  C   UNL     1      34.658 -16.766 -23.391  0.00  0.00    -0.004 C 
ATOM     20  C   UNL     1      34.663 -15.062 -21.654  0.00  0.00    -0.004 C 
ATOM     21  C   UNL     1      34.784 -17.768 -22.399  0.00  0.00    -0.000 C 
ATOM     22  C   UNL     1      34.594 -17.142 -24.743  0.00  0.00    -0.000 C 
ATOM     23  C   UNL     1      34.787 -16.047 -20.678  0.00  0.00    -0.000 C 
ATOM     24  C   UNL     1      34.847 -17.392 -21.047  0.00  0.00    -0.000 C 
ATOM     25  C   UNL     1      34.843 -19.116 -22.788  0.00  0.00    -0.000 C 
ATOM     26  C   UNL     1      34.654 -18.487 -25.111  0.00  0.00    -0.000 C 
ATOM     27  C   UNL     1      34.779 -19.472 -24.135  0.00  0.00    -0.000 C 
ENDBRANCH  17  18
ENDBRANCH   1  17
BRANCH   1  28
ATOM     28  C   UNL     1      32.723 -13.328 -25.664  0.00  0.00    +0.130 C 
BRANCH  28  30
ATOM     29  O   UNL     1      32.699 -15.541 -26.674  0.00  0.00    -0.250 OA
ATOM     30  C   UNL     1      33.071 -14.377 -26.696  0.00  0.00    +0.316 C 
BRANCH  30  31
ATOM     31  O   UNL     1      33.832 -13.863 -27.698  0.00  0.00    -0.480 OA
ATOM     32  H   UNL     1      33.918 -12.935 -27.791  0.00  0.00    +0.295 HD
ENDBRANCH  30  31
ENDBRANCH  28  30
ENDBRANCH   1  28
TORSDOF 8
ENDMDL
MODEL 4
REMARK VINA RESULT:     -10.9      2.433      7.797
REMARK  Name = 24764434
REMARK  8 active torsions:
REMARK  status: ('A' for Active; 'I' for Inactive)
REMARK    1  A    between atoms: C_1  and  N_4
REMARK    2  A    between atoms: C_1  and  C_17
REMARK    3  A    between atoms: C_1  and  C_28
REMARK    4  A    between atoms: C_11  and  C_14
REMARK    5  A    between atoms: C_14  and  O_15
REMARK    6  A    between atoms: C_17  and  C_18
REMARK    7  A    between atoms: C_28  and  C_30
REMARK    8  A    between atoms: C_30  and  O_31
REMARK                            x       y       z     vdW  Elec       q    Type
REMARK                         _______ _______ _______ _____ _____    ______ ____
ROOT
ATOM      1  C   UNL     1      33.524 -12.416 -23.641  0.00  0.00    +0.098 C 
ENDROOT
BRANCH   1   4
ATOM      2  O   UNL     1      34.506 -13.795 -21.186  0.00  0.00    -0.269 OA
ATOM      3  O   UNL     1      33.424 -14.657 -25.607  0.00  0.00    -0.269 OA
ATOM      4  N   UNL     1      33.872 -13.810 -23.455  0.00  0.00    -0.224 N 
ATOM      5  C   UNL     1      34.323 -14.334 -22.261  0.00  0.00    +0.255 C 
ATOM      6  C   UNL     1      33.788 -14.760 -24.451  0.00  0.00    +0.255 C 
ATOM      7  C   UNL     1      34.560 -15.754 -22.518  0.00  0.00    +0.059 C 
ATOM      8  C   UNL     1      34.237 -16.012 -23.841  0.00  0.00    +0.058 C 
ATOM      9  C   UNL     1      35.019 -16.743 -21.672  0.00  0.00    +0.011 C 
ATOM     10  C   UNL     1      34.353 -17.273 -24.390  0.00  0.00    +0.005 C 
ATOM     11  C   UNL     1      35.145 -18.030 -22.206  0.00  0.00    +0.076 C 
ATOM     12  C   UNL     1      34.816 -18.291 -23.552  0.00  0.00    +0.007 C 
BRANCH  11  14
ATOM     13  O   UNL     1      36.602 -19.058 -20.610  0.00  0.00    -0.245 OA
ATOM     14  C   UNL     1      35.623 -19.114 -21.362  0.00  0.00    +0.338 C 
BRANCH  14  15
ATOM     15  O   UNL     1      34.863 -20.237 -21.479  0.00  0.00    -0.477 OA
ATOM     16  H   UNL     1      33.937 -20.166 -21.602  0.00  0.00    +0.295 HD
ENDBRANCH  14  15
ENDBRANCH  11  14
ENDBRANCH   1   4
BRANCH   1  17
ATOM     17  C   UNL     1      32.082 -12.137 -23.165  0.00  0.00    +0.047 C 
BRANCH  17  18
ATOM     18  C   UNL     1      31.955 -11.321 -21.900  0.00  0.00    -0.020 C 
ATOM     19  C   UNL     1      32.083  -9.923 -21.899  0.00  0.00    -0.004 C 
ATOM     20  C   UNL     1      31.704 -12.014 -20.715  0.00  0.00    -0.004 C 
ATOM     21  C   UNL     1      31.954  -9.216 -20.680  0.00  0.00    -0.000 C 
ATOM     22  C   UNL     1      32.337  -9.210 -23.083  0.00  0.00    -0.000 C 
ATOM     23  C   UNL     1      31.576 -11.319 -19.515  0.00  0.00    -0.000 C 
ATOM     24  C   UNL     1      31.700  -9.929 -19.496  0.00  0.00    -0.000 C 
ATOM     25  C   UNL     1      32.081  -7.818 -20.680  0.00  0.00    -0.000 C 
ATOM     26  C   UNL     1      32.460  -7.821 -23.064  0.00  0.00    -0.000 C 
ATOM     27  C   UNL     1      32.333  -7.126 -21.864  0.00  0.00    -0.000 C 
ENDBRANCH  17  18
ENDBRANCH   1  17
BRANCH   1  28
ATOM     28  C   UNL     1      33.816 -11.989 -25.086  0.00  0.00    +0.130 C 
BRANCH  28  30
ATOM     29  O   UNL     1      35.391 -10.531 -26.234  0.00  0.00    -0.250 OA
ATOM     30  C   UNL     1      34.878 -10.917 -25.193  0.00  0.00    +0.316 C 
BRANCH  30  31
ATOM     31  O   UNL     1      35.182 -10.389 -23.979  0.00  0.00    -0.480 OA
ATOM     32  H   UNL     1      34.816  -9.566 -23.722  0.00  0.00    +0.295 HD
ENDBRANCH  30  31
ENDBRANCH  28  30
ENDBRANCH   1  28
TORSDOF 8
ENDMDL
MODEL 5
REMARK VINA RESULT:     -10.3     12.447     14.339
REMARK  Name = 24764434
REMARK  8 active torsions:
REMARK  status: ('A' for Active; 'I' for Inactive)
REMARK    1  A    between atoms: C_1  and  N_4
REMARK    2  A    between atoms: C_1  and  C_17
REMARK    3  A    between atoms: C_1  and  C_28
REMARK    4  A    between atoms: C_11  and  C_14
REMARK    5  A    between atoms: C_14  and  O_15
REMARK    6  A    between atoms: C_17  and  C_18
REMARK    7  A    between atoms: C_28  and  C_30
REMARK    8  A    between atoms: C_30  and  O_31
REMARK                            x       y       z     vdW  Elec       q    Type
REMARK                         _______ _______ _______ _____ _____    ______ ____
ROOT
ATOM      1  C   UNL     1      34.705 -23.850 -15.500  0.00  0.00    +0.098 C 
ENDROOT
BRANCH   1   4
ATOM      2  O   UNL     1      32.973 -23.337 -17.873  0.00  0.00    -0.269 OA
ATOM      3  O   UNL     1      32.745 -23.681 -13.259  0.00  0.00    -0.269 OA
ATOM      4  N   UNL     1      33.283 -23.578 -15.550  0.00  0.00    -0.224 N 
ATOM      5  C   UNL     1      32.587 -23.351 -16.719  0.00  0.00    +0.255 C 
ATOM      6  C   UNL     1      32.475 -23.520 -14.434  0.00  0.00    +0.255 C 
ATOM      7  C   UNL     1      31.202 -23.114 -16.314  0.00  0.00    +0.059 C 
ATOM      8  C   UNL     1      31.134 -23.217 -14.933  0.00  0.00    +0.058 C 
ATOM      9  C   UNL     1      30.090 -22.834 -17.082  0.00  0.00    +0.011 C 
ATOM     10  C   UNL     1      29.949 -23.046 -14.245  0.00  0.00    +0.005 C 
ATOM     11  C   UNL     1      28.878 -22.656 -16.407  0.00  0.00    +0.076 C 
ATOM     12  C   UNL     1      28.810 -22.760 -15.002  0.00  0.00    +0.007 C 
BRANCH  11  14
ATOM     13  O   UNL     1      27.051 -21.290 -17.130  0.00  0.00    -0.245 OA
ATOM     14  C   UNL     1      27.671 -22.359 -17.162  0.00  0.00    +0.338 C 
BRANCH  14  15
ATOM     15  O   UNL     1      27.274 -23.404 -17.938  0.00  0.00    -0.477 OA
ATOM     16  H   UNL     1      27.887 -23.828 -18.503  0.00  0.00    +0.295 HD
ENDBRANCH  14  15
ENDBRANCH  11  14
ENDBRANCH   1   4
BRANCH   1  17
ATOM     17  C   UNL     1      35.039 -24.853 -14.375  0.00  0.00    +0.047 C 
BRANCH  17  18
ATOM     18  C   UNL     1      36.212 -24.488 -13.497  0.00  0.00    -0.020 C 
ATOM     19  C   UNL     1      37.513 -24.943 -13.766  0.00  0.00    -0.004 C 
ATOM     20  C   UNL     1      35.957 -23.671 -12.395  0.00  0.00    -0.004 C 
ATOM     21  C   UNL     1      38.571 -24.566 -12.905  0.00  0.00    -0.000 C 
ATOM     22  C   UNL     1      37.788 -25.767 -14.871  0.00  0.00    -0.000 C 
ATOM     23  C   UNL     1      36.997 -23.299 -11.548  0.00  0.00    -0.000 C 
ATOM     24  C   UNL     1      38.296 -23.742 -11.800  0.00  0.00    -0.000 C 
ATOM     25  C   UNL     1      39.871 -25.020 -13.173  0.00  0.00    -0.000 C 
ATOM     26  C   UNL     1      39.087 -26.209 -15.122  0.00  0.00    -0.000 C 
ATOM     27  C   UNL     1      40.126 -25.837 -14.275  0.00  0.00    -0.000 C 
ENDBRANCH  17  18
ENDBRANCH   1  17
BRANCH   1  28
ATOM     28  C   UNL     1      35.491 -22.532 -15.437  0.00  0.00    +0.130 C 
BRANCH  28  30
ATOM     29  O   UNL     1      37.694 -22.302 -16.445  0.00  0.00    -0.250 OA
ATOM     30  C   UNL     1      36.480 -22.367 -16.570  0.00  0.00    +0.316 C 
BRANCH  30  31
ATOM     31  O   UNL     1      35.858 -22.337 -17.778  0.00  0.00    -0.480 OA
ATOM     32  H   UNL     1      35.106 -22.874 -17.931  0.00  0.00    +0.295 HD
ENDBRANCH  30  31
ENDBRANCH  28  30
ENDBRANCH   1  28
TORSDOF 8
ENDMDL
MODEL 6
REMARK VINA RESULT:     -10.2      2.402      3.972
REMARK  Name = 24764434
REMARK  8 active torsions:
REMARK  status: ('A' for Active; 'I' for Inactive)
REMARK    1  A    between atoms: C_1  and  N_4
REMARK    2  A    between atoms: C_1  and  C_17
REMARK    3  A    between atoms: C_1  and  C_28
REMARK    4  A    between atoms: C_11  and  C_14
REMARK    5  A    between atoms: C_14  and  O_15
REMARK    6  A    between atoms: C_17  and  C_18
REMARK    7  A    between atoms: C_28  and  C_30
REMARK    8  A    between atoms: C_30  and  O_31
REMARK                            x       y       z     vdW  Elec       q    Type
REMARK                         _______ _______ _______ _____ _____    ______ ____
ROOT
ATOM      1  C   UNL     1      33.957 -16.283 -22.750  0.00  0.00    +0.098 C 
ENDROOT
BRANCH   1   4
ATOM      2  O   UNL     1      33.919 -13.805 -24.409  0.00  0.00    -0.269 OA
ATOM      3  O   UNL     1      32.542 -15.392 -20.280  0.00  0.00    -0.269 OA
ATOM      4  N   UNL     1      33.404 -14.981 -22.434  0.00  0.00    -0.224 N 
ATOM      5  C   UNL     1      33.452 -13.901 -23.290  0.00  0.00    +0.255 C 
ATOM      6  C   UNL     1      32.771 -14.686 -21.245  0.00  0.00    +0.255 C 
ATOM      7  C   UNL     1      32.796 -12.805 -22.578  0.00  0.00    +0.059 C 
ATOM      8  C   UNL     1      32.384 -13.279 -21.342  0.00  0.00    +0.058 C 
ATOM      9  C   UNL     1      32.573 -11.501 -22.971  0.00  0.00    +0.011 C 
ATOM     10  C   UNL     1      31.726 -12.476 -20.433  0.00  0.00    +0.005 C 
ATOM     11  C   UNL     1      31.908 -10.667 -22.066  0.00  0.00    +0.076 C 
ATOM     12  C   UNL     1      31.490 -11.151 -20.809  0.00  0.00    +0.007 C 
BRANCH  11  14
ATOM     13  O   UNL     1      31.221  -8.896 -23.520  0.00  0.00    -0.245 OA
ATOM     14  C   UNL     1      31.643  -9.283 -22.425  0.00  0.00    +0.338 C 
BRANCH  14  15
ATOM     15  O   UNL     1      31.911  -8.422 -21.406  0.00  0.00    -0.477 OA
ATOM     16  H   UNL     1      31.255  -8.234 -20.765  0.00  0.00    +0.295 HD
ENDBRANCH  14  15
ENDBRANCH  11  14
ENDBRANCH   1   4
BRANCH   1  17
ATOM     17  C   UNL     1      34.691 -16.884 -21.532  0.00  0.00    +0.047 C 
BRANCH  17  18
ATOM     18  C   UNL     1      34.211 -18.243 -21.081  0.00  0.00    -0.020 C 
ATOM     19  C   UNL     1      35.102 -19.259 -20.700  0.00  0.00    -0.004 C 
ATOM     20  C   UNL     1      32.832 -18.459 -21.057  0.00  0.00    -0.004 C 
ATOM     21  C   UNL     1      34.590 -20.512 -20.287  0.00  0.00    -0.000 C 
ATOM     22  C   UNL     1      36.493 -19.059 -20.719  0.00  0.00    -0.000 C 
ATOM     23  C   UNL     1      32.327 -19.691 -20.651  0.00  0.00    -0.000 C 
ATOM     24  C   UNL     1      33.199 -20.712 -20.269  0.00  0.00    -0.000 C 
ATOM     25  C   UNL     1      35.480 -21.527 -19.905  0.00  0.00    -0.000 C 
ATOM     26  C   UNL     1      37.363 -20.079 -20.336  0.00  0.00    -0.000 C 
ATOM     27  C   UNL     1      36.858 -21.311 -19.930  0.00  0.00    -0.000 C 
ENDBRANCH  17  18
ENDBRANCH   1  17
BRANCH   1  28
ATOM     28  C   UNL     1      34.801 -16.200 -24.030  0.00  0.00    +0.130 C 
BRANCH  28  30
ATOM     29  O   UNL     1      34.281 -18.290 -25.163  0.00  0.00    -0.250 OA
ATOM     30  C   UNL     1      34.276 -17.068 -25.153  0.00  0.00    +0.316 C 
BRANCH  30  31
ATOM     31  O   UNL     1      33.750 -16.322 -26.159  0.00  0.00    -0.480 OA
ATOM     32  H   UNL     1      33.207 -16.725 -26.806  0.00  0.00    +0.295 HD
ENDBRANCH  30  31
ENDBRANCH  28  30
ENDBRANCH   1  28
TORSDOF 8
ENDMDL
MODEL 7
REMARK VINA RESULT:     -10.1      2.721      9.349
REMARK  Name = 24764434
REMARK  8 active torsions:
REMARK  status: ('A' for Active; 'I' for Inactive)
REMARK    1  A    between atoms: C_1  and  N_4
REMARK    2  A    between atoms: C_1  and  C_17
REMARK    3  A    between atoms: C_1  and  C_28
REMARK    4  A    between atoms: C_11  and  C_14
REMARK    5  A    between atoms: C_14  and  O_15
REMARK    6  A    between atoms: C_17  and  C_18
REMARK    7  A    between atoms: C_28  and  C_30
REMARK    8  A    between atoms: C_30  and  O_31
REMARK                            x       y       z     vdW  Elec       q    Type
REMARK                         _______ _______ _______ _____ _____    ______ ____
ROOT
ATOM      1  C   UNL     1      31.941  -8.615 -22.195  0.00  0.00    +0.098 C 
ENDROOT
BRANCH   1   4
ATOM      2  O   UNL     1      33.747  -9.874 -24.207  0.00  0.00    -0.269 OA
ATOM      3  O   UNL     1      30.915 -10.993 -20.716  0.00  0.00    -0.269 OA
ATOM      4  N   UNL     1      32.235 -10.018 -22.406  0.00  0.00    -0.224 N 
ATOM      5  C   UNL     1      33.093 -10.483 -23.381  0.00  0.00    +0.255 C 
ATOM      6  C   UNL     1      31.689 -11.036 -21.653  0.00  0.00    +0.255 C 
ATOM      7  C   UNL     1      33.089 -11.939 -23.248  0.00  0.00    +0.059 C 
ATOM      8  C   UNL     1      32.241 -12.274 -22.204  0.00  0.00    +0.058 C 
ATOM      9  C   UNL     1      33.768 -12.897 -23.975  0.00  0.00    +0.011 C 
ATOM     10  C   UNL     1      32.027 -13.585 -21.828  0.00  0.00    +0.005 C 
ATOM     11  C   UNL     1      33.566 -14.232 -23.612  0.00  0.00    +0.076 C 
ATOM     12  C   UNL     1      32.704 -14.572 -22.550  0.00  0.00    +0.007 C 
BRANCH  11  14
ATOM     13  O   UNL     1      33.907 -15.746 -25.433  0.00  0.00    -0.245 OA
ATOM     14  C   UNL     1      34.255 -15.286 -24.340  0.00  0.00    +0.338 C 
BRANCH  14  15
ATOM     15  O   UNL     1      35.360 -15.734 -23.684  0.00  0.00    -0.477 OA
ATOM     16  H   UNL     1      36.054 -16.145 -24.161  0.00  0.00    +0.295 HD
ENDBRANCH  14  15
ENDBRANCH  11  14
ENDBRANCH   1   4
BRANCH   1  17
ATOM     17  C   UNL     1      31.597  -7.914 -23.527  0.00  0.00    +0.047 C 
BRANCH  17  18
ATOM     18  C   UNL     1      31.385  -6.421 -23.447  0.00  0.00    -0.020 C 
ATOM     19  C   UNL     1      31.913  -5.542 -24.406  0.00  0.00    -0.004 C 
ATOM     20  C   UNL     1      30.637  -5.938 -22.373  0.00  0.00    -0.004 C 
ATOM     21  C   UNL     1      31.679  -4.152 -24.275  0.00  0.00    -0.000 C 
ATOM     22  C   UNL     1      32.669  -6.011 -25.493  0.00  0.00    -0.000 C 
ATOM     23  C   UNL     1      30.406  -4.571 -22.243  0.00  0.00    -0.000 C 
ATOM     24  C   UNL     1      30.923  -3.683 -23.187  0.00  0.00    -0.000 C 
ATOM     25  C   UNL     1      32.206  -3.273 -25.233  0.00  0.00    -0.000 C 
ATOM     26  C   UNL     1      33.186  -5.123 -26.436  0.00  0.00    -0.000 C 
ATOM     27  C   UNL     1      32.955  -3.756 -26.307  0.00  0.00    -0.000 C 
ENDBRANCH  17  18
ENDBRANCH   1  17
BRANCH   1  28
ATOM     28  C   UNL     1      33.075  -7.954 -21.397  0.00  0.00    +0.130 C 
BRANCH  28  30
ATOM     29  O   UNL     1      32.962  -6.553 -19.411  0.00  0.00    -0.250 OA
ATOM     30  C   UNL     1      32.685  -7.599 -19.980  0.00  0.00    +0.316 C 
BRANCH  30  31
ATOM     31  O   UNL     1      31.939  -8.579 -19.404  0.00  0.00    -0.480 OA
ATOM     32  H   UNL     1      31.214  -8.354 -18.855  0.00  0.00    +0.295 HD
ENDBRANCH  30  31
ENDBRANCH  28  30
ENDBRANCH   1  28
TORSDOF 8
ENDMDL
MODEL 8
REMARK VINA RESULT:     -10.1      2.451      7.655
REMARK  Name = 24764434
REMARK  8 active torsions:
REMARK  status: ('A' for Active; 'I' for Inactive)
REMARK    1  A    between atoms: C_1  and  N_4
REMARK    2  A    between atoms: C_1  and  C_17
REMARK    3  A    between atoms: C_1  and  C_28
REMARK    4  A    between atoms: C_11  and  C_14
REMARK    5  A    between atoms: C_14  and  O_15
REMARK    6  A    between atoms: C_17  and  C_18
REMARK    7  A    between atoms: C_28  and  C_30
REMARK    8  A    between atoms: C_30  and  O_31
REMARK                            x       y       z     vdW  Elec       q    Type
REMARK                         _______ _______ _______ _____ _____    ______ ____
ROOT
ATOM      1  C   UNL     1      33.720 -12.204 -24.051  0.00  0.00    +0.098 C 
ENDROOT
BRANCH   1   4
ATOM      2  O   UNL     1      34.570 -13.651 -21.586  0.00  0.00    -0.269 OA
ATOM      3  O   UNL     1      33.491 -14.429 -26.023  0.00  0.00    -0.269 OA
ATOM      4  N   UNL     1      33.968 -13.619 -23.863  0.00  0.00    -0.224 N 
ATOM      5  C   UNL     1      34.365 -14.174 -22.664  0.00  0.00    +0.255 C 
ATOM      6  C   UNL     1      33.831 -14.559 -24.862  0.00  0.00    +0.255 C 
ATOM      7  C   UNL     1      34.506 -15.607 -22.922  0.00  0.00    +0.059 C 
ATOM      8  C   UNL     1      34.184 -15.840 -24.250  0.00  0.00    +0.058 C 
ATOM      9  C   UNL     1      34.883 -16.627 -22.072  0.00  0.00    +0.011 C 
ATOM     10  C   UNL     1      34.219 -17.106 -24.800  0.00  0.00    +0.005 C 
ATOM     11  C   UNL     1      34.927 -17.918 -22.607  0.00  0.00    +0.076 C 
ATOM     12  C   UNL     1      34.599 -18.154 -23.958  0.00  0.00    +0.007 C 
BRANCH  11  14
ATOM     13  O   UNL     1      34.979 -20.211 -21.926  0.00  0.00    -0.245 OA
ATOM     14  C   UNL     1      35.317 -19.034 -21.759  0.00  0.00    +0.338 C 
BRANCH  14  15
ATOM     15  O   UNL     1      36.118 -18.650 -20.728  0.00  0.00    -0.477 OA
ATOM     16  H   UNL     1      36.051 -17.782 -20.382  0.00  0.00    +0.295 HD
ENDBRANCH  14  15
ENDBRANCH  11  14
ENDBRANCH   1   4
BRANCH   1  17
ATOM     17  C   UNL     1      32.293 -11.826 -23.597  0.00  0.00    +0.047 C 
BRANCH  17  18
ATOM     18  C   UNL     1      32.170 -10.530 -22.830  0.00  0.00    -0.020 C 
ATOM     19  C   UNL     1      31.936 -10.505 -21.446  0.00  0.00    -0.004 C 
ATOM     20  C   UNL     1      32.299  -9.344 -23.553  0.00  0.00    -0.004 C 
ATOM     21  C   UNL     1      31.831  -9.258 -20.784  0.00  0.00    -0.000 C 
ATOM     22  C   UNL     1      31.803 -11.690 -20.703  0.00  0.00    -0.000 C 
ATOM     23  C   UNL     1      32.196  -8.117 -22.903  0.00  0.00    -0.000 C 
ATOM     24  C   UNL     1      31.963  -8.073 -21.528  0.00  0.00    -0.000 C 
ATOM     25  C   UNL     1      31.596  -9.232 -19.401  0.00  0.00    -0.000 C 
ATOM     26  C   UNL     1      31.571 -11.645 -19.328  0.00  0.00    -0.000 C 
ATOM     27  C   UNL     1      31.467 -10.418 -18.678  0.00  0.00    -0.000 C 
ENDBRANCH  17  18
ENDBRANCH   1  17
BRANCH   1  28
ATOM     28  C   UNL     1      34.064 -11.795 -25.490  0.00  0.00    +0.130 C 
BRANCH  28  30
ATOM     29  O   UNL     1      35.688 -10.365 -26.604  0.00  0.00    -0.250 OA
ATOM     30  C   UNL     1      35.151 -10.747 -25.574  0.00  0.00    +0.316 C 
BRANCH  30  31
ATOM     31  O   UNL     1      35.448 -10.233 -24.351  0.00  0.00    -0.480 OA
ATOM     32  H   UNL     1      36.148 -10.597 -23.848  0.00  0.00    +0.295 HD
ENDBRANCH  30  31
ENDBRANCH  28  30
ENDBRANCH   1  28
TORSDOF 8
ENDMDL
MODEL 9
REMARK VINA RESULT:     -10.0      2.580      3.993
REMARK  Name = 24764434
REMARK  8 active torsions:
REMARK  status: ('A' for Active; 'I' for Inactive)
REMARK    1  A    between atoms: C_1  and  N_4
REMARK    2  A    between atoms: C_1  and  C_17
REMARK    3  A    between atoms: C_1  and  C_28
REMARK    4  A    between atoms: C_11  and  C_14
REMARK    5  A    between atoms: C_14  and  O_15
REMARK    6  A    between atoms: C_17  and  C_18
REMARK    7  A    between atoms: C_28  and  C_30
REMARK    8  A    between atoms: C_30  and  O_31
REMARK                            x       y       z     vdW  Elec       q    Type
REMARK                         _______ _______ _______ _____ _____    ______ ____
ROOT
ATOM      1  C   UNL     1      34.119 -16.476 -22.752  0.00  0.00    +0.098 C 
ENDROOT
BRANCH   1   4
ATOM      2  O   UNL     1      33.668 -15.399 -20.007  0.00  0.00    -0.269 OA
ATOM      3  O   UNL     1      33.009 -14.296 -24.458  0.00  0.00    -0.269 OA
ATOM      4  N   UNL     1      33.509 -15.224 -22.351  0.00  0.00    -0.224 N 
ATOM      5  C   UNL     1      33.351 -14.835 -21.037  0.00  0.00    +0.255 C 
ATOM      6  C   UNL     1      33.024 -14.290 -23.241  0.00  0.00    +0.255 C 
ATOM      7  C   UNL     1      32.693 -13.530 -21.089  0.00  0.00    +0.059 C 
ATOM      8  C   UNL     1      32.495 -13.200 -22.421  0.00  0.00    +0.058 C 
ATOM      9  C   UNL     1      32.297 -12.696 -20.063  0.00  0.00    +0.011 C 
ATOM     10  C   UNL     1      31.892 -12.017 -22.799  0.00  0.00    +0.005 C 
ATOM     11  C   UNL     1      31.684 -11.492 -20.421  0.00  0.00    +0.076 C 
ATOM     12  C   UNL     1      31.483 -11.157 -21.776  0.00  0.00    +0.007 C 
BRANCH  11  14
ATOM     13  O   UNL     1      30.109 -10.519 -18.906  0.00  0.00    -0.245 OA
ATOM     14  C   UNL     1      31.247 -10.571 -19.384  0.00  0.00    +0.338 C 
BRANCH  14  15
ATOM     15  O   UNL     1      32.244  -9.742 -18.971  0.00  0.00    -0.477 OA
ATOM     16  H   UNL     1      32.478  -8.997 -19.487  0.00  0.00    +0.295 HD
ENDBRANCH  14  15
ENDBRANCH  11  14
ENDBRANCH   1   4
BRANCH   1  17
ATOM     17  C   UNL     1      34.885 -17.120 -21.576  0.00  0.00    +0.047 C 
BRANCH  17  18
ATOM     18  C   UNL     1      34.333 -18.434 -21.075  0.00  0.00    -0.020 C 
ATOM     19  C   UNL     1      35.169 -19.470 -20.626  0.00  0.00    -0.004 C 
ATOM     20  C   UNL     1      32.946 -18.586 -21.072  0.00  0.00    -0.004 C 
ATOM     21  C   UNL     1      34.590 -20.677 -20.169  0.00  0.00    -0.000 C 
ATOM     22  C   UNL     1      36.567 -19.333 -20.623  0.00  0.00    -0.000 C 
ATOM     23  C   UNL     1      32.376 -19.774 -20.622  0.00  0.00    -0.000 C 
ATOM     24  C   UNL     1      33.191 -20.814 -20.173  0.00  0.00    -0.000 C 
ATOM     25  C   UNL     1      35.425 -21.713 -19.721  0.00  0.00    -0.000 C 
ATOM     26  C   UNL     1      37.381 -20.373 -20.174  0.00  0.00    -0.000 C 
ATOM     27  C   UNL     1      36.811 -21.561 -19.723  0.00  0.00    -0.000 C 
ENDBRANCH  17  18
ENDBRANCH   1  17
BRANCH   1  28
ATOM     28  C   UNL     1      34.953 -16.272 -24.025  0.00  0.00    +0.130 C 
BRANCH  28  30
ATOM     29  O   UNL     1      34.550 -18.321 -25.273  0.00  0.00    -0.250 OA
ATOM     30  C   UNL     1      34.476 -17.103 -25.195  0.00  0.00    +0.316 C 
BRANCH  30  31
ATOM     31  O   UNL     1      33.906 -16.333 -26.159  0.00  0.00    -0.480 OA
ATOM     32  H   UNL     1      34.431 -15.731 -26.647  0.00  0.00    +0.295 HD
ENDBRANCH  30  31
ENDBRANCH  28  30
ENDBRANCH   1  28
TORSDOF 8
ENDMDL
