MODEL 1
REMARK VINA RESULT:      -9.6      0.000      0.000
REMARK  Name = 6446
REMARK  2 active torsions:
REMARK  status: ('A' for Active; 'I' for Inactive)
REMARK    1  A    between atoms: C_7  and  O_23
REMARK    2  A    between atoms: C_10  and  O_25
REMARK                            x       y       z     vdW  Elec       q    Type
REMARK                         _______ _______ _______ _____ _____    ______ ____
ROOT
ATOM      1  F   UNL     1      35.051 -25.498 -15.070  0.00  0.00    -0.237 F 
ATOM      2  O   UNL     1      40.226 -25.993 -14.566  0.00  0.00    -0.291 OA
ATOM      3  C   UNL     1      32.102 -23.670 -14.593  0.00  0.00    +0.025 C 
ATOM      4  C   UNL     1      33.107 -23.566 -15.757  0.00  0.00    +0.005 C 
ATOM      5  C   UNL     1      34.535 -23.224 -15.301  0.00  0.00    +0.033 C 
ATOM      6  C   UNL     1      35.040 -24.331 -14.321  0.00  0.00    +0.161 C 
ATOM      7  C   UNL     1      30.775 -23.918 -15.383  0.00  0.00    +0.088 C 
ATOM      8  C   UNL     1      32.576 -24.806 -13.665  0.00  0.00    +0.034 C 
ATOM      9  C   UNL     1      36.540 -24.105 -13.866  0.00  0.00    +0.046 C 
ATOM     10  C   UNL     1      34.029 -24.622 -13.171  0.00  0.00    +0.141 C 
ATOM     11  C   UNL     1      32.411 -22.633 -16.744  0.00  0.00    +0.003 C 
ATOM     12  C   UNL     1      30.916 -22.981 -16.615  0.00  0.00    +0.027 C 
ATOM     13  C   UNL     1      35.469 -23.121 -16.517  0.00  0.00    +0.007 C 
ATOM     14  C   UNL     1      31.960 -22.350 -13.779  0.00  0.00    +0.002 C 
ATOM     15  C   UNL     1      37.411 -23.880 -15.111  0.00  0.00    -0.039 C 
ATOM     16  C   UNL     1      36.910 -22.859 -16.104  0.00  0.00    +0.022 C 
ATOM     17  C   UNL     1      37.020 -25.372 -13.101  0.00  0.00    +0.014 C 
ATOM     18  C   UNL     1      30.531 -25.365 -15.829  0.00  0.00    +0.029 C 
ATOM     19  C   UNL     1      36.732 -22.870 -12.954  0.00  0.00    +0.007 C 
ATOM     20  C   UNL     1      38.532 -25.461 -12.959  0.00  0.00    +0.070 C 
ATOM     21  C   UNL     1      38.582 -24.500 -15.333  0.00  0.00    +0.029 C 
ATOM     22  C   UNL     1      39.183 -25.393 -14.315  0.00  0.00    +0.173 C 
ENDROOT
BRANCH   7  23
ATOM     23  O   UNL     1      29.641 -23.535 -14.608  0.00  0.00    -0.387 OA
ATOM     24  H   UNL     1      29.604 -22.568 -14.545  0.00  0.00    +0.210 HD
ENDBRANCH   7  23
BRANCH  10  25
ATOM     25  O   UNL     1      34.069 -23.620 -12.167  0.00  0.00    -0.382 OA
ATOM     26  H   UNL     1      33.838 -22.762 -12.557  0.00  0.00    +0.210 HD
ENDBRANCH  10  25
TORSDOF 2
ENDMDL
MODEL 2
REMARK VINA RESULT:      -7.7     10.670     13.054
REMARK  Name = 6446
REMARK  2 active torsions:
REMARK  status: ('A' for Active; 'I' for Inactive)
REMARK    1  A    between atoms: C_7  and  O_23
REMARK    2  A    between atoms: C_10  and  O_25
REMARK                            x       y       z     vdW  Elec       q    Type
REMARK                         _______ _______ _______ _____ _____    ______ ____
ROOT
ATOM      1  F   UNL     1      35.560 -14.944 -23.368  0.00  0.00    -0.237 F 
ATOM      2  O   UNL     1      34.429 -10.526 -25.916  0.00  0.00    -0.291 OA
ATOM      3  C   UNL     1      34.539 -17.811 -21.634  0.00  0.00    +0.025 C 
ATOM      4  C   UNL     1      34.678 -17.620 -23.158  0.00  0.00    +0.005 C 
ATOM      5  C   UNL     1      33.818 -16.473 -23.710  0.00  0.00    +0.033 C 
ATOM      6  C   UNL     1      34.233 -15.137 -23.014  0.00  0.00    +0.161 C 
ATOM      7  C   UNL     1      35.434 -19.075 -21.422  0.00  0.00    +0.088 C 
ATOM      8  C   UNL     1      35.010 -16.509 -20.955  0.00  0.00    +0.034 C 
ATOM      9  C   UNL     1      33.454 -13.883 -23.586  0.00  0.00    +0.046 C 
ATOM     10  C   UNL     1      34.263 -15.254 -21.460  0.00  0.00    +0.141 C 
ATOM     11  C   UNL     1      34.466 -19.026 -23.711  0.00  0.00    +0.003 C 
ATOM     12  C   UNL     1      35.103 -19.954 -22.660  0.00  0.00    +0.027 C 
ATOM     13  C   UNL     1      33.997 -16.360 -25.232  0.00  0.00    +0.007 C 
ATOM     14  C   UNL     1      33.086 -18.143 -21.184  0.00  0.00    +0.002 C 
ATOM     15  C   UNL     1      33.557 -13.887 -25.119  0.00  0.00    -0.039 C 
ATOM     16  C   UNL     1      33.220 -15.186 -25.810  0.00  0.00    +0.022 C 
ATOM     17  C   UNL     1      34.106 -12.592 -23.011  0.00  0.00    +0.014 C 
ATOM     18  C   UNL     1      36.942 -18.812 -21.332  0.00  0.00    +0.029 C 
ATOM     19  C   UNL     1      31.947 -13.877 -23.237  0.00  0.00    +0.007 C 
ATOM     20  C   UNL     1      33.730 -11.329 -23.771  0.00  0.00    +0.070 C 
ATOM     21  C   UNL     1      33.884 -12.811 -25.854  0.00  0.00    +0.029 C 
ATOM     22  C   UNL     1      34.073 -11.482 -25.229  0.00  0.00    +0.173 C 
ENDROOT
BRANCH   7  23
ATOM     23  O   UNL     1      35.069 -19.763 -20.226  0.00  0.00    -0.387 OA
ATOM     24  H   UNL     1      35.860 -20.145 -19.818  0.00  0.00    +0.210 HD
ENDBRANCH   7  23
BRANCH  10  25
ATOM     25  O   UNL     1      32.959 -15.217 -20.902  0.00  0.00    -0.382 OA
ATOM     26  H   UNL     1      32.374 -15.802 -21.409  0.00  0.00    +0.210 HD
ENDBRANCH  10  25
TORSDOF 2
ENDMDL
