MODEL 1
REMARK VINA RESULT:      -7.7      0.000      0.000
REMARK  Name = 1053
REMARK  8 active torsions:
REMARK  status: ('A' for Active; 'I' for Inactive)
REMARK    1  A    between atoms: C_2  and  C_18
REMARK    2  A    between atoms: C_3  and  C_10
REMARK    3  A    between atoms: C_4  and  O_8
REMARK    4  A    between atoms: C_10  and  O_11
REMARK    5  A    between atoms: O_11  and  P_12
REMARK    6  A    between atoms: P_12  and  O_14
REMARK    7  A    between atoms: P_12  and  O_16
REMARK    8  A    between atoms: C_18  and  N_19
REMARK                            x       y       z     vdW  Elec       q    Type
REMARK                         _______ _______ _______ _____ _____    ______ ____
ROOT
ATOM      1  N   UNL     1      35.489 -24.848 -15.553  0.00  0.00    -0.245 NA
ATOM      2  C   UNL     1      36.000 -24.653 -12.812  0.00  0.00    -0.009 C 
ATOM      3  C   UNL     1      36.900 -25.310 -13.644  0.00  0.00    +0.024 C 
ATOM      4  C   UNL     1      34.846 -24.093 -13.348  0.00  0.00    +0.141 C 
ATOM      5  C   UNL     1      34.639 -24.217 -14.713  0.00  0.00    +0.092 C 
ATOM      6  C   UNL     1      36.601 -25.379 -14.996  0.00  0.00    +0.096 C 
ATOM      7  C   UNL     1      33.416 -23.634 -15.341  0.00  0.00    +0.055 C 
ENDROOT
BRANCH   4   8
ATOM      8  O   UNL     1      33.950 -23.445 -12.560  0.00  0.00    -0.505 OA
ATOM      9  H   UNL     1      33.498 -22.691 -12.886  0.00  0.00    +0.292 HD
ENDBRANCH   4   8
BRANCH   3  10
ATOM     10  C   UNL     1      38.151 -25.928 -13.124  0.00  0.00    +0.181 C 
BRANCH  10  11
ATOM     11  O   UNL     1      38.887 -26.489 -14.205  0.00  0.00    -0.268 OA
BRANCH  11  12
ATOM     12  P   UNL     1      40.347 -25.879 -14.536  0.00  0.00    +0.473 P 
ATOM     13  O   UNL     1      40.634 -24.544 -13.913  0.00  0.00    -0.227 OA
BRANCH  12  14
ATOM     14  O   UNL     1      40.424 -25.919 -16.151  0.00  0.00    -0.303 OA
ATOM     15  H   UNL     1      39.876 -25.208 -16.519  0.00  0.00    +0.222 HD
ENDBRANCH  12  14
BRANCH  12  16
ATOM     16  O   UNL     1      41.342 -27.071 -14.086  0.00  0.00    -0.303 OA
ATOM     17  H   UNL     1      41.913 -26.761 -13.366  0.00  0.00    +0.222 HD
ENDBRANCH  12  16
ENDBRANCH  11  12
ENDBRANCH  10  11
ENDBRANCH   3  10
BRANCH   2  18
ATOM     18  C   UNL     1      36.271 -24.545 -11.345  0.00  0.00    -0.056 C 
BRANCH  18  19
ATOM     19  N   UNL     1      36.861 -23.256 -10.984  0.00  0.00    +0.383 N 
ATOM     20  H   UNL     1      37.238 -22.810 -11.820  0.00  0.00    -0.089 HD
ATOM     21  H   UNL     1      37.612 -23.404 -10.310  0.00  0.00    -0.089 HD
ATOM     22  H   UNL     1      36.146 -22.658 -10.572  0.00  0.00    -0.089 HD
ENDBRANCH  18  19
ENDBRANCH   2  18
TORSDOF 8
ENDMDL
MODEL 2
REMARK VINA RESULT:      -7.2      5.121      7.927
REMARK  Name = 1053
REMARK  8 active torsions:
REMARK  status: ('A' for Active; 'I' for Inactive)
REMARK    1  A    between atoms: C_2  and  C_18
REMARK    2  A    between atoms: C_3  and  C_10
REMARK    3  A    between atoms: C_4  and  O_8
REMARK    4  A    between atoms: C_10  and  O_11
REMARK    5  A    between atoms: O_11  and  P_12
REMARK    6  A    between atoms: P_12  and  O_14
REMARK    7  A    between atoms: P_12  and  O_16
REMARK    8  A    between atoms: C_18  and  N_19
REMARK                            x       y       z     vdW  Elec       q    Type
REMARK                         _______ _______ _______ _____ _____    ______ ____
ROOT
ATOM      1  N   UNL     1      34.587 -23.895 -16.273  0.00  0.00    -0.245 NA
ATOM      2  C   UNL     1      32.375 -23.781 -14.569  0.00  0.00    -0.009 C 
ATOM      3  C   UNL     1      32.263 -23.351 -15.886  0.00  0.00    +0.024 C 
ATOM      4  C   UNL     1      33.590 -24.268 -14.102  0.00  0.00    +0.141 C 
ATOM      5  C   UNL     1      34.657 -24.304 -14.987  0.00  0.00    +0.092 C 
ATOM      6  C   UNL     1      33.389 -23.429 -16.691  0.00  0.00    +0.096 C 
ATOM      7  C   UNL     1      35.985 -24.818 -14.538  0.00  0.00    +0.055 C 
ENDROOT
BRANCH   4   8
ATOM      8  O   UNL     1      33.729 -24.694 -12.820  0.00  0.00    -0.505 OA
ATOM      9  H   UNL     1      34.566 -24.980 -12.509  0.00  0.00    +0.292 HD
ENDBRANCH   4   8
BRANCH   3  10
ATOM     10  C   UNL     1      30.986 -22.821 -16.439  0.00  0.00    +0.181 C 
BRANCH  10  11
ATOM     11  O   UNL     1      30.046 -23.882 -16.564  0.00  0.00    -0.268 OA
BRANCH  11  12
ATOM     12  P   UNL     1      28.473 -23.511 -16.607  0.00  0.00    +0.473 P 
ATOM     13  O   UNL     1      27.674 -24.253 -17.638  0.00  0.00    -0.227 OA
BRANCH  12  14
ATOM     14  O   UNL     1      28.461 -21.901 -16.750  0.00  0.00    -0.303 OA
ATOM     15  H   UNL     1      28.904 -21.646 -17.574  0.00  0.00    +0.222 HD
ENDBRANCH  12  14
BRANCH  12  16
ATOM     16  O   UNL     1      28.008 -23.753 -15.077  0.00  0.00    -0.303 OA
ATOM     17  H   UNL     1      27.400 -23.047 -14.809  0.00  0.00    +0.222 HD
ENDBRANCH  12  16
ENDBRANCH  11  12
ENDBRANCH  10  11
ENDBRANCH   3  10
BRANCH   2  18
ATOM     18  C   UNL     1      31.193 -23.723 -13.654  0.00  0.00    -0.056 C 
BRANCH  18  19
ATOM     19  N   UNL     1      30.525 -25.018 -13.530  0.00  0.00    +0.383 N 
ATOM     20  H   UNL     1      31.038 -25.717 -14.066  0.00  0.00    -0.089 HD
ATOM     21  H   UNL     1      29.573 -24.945 -13.891  0.00  0.00    -0.089 HD
ATOM     22  H   UNL     1      30.496 -25.294 -12.550  0.00  0.00    -0.089 HD
ENDBRANCH  18  19
ENDBRANCH   2  18
TORSDOF 8
ENDMDL
MODEL 3
REMARK VINA RESULT:      -7.0      2.694      3.672
REMARK  Name = 1053
REMARK  8 active torsions:
REMARK  status: ('A' for Active; 'I' for Inactive)
REMARK    1  A    between atoms: C_2  and  C_18
REMARK    2  A    between atoms: C_3  and  C_10
REMARK    3  A    between atoms: C_4  and  O_8
REMARK    4  A    between atoms: C_10  and  O_11
REMARK    5  A    between atoms: O_11  and  P_12
REMARK    6  A    between atoms: P_12  and  O_14
REMARK    7  A    between atoms: P_12  and  O_16
REMARK    8  A    between atoms: C_18  and  N_19
REMARK                            x       y       z     vdW  Elec       q    Type
REMARK                         _______ _______ _______ _____ _____    ______ ____
ROOT
ATOM      1  N   UNL     1      35.653 -22.419 -17.614  0.00  0.00    -0.245 NA
ATOM      2  C   UNL     1      34.374 -23.646 -15.453  0.00  0.00    -0.009 C 
ATOM      3  C   UNL     1      35.744 -23.408 -15.409  0.00  0.00    +0.024 C 
ATOM      4  C   UNL     1      33.644 -23.271 -16.574  0.00  0.00    +0.141 C 
ATOM      5  C   UNL     1      34.325 -22.666 -17.620  0.00  0.00    +0.092 C 
ATOM      6  C   UNL     1      36.330 -22.797 -16.507  0.00  0.00    +0.096 C 
ATOM      7  C   UNL     1      33.588 -22.243 -18.848  0.00  0.00    +0.055 C 
ENDROOT
BRANCH   4   8
ATOM      8  O   UNL     1      32.305 -23.490 -16.645  0.00  0.00    -0.505 OA
ATOM      9  H   UNL     1      31.854 -23.872 -15.917  0.00  0.00    +0.292 HD
ENDBRANCH   4   8
BRANCH   3  10
ATOM     10  C   UNL     1      36.575 -23.789 -14.234  0.00  0.00    +0.181 C 
BRANCH  10  11
ATOM     11  O   UNL     1      37.569 -24.722 -14.639  0.00  0.00    -0.268 OA
BRANCH  11  12
ATOM     12  P   UNL     1      37.197 -26.295 -14.621  0.00  0.00    +0.473 P 
ATOM     13  O   UNL     1      36.261 -26.740 -15.707  0.00  0.00    -0.227 OA
BRANCH  12  14
ATOM     14  O   UNL     1      36.675 -26.549 -13.111  0.00  0.00    -0.303 OA
ATOM     15  H   UNL     1      36.213 -25.759 -12.792  0.00  0.00    +0.222 HD
ENDBRANCH  12  14
BRANCH  12  16
ATOM     16  O   UNL     1      38.649 -27.006 -14.637  0.00  0.00    -0.303 OA
ATOM     17  H   UNL     1      38.885 -27.239 -15.548  0.00  0.00    +0.222 HD
ENDBRANCH  12  16
ENDBRANCH  11  12
ENDBRANCH  10  11
ENDBRANCH   3  10
BRANCH   2  18
ATOM     18  C   UNL     1      33.686 -24.300 -14.297  0.00  0.00    -0.056 C 
BRANCH  18  19
ATOM     19  N   UNL     1      32.792 -23.382 -13.593  0.00  0.00    +0.383 N 
ATOM     20  H   UNL     1      32.134 -22.973 -14.257  0.00  0.00    -0.089 HD
ATOM     21  H   UNL     1      33.341 -22.640 -13.158  0.00  0.00    -0.089 HD
ATOM     22  H   UNL     1      32.279 -23.890 -12.875  0.00  0.00    -0.089 HD
ENDBRANCH  18  19
ENDBRANCH   2  18
TORSDOF 8
ENDMDL
MODEL 4
REMARK VINA RESULT:      -6.9      3.512      4.704
REMARK  Name = 1053
REMARK  8 active torsions:
REMARK  status: ('A' for Active; 'I' for Inactive)
REMARK    1  A    between atoms: C_2  and  C_18
REMARK    2  A    between atoms: C_3  and  C_10
REMARK    3  A    between atoms: C_4  and  O_8
REMARK    4  A    between atoms: C_10  and  O_11
REMARK    5  A    between atoms: O_11  and  P_12
REMARK    6  A    between atoms: P_12  and  O_14
REMARK    7  A    between atoms: P_12  and  O_16
REMARK    8  A    between atoms: C_18  and  N_19
REMARK                            x       y       z     vdW  Elec       q    Type
REMARK                         _______ _______ _______ _____ _____    ______ ____
ROOT
ATOM      1  N   UNL     1      34.936 -23.340 -16.714  0.00  0.00    -0.245 NA
ATOM      2  C   UNL     1      32.672 -23.537 -15.086  0.00  0.00    -0.009 C 
ATOM      3  C   UNL     1      33.930 -23.817 -14.567  0.00  0.00    +0.024 C 
ATOM      4  C   UNL     1      32.543 -23.158 -16.418  0.00  0.00    +0.141 C 
ATOM      5  C   UNL     1      33.696 -23.075 -17.183  0.00  0.00    +0.092 C 
ATOM      6  C   UNL     1      35.021 -23.705 -15.415  0.00  0.00    +0.096 C 
ATOM      7  C   UNL     1      33.615 -22.673 -18.619  0.00  0.00    +0.055 C 
ENDROOT
BRANCH   4   8
ATOM      8  O   UNL     1      31.326 -22.877 -16.953  0.00  0.00    -0.505 OA
ATOM      9  H   UNL     1      30.763 -22.256 -16.535  0.00  0.00    +0.292 HD
ENDBRANCH   4   8
BRANCH   3  10
ATOM     10  C   UNL     1      34.127 -24.227 -13.149  0.00  0.00    +0.181 C 
BRANCH  10  11
ATOM     11  O   UNL     1      35.371 -23.722 -12.677  0.00  0.00    -0.268 OA
BRANCH  11  12
ATOM     12  P   UNL     1      36.266 -24.665 -11.717  0.00  0.00    +0.473 P 
ATOM     13  O   UNL     1      37.527 -24.034 -11.203  0.00  0.00    -0.227 OA
BRANCH  12  14
ATOM     14  O   UNL     1      36.472 -26.013 -12.586  0.00  0.00    -0.303 OA
ATOM     15  H   UNL     1      37.289 -25.942 -13.105  0.00  0.00    +0.222 HD
ENDBRANCH  12  14
BRANCH  12  16
ATOM     16  O   UNL     1      35.213 -25.115 -10.576  0.00  0.00    -0.303 OA
ATOM     17  H   UNL     1      35.595 -25.833 -10.048  0.00  0.00    +0.222 HD
ENDBRANCH  12  16
ENDBRANCH  11  12
ENDBRANCH  10  11
ENDBRANCH   3  10
BRANCH   2  18
ATOM     18  C   UNL     1      31.458 -23.639 -14.218  0.00  0.00    -0.056 C 
BRANCH  18  19
ATOM     19  N   UNL     1      30.619 -24.783 -14.573  0.00  0.00    +0.383 N 
ATOM     20  H   UNL     1      29.821 -24.827 -13.939  0.00  0.00    -0.089 HD
ATOM     21  H   UNL     1      31.164 -25.642 -14.492  0.00  0.00    -0.089 HD
ATOM     22  H   UNL     1      30.288 -24.679 -15.531  0.00  0.00    -0.089 HD
ENDBRANCH  18  19
ENDBRANCH   2  18
TORSDOF 8
ENDMDL
MODEL 5
REMARK VINA RESULT:      -6.9      4.001      5.294
REMARK  Name = 1053
REMARK  8 active torsions:
REMARK  status: ('A' for Active; 'I' for Inactive)
REMARK    1  A    between atoms: C_2  and  C_18
REMARK    2  A    between atoms: C_3  and  C_10
REMARK    3  A    between atoms: C_4  and  O_8
REMARK    4  A    between atoms: C_10  and  O_11
REMARK    5  A    between atoms: O_11  and  P_12
REMARK    6  A    between atoms: P_12  and  O_14
REMARK    7  A    between atoms: P_12  and  O_16
REMARK    8  A    between atoms: C_18  and  N_19
REMARK                            x       y       z     vdW  Elec       q    Type
REMARK                         _______ _______ _______ _____ _____    ______ ____
ROOT
ATOM      1  N   UNL     1      36.493 -21.324 -18.533  0.00  0.00    -0.245 NA
ATOM      2  C   UNL     1      34.217 -22.724 -17.714  0.00  0.00    -0.009 C 
ATOM      3  C   UNL     1      35.343 -22.686 -16.899  0.00  0.00    +0.024 C 
ATOM      4  C   UNL     1      34.227 -22.063 -18.937  0.00  0.00    +0.141 C 
ATOM      5  C   UNL     1      35.380 -21.383 -19.297  0.00  0.00    +0.092 C 
ATOM      6  C   UNL     1      36.446 -21.978 -17.351  0.00  0.00    +0.096 C 
ATOM      7  C   UNL     1      35.444 -20.656 -20.600  0.00  0.00    +0.055 C 
ENDROOT
BRANCH   4   8
ATOM      8  O   UNL     1      33.141 -22.083 -19.754  0.00  0.00    -0.505 OA
ATOM      9  H   UNL     1      32.624 -21.309 -19.863  0.00  0.00    +0.292 HD
ENDBRANCH   4   8
BRANCH   3  10
ATOM     10  C   UNL     1      35.388 -23.376 -15.581  0.00  0.00    +0.181 C 
BRANCH  10  11
ATOM     11  O   UNL     1      36.014 -24.645 -15.730  0.00  0.00    -0.268 OA
BRANCH  11  12
ATOM     12  P   UNL     1      37.195 -25.043 -14.701  0.00  0.00    +0.473 P 
ATOM     13  O   UNL     1      38.081 -23.907 -14.280  0.00  0.00    -0.227 OA
BRANCH  12  14
ATOM     14  O   UNL     1      37.947 -26.273 -15.434  0.00  0.00    -0.303 OA
ATOM     15  H   UNL     1      38.844 -26.364 -15.075  0.00  0.00    +0.222 HD
ENDBRANCH  12  14
BRANCH  12  16
ATOM     16  O   UNL     1      36.391 -25.764 -13.497  0.00  0.00    -0.303 OA
ATOM     17  H   UNL     1      36.510 -25.257 -12.679  0.00  0.00    +0.222 HD
ENDBRANCH  12  16
ENDBRANCH  11  12
ENDBRANCH  10  11
ENDBRANCH   3  10
BRANCH   2  18
ATOM     18  C   UNL     1      32.997 -23.471 -17.279  0.00  0.00    -0.056 C 
BRANCH  18  19
ATOM     19  N   UNL     1      31.802 -22.628 -17.280  0.00  0.00    +0.383 N 
ATOM     20  H   UNL     1      31.629 -22.283 -16.336  0.00  0.00    -0.089 HD
ATOM     21  H   UNL     1      31.000 -23.177 -17.594  0.00  0.00    -0.089 HD
ATOM     22  H   UNL     1      31.942 -21.840 -17.911  0.00  0.00    -0.089 HD
ENDBRANCH  18  19
ENDBRANCH   2  18
TORSDOF 8
ENDMDL
MODEL 6
REMARK VINA RESULT:      -6.9     11.412     12.855
REMARK  Name = 1053
REMARK  8 active torsions:
REMARK  status: ('A' for Active; 'I' for Inactive)
REMARK    1  A    between atoms: C_2  and  C_18
REMARK    2  A    between atoms: C_3  and  C_10
REMARK    3  A    between atoms: C_4  and  O_8
REMARK    4  A    between atoms: C_10  and  O_11
REMARK    5  A    between atoms: O_11  and  P_12
REMARK    6  A    between atoms: P_12  and  O_14
REMARK    7  A    between atoms: P_12  and  O_16
REMARK    8  A    between atoms: C_18  and  N_19
REMARK                            x       y       z     vdW  Elec       q    Type
REMARK                         _______ _______ _______ _____ _____    ______ ____
ROOT
ATOM      1  N   UNL     1      33.941 -16.599 -25.980  0.00  0.00    -0.245 NA
ATOM      2  C   UNL     1      34.488 -16.008 -23.304  0.00  0.00    -0.009 C 
ATOM      3  C   UNL     1      34.968 -17.184 -23.871  0.00  0.00    +0.024 C 
ATOM      4  C   UNL     1      33.736 -15.128 -24.073  0.00  0.00    +0.141 C 
ATOM      5  C   UNL     1      33.492 -15.467 -25.395  0.00  0.00    +0.092 C 
ATOM      6  C   UNL     1      34.669 -17.430 -25.202  0.00  0.00    +0.096 C 
ATOM      7  C   UNL     1      32.690 -14.557 -26.265  0.00  0.00    +0.055 C 
ENDROOT
BRANCH   4   8
ATOM      8  O   UNL     1      33.255 -13.972 -23.546  0.00  0.00    -0.505 OA
ATOM      9  H   UNL     1      33.840 -13.362 -23.141  0.00  0.00    +0.292 HD
ENDBRANCH   4   8
BRANCH   3  10
ATOM     10  C   UNL     1      35.778 -18.162 -23.095  0.00  0.00    +0.181 C 
BRANCH  10  11
ATOM     11  O   UNL     1      34.949 -19.243 -22.682  0.00  0.00    -0.268 OA
BRANCH  11  12
ATOM     12  P   UNL     1      34.804 -19.537 -21.099  0.00  0.00    +0.473 P 
ATOM     13  O   UNL     1      35.117 -20.944 -20.683  0.00  0.00    -0.227 OA
BRANCH  12  14
ATOM     14  O   UNL     1      33.310 -19.028 -20.749  0.00  0.00    -0.303 OA
ATOM     15  H   UNL     1      33.173 -19.062 -19.789  0.00  0.00    +0.222 HD
ENDBRANCH  12  14
BRANCH  12  16
ATOM     16  O   UNL     1      35.748 -18.403 -20.438  0.00  0.00    -0.303 OA
ATOM     17  H   UNL     1      35.345 -17.530 -20.568  0.00  0.00    +0.222 HD
ENDBRANCH  12  16
ENDBRANCH  11  12
ENDBRANCH  10  11
ENDBRANCH   3  10
BRANCH   2  18
ATOM     18  C   UNL     1      34.781 -15.688 -21.873  0.00  0.00    -0.056 C 
BRANCH  18  19
ATOM     19  N   UNL     1      33.633 -15.940 -21.003  0.00  0.00    +0.383 N 
ATOM     20  H   UNL     1      32.949 -15.192 -21.118  0.00  0.00    -0.089 HD
ATOM     21  H   UNL     1      33.943 -15.970 -20.031  0.00  0.00    -0.089 HD
ATOM     22  H   UNL     1      33.207 -16.832 -21.251  0.00  0.00    -0.089 HD
ENDBRANCH  18  19
ENDBRANCH   2  18
TORSDOF 8
ENDMDL
MODEL 7
REMARK VINA RESULT:      -6.8      6.742      8.000
REMARK  Name = 1053
REMARK  8 active torsions:
REMARK  status: ('A' for Active; 'I' for Inactive)
REMARK    1  A    between atoms: C_2  and  C_18
REMARK    2  A    between atoms: C_3  and  C_10
REMARK    3  A    between atoms: C_4  and  O_8
REMARK    4  A    between atoms: C_10  and  O_11
REMARK    5  A    between atoms: O_11  and  P_12
REMARK    6  A    between atoms: P_12  and  O_14
REMARK    7  A    between atoms: P_12  and  O_16
REMARK    8  A    between atoms: C_18  and  N_19
REMARK                            x       y       z     vdW  Elec       q    Type
REMARK                         _______ _______ _______ _____ _____    ______ ____
ROOT
ATOM      1  N   UNL     1      32.825 -22.267 -18.825  0.00  0.00    -0.245 NA
ATOM      2  C   UNL     1      35.538 -22.038 -18.193  0.00  0.00    -0.009 C 
ATOM      3  C   UNL     1      35.060 -21.549 -19.403  0.00  0.00    +0.024 C 
ATOM      4  C   UNL     1      34.661 -22.642 -17.298  0.00  0.00    +0.141 C 
ATOM      5  C   UNL     1      33.326 -22.731 -17.658  0.00  0.00    +0.092 C 
ATOM      6  C   UNL     1      33.707 -21.687 -19.669  0.00  0.00    +0.096 C 
ATOM      7  C   UNL     1      32.342 -23.369 -16.734  0.00  0.00    +0.055 C 
ENDROOT
BRANCH   4   8
ATOM      8  O   UNL     1      35.100 -23.129 -16.108  0.00  0.00    -0.505 OA
ATOM      9  H   UNL     1      34.553 -23.703 -15.607  0.00  0.00    +0.292 HD
ENDBRANCH   4   8
BRANCH   3  10
ATOM     10  C   UNL     1      35.953 -20.894 -20.398  0.00  0.00    +0.181 C 
BRANCH  10  11
ATOM     11  O   UNL     1      35.927 -19.485 -20.204  0.00  0.00    -0.268 OA
BRANCH  11  12
ATOM     12  P   UNL     1      35.382 -18.555 -21.410  0.00  0.00    +0.473 P 
ATOM     13  O   UNL     1      34.168 -19.080 -22.118  0.00  0.00    -0.227 OA
BRANCH  12  14
ATOM     14  O   UNL     1      36.684 -18.331 -22.341  0.00  0.00    -0.303 OA
ATOM     15  H   UNL     1      37.068 -17.459 -22.158  0.00  0.00    +0.222 HD
ENDBRANCH  12  14
BRANCH  12  16
ATOM     16  O   UNL     1      35.187 -17.119 -20.692  0.00  0.00    -0.303 OA
ATOM     17  H   UNL     1      34.536 -17.201 -19.978  0.00  0.00    +0.222 HD
ENDBRANCH  12  16
ENDBRANCH  11  12
ENDBRANCH  10  11
ENDBRANCH   3  10
BRANCH   2  18
ATOM     18  C   UNL     1      36.988 -21.916 -17.850  0.00  0.00    -0.056 C 
BRANCH  18  19
ATOM     19  N   UNL     1      37.234 -20.888 -16.838  0.00  0.00    +0.383 N 
ATOM     20  H   UNL     1      36.578 -21.009 -16.067  0.00  0.00    -0.089 HD
ATOM     21  H   UNL     1      37.104 -19.965 -17.254  0.00  0.00    -0.089 HD
ATOM     22  H   UNL     1      38.187 -20.974 -16.490  0.00  0.00    -0.089 HD
ENDBRANCH  18  19
ENDBRANCH   2  18
TORSDOF 8
ENDMDL
MODEL 8
REMARK VINA RESULT:      -6.7      2.761      4.341
REMARK  Name = 1053
REMARK  8 active torsions:
REMARK  status: ('A' for Active; 'I' for Inactive)
REMARK    1  A    between atoms: C_2  and  C_18
REMARK    2  A    between atoms: C_3  and  C_10
REMARK    3  A    between atoms: C_4  and  O_8
REMARK    4  A    between atoms: C_10  and  O_11
REMARK    5  A    between atoms: O_11  and  P_12
REMARK    6  A    between atoms: P_12  and  O_14
REMARK    7  A    between atoms: P_12  and  O_16
REMARK    8  A    between atoms: C_18  and  N_19
REMARK                            x       y       z     vdW  Elec       q    Type
REMARK                         _______ _______ _______ _____ _____    ______ ____
ROOT
ATOM      1  N   UNL     1      32.764 -24.272 -13.493  0.00  0.00    -0.245 NA
ATOM      2  C   UNL     1      33.658 -23.381 -15.987  0.00  0.00    -0.009 C 
ATOM      3  C   UNL     1      34.565 -23.875 -15.057  0.00  0.00    +0.024 C 
ATOM      4  C   UNL     1      32.304 -23.331 -15.673  0.00  0.00    +0.141 C 
ATOM      5  C   UNL     1      31.912 -23.785 -14.423  0.00  0.00    +0.092 C 
ATOM      6  C   UNL     1      34.072 -24.305 -13.835  0.00  0.00    +0.096 C 
ATOM      7  C   UNL     1      30.471 -23.755 -14.033  0.00  0.00    +0.055 C 
ENDROOT
BRANCH   4   8
ATOM      8  O   UNL     1      31.395 -22.854 -16.561  0.00  0.00    -0.505 OA
ATOM      9  H   UNL     1      31.461 -21.972 -16.871  0.00  0.00    +0.292 HD
ENDBRANCH   4   8
BRANCH   3  10
ATOM     10  C   UNL     1      36.025 -23.951 -15.341  0.00  0.00    +0.181 C 
BRANCH  10  11
ATOM     11  O   UNL     1      36.646 -24.822 -14.403  0.00  0.00    -0.268 OA
BRANCH  11  12
ATOM     12  P   UNL     1      37.076 -26.300 -14.898  0.00  0.00    +0.473 P 
ATOM     13  O   UNL     1      36.221 -26.879 -15.987  0.00  0.00    -0.227 OA
BRANCH  12  14
ATOM     14  O   UNL     1      37.135 -27.162 -13.532  0.00  0.00    -0.303 OA
ATOM     15  H   UNL     1      37.353 -26.577 -12.789  0.00  0.00    +0.222 HD
ENDBRANCH  12  14
BRANCH  12  16
ATOM     16  O   UNL     1      38.635 -26.106 -15.283  0.00  0.00    -0.303 OA
ATOM     17  H   UNL     1      38.753 -25.257 -15.735  0.00  0.00    +0.222 HD
ENDBRANCH  12  16
ENDBRANCH  11  12
ENDBRANCH  10  11
ENDBRANCH   3  10
BRANCH   2  18
ATOM     18  C   UNL     1      34.132 -22.905 -17.323  0.00  0.00    -0.056 C 
BRANCH  18  19
ATOM     19  N   UNL     1      33.437 -23.569 -18.426  0.00  0.00    +0.383 N 
ATOM     20  H   UNL     1      33.944 -23.403 -19.296  0.00  0.00    -0.089 HD
ATOM     21  H   UNL     1      32.491 -23.194 -18.507  0.00  0.00    -0.089 HD
ATOM     22  H   UNL     1      33.392 -24.571 -18.246  0.00  0.00    -0.089 HD
ENDBRANCH  18  19
ENDBRANCH   2  18
TORSDOF 8
ENDMDL
MODEL 9
REMARK VINA RESULT:      -6.7      2.596      3.523
REMARK  Name = 1053
REMARK  8 active torsions:
REMARK  status: ('A' for Active; 'I' for Inactive)
REMARK    1  A    between atoms: C_2  and  C_18
REMARK    2  A    between atoms: C_3  and  C_10
REMARK    3  A    between atoms: C_4  and  O_8
REMARK    4  A    between atoms: C_10  and  O_11
REMARK    5  A    between atoms: O_11  and  P_12
REMARK    6  A    between atoms: P_12  and  O_14
REMARK    7  A    between atoms: P_12  and  O_16
REMARK    8  A    between atoms: C_18  and  N_19
REMARK                            x       y       z     vdW  Elec       q    Type
REMARK                         _______ _______ _______ _____ _____    ______ ____
ROOT
ATOM      1  N   UNL     1      33.674 -23.807 -14.886  0.00  0.00    -0.245 NA
ATOM      2  C   UNL     1      36.008 -22.843 -16.083  0.00  0.00    -0.009 C 
ATOM      3  C   UNL     1      36.040 -23.319 -14.777  0.00  0.00    +0.024 C 
ATOM      4  C   UNL     1      34.812 -22.849 -16.792  0.00  0.00    +0.141 C 
ATOM      5  C   UNL     1      33.683 -23.337 -16.153  0.00  0.00    +0.092 C 
ATOM      6  C   UNL     1      34.855 -23.786 -14.229  0.00  0.00    +0.096 C 
ATOM      7  C   UNL     1      32.372 -23.366 -16.868  0.00  0.00    +0.055 C 
ENDROOT
BRANCH   4   8
ATOM      8  O   UNL     1      34.751 -22.390 -18.069  0.00  0.00    -0.505 OA
ATOM      9  H   UNL     1      34.072 -21.795 -18.321  0.00  0.00    +0.292 HD
ENDBRANCH   4   8
BRANCH   3  10
ATOM     10  C   UNL     1      37.292 -23.335 -13.972  0.00  0.00    +0.181 C 
BRANCH  10  11
ATOM     11  O   UNL     1      37.597 -24.674 -13.597  0.00  0.00    -0.268 OA
BRANCH  11  12
ATOM     12  P   UNL     1      38.744 -25.459 -14.423  0.00  0.00    +0.473 P 
ATOM     13  O   UNL     1      39.718 -26.230 -13.581  0.00  0.00    -0.227 OA
BRANCH  12  14
ATOM     14  O   UNL     1      39.395 -24.314 -15.360  0.00  0.00    -0.303 OA
ATOM     15  H   UNL     1      38.708 -23.932 -15.929  0.00  0.00    +0.222 HD
ENDBRANCH  12  14
BRANCH  12  16
ATOM     16  O   UNL     1      37.886 -26.349 -15.465  0.00  0.00    -0.303 OA
ATOM     17  H   UNL     1      37.113 -26.721 -15.013  0.00  0.00    +0.222 HD
ENDBRANCH  12  16
ENDBRANCH  11  12
ENDBRANCH  10  11
ENDBRANCH   3  10
BRANCH   2  18
ATOM     18  C   UNL     1      37.256 -22.328 -16.728  0.00  0.00    -0.056 C 
BRANCH  18  19
ATOM     19  N   UNL     1      37.211 -20.882 -16.943  0.00  0.00    +0.383 N 
ATOM     20  H   UNL     1      36.382 -20.646 -17.490  0.00  0.00    -0.089 HD
ATOM     21  H   UNL     1      38.047 -20.588 -17.450  0.00  0.00    -0.089 HD
ATOM     22  H   UNL     1      37.173 -20.404 -16.044  0.00  0.00    -0.089 HD
ENDBRANCH  18  19
ENDBRANCH   2  18
TORSDOF 8
ENDMDL
