MODEL 1
REMARK VINA RESULT:     -10.7      0.000      0.000
REMARK  Name = 4418
REMARK  8 active torsions:
REMARK  status: ('A' for Active; 'I' for Inactive)
REMARK    1  A    between atoms: C_1  and  N_2
REMARK    2  A    between atoms: C_1  and  C_17
REMARK    3  A    between atoms: N_3  and  C_9
REMARK    4  A    between atoms: C_10  and  O_15
REMARK    5  A    between atoms: C_17  and  O_18
REMARK    6  A    between atoms: C_17  and  C_20
REMARK    7  A    between atoms: C_20  and  O_21
REMARK    8  A    between atoms: O_21  and  C_22
REMARK                            x       y       z     vdW  Elec       q    Type
REMARK                         _______ _______ _______ _____ _____    ______ ____
ROOT
ATOM      1  C   UNL     1      33.962 -14.719 -24.009  0.00  0.00    -0.043 C 
ENDROOT
BRANCH   1   2
ATOM      2  N   UNL     1      34.729 -15.698 -23.240  0.00  0.00    +0.391 N 
ATOM      3  N   UNL     1      35.146 -18.112 -21.772  0.00  0.00    -0.309 N 
ATOM      4  C   UNL     1      34.161 -15.856 -21.896  0.00  0.00    -0.055 C 
ATOM      5  C   UNL     1      34.748 -16.993 -23.930  0.00  0.00    -0.055 C 
ATOM      6  C   UNL     1      34.989 -16.836 -21.062  0.00  0.00    +0.068 C 
ATOM      7  C   UNL     1      35.596 -18.012 -23.164  0.00  0.00    +0.068 C 
ATOM      8  H   UNL     1      35.687 -15.356 -23.156  0.00  0.00    -0.079 HD
BRANCH   3   9
ATOM      9  C   UNL     1      35.464 -19.249 -21.019  0.00  0.00    +0.082 C 
ATOM     10  C   UNL     1      34.503 -20.240 -20.734  0.00  0.00    +0.152 C 
ATOM     11  C   UNL     1      36.770 -19.434 -20.522  0.00  0.00    +0.018 C 
ATOM     12  C   UNL     1      34.834 -21.368 -19.984  0.00  0.00    +0.038 C 
ATOM     13  C   UNL     1      37.100 -20.562 -19.771  0.00  0.00    +0.001 C 
ATOM     14  C   UNL     1      36.133 -21.529 -19.503  0.00  0.00    +0.003 C 
BRANCH  10  15
ATOM     15  O   UNL     1      33.228 -20.101 -21.196  0.00  0.00    -0.470 OA
ATOM     16  C   UNL     1      32.270 -19.551 -20.295  0.00  0.00    +0.253 C 
ENDBRANCH  10  15
ENDBRANCH   3   9
ENDBRANCH   1   2
BRANCH   1  17
ATOM     17  C   UNL     1      33.768 -13.409 -23.240  0.00  0.00    +0.133 C 
BRANCH  17  18
ATOM     18  O   UNL     1      34.227 -12.335 -24.066  0.00  0.00    -0.383 OA
ATOM     19  H   UNL     1      33.571 -11.619 -24.059  0.00  0.00    +0.210 HD
ENDBRANCH  17  18
BRANCH  17  20
ATOM     20  C   UNL     1      32.315 -13.142 -22.855  0.00  0.00    +0.232 C 
BRANCH  20  21
ATOM     21  O   UNL     1      32.065 -11.743 -22.945  0.00  0.00    -0.473 OA
BRANCH  21  22
ATOM     22  C   UNL     1      31.941 -11.063 -21.764  0.00  0.00    +0.139 C 
ATOM     23  C   UNL     1      32.166  -9.680 -21.694  0.00  0.00    +0.034 C 
ATOM     24  C   UNL     1      32.025  -9.020 -20.450  0.00  0.00    +0.003 C 
ATOM     25  C   UNL     1      31.582 -11.788 -20.630  0.00  0.00    +0.037 C 
ATOM     26  C   UNL     1      32.528  -8.935 -22.829  0.00  0.00    +0.003 C 
ATOM     27  C   UNL     1      31.662  -9.765 -19.315  0.00  0.00    +0.000 C 
ATOM     28  C   UNL     1      31.443 -11.140 -19.406  0.00  0.00    +0.003 C 
ATOM     29  C   UNL     1      32.250  -7.636 -20.376  0.00  0.00    +0.000 C 
ATOM     30  C   UNL     1      32.748  -7.560 -22.738  0.00  0.00    +0.000 C 
ATOM     31  C   UNL     1      32.609  -6.912 -21.513  0.00  0.00    +0.000 C 
ENDBRANCH  21  22
ENDBRANCH  20  21
ENDBRANCH  17  20
ENDBRANCH   1  17
TORSDOF 8
ENDMDL
MODEL 2
REMARK VINA RESULT:     -10.7      2.074     10.141
REMARK  Name = 4418
REMARK  8 active torsions:
REMARK  status: ('A' for Active; 'I' for Inactive)
REMARK    1  A    between atoms: C_1  and  N_2
REMARK    2  A    between atoms: C_1  and  C_17
REMARK    3  A    between atoms: N_3  and  C_9
REMARK    4  A    between atoms: C_10  and  O_15
REMARK    5  A    between atoms: C_17  and  O_18
REMARK    6  A    between atoms: C_17  and  C_20
REMARK    7  A    between atoms: C_20  and  O_21
REMARK    8  A    between atoms: O_21  and  C_22
REMARK                            x       y       z     vdW  Elec       q    Type
REMARK                         _______ _______ _______ _____ _____    ______ ____
ROOT
ATOM      1  C   UNL     1      32.845 -15.122 -21.798  0.00  0.00    -0.043 C 
ENDROOT
BRANCH   1   2
ATOM      2  N   UNL     1      32.473 -13.842 -22.400  0.00  0.00    +0.391 N 
ATOM      3  N   UNL     1      32.686 -11.039 -22.906  0.00  0.00    -0.309 N 
ATOM      4  C   UNL     1      32.111 -12.871 -21.360  0.00  0.00    -0.055 C 
ATOM      5  C   UNL     1      33.575 -13.316 -23.213  0.00  0.00    -0.055 C 
ATOM      6  C   UNL     1      31.665 -11.545 -21.980  0.00  0.00    +0.068 C 
ATOM      7  C   UNL     1      33.179 -12.004 -23.895  0.00  0.00    +0.068 C 
ATOM      8  H   UNL     1      31.664 -13.997 -23.002  0.00  0.00    -0.079 HD
BRANCH   3   9
ATOM      9  C   UNL     1      32.678  -9.674 -23.213  0.00  0.00    +0.082 C 
ATOM     10  C   UNL     1      33.833  -9.015 -23.685  0.00  0.00    +0.152 C 
ATOM     11  C   UNL     1      31.502  -8.913 -23.056  0.00  0.00    +0.018 C 
ATOM     12  C   UNL     1      33.810  -7.654 -23.987  0.00  0.00    +0.038 C 
ATOM     13  C   UNL     1      31.481  -7.552 -23.358  0.00  0.00    +0.001 C 
ATOM     14  C   UNL     1      32.634  -6.922 -23.824  0.00  0.00    +0.003 C 
BRANCH  10  15
ATOM     15  O   UNL     1      34.991  -9.713 -23.851  0.00  0.00    -0.470 OA
ATOM     16  C   UNL     1      35.443  -9.907 -25.189  0.00  0.00    +0.253 C 
ENDBRANCH  10  15
ENDBRANCH   3   9
ENDBRANCH   1   2
BRANCH   1  17
ATOM     17  C   UNL     1      34.353 -15.375 -21.871  0.00  0.00    +0.133 C 
BRANCH  17  18
ATOM     18  O   UNL     1      34.877 -15.336 -20.540  0.00  0.00    -0.383 OA
ATOM     19  H   UNL     1      34.679 -16.171 -20.089  0.00  0.00    +0.210 HD
ENDBRANCH  17  18
BRANCH  17  20
ATOM     20  C   UNL     1      34.711 -16.722 -22.495  0.00  0.00    +0.232 C 
BRANCH  20  21
ATOM     21  O   UNL     1      34.118 -17.760 -21.722  0.00  0.00    -0.473 OA
BRANCH  21  22
ATOM     22  C   UNL     1      34.963 -18.707 -21.211  0.00  0.00    +0.139 C 
ATOM     23  C   UNL     1      34.473 -19.829 -20.527  0.00  0.00    +0.034 C 
ATOM     24  C   UNL     1      35.387 -20.782 -20.018  0.00  0.00    +0.003 C 
ATOM     25  C   UNL     1      36.333 -18.523 -21.394  0.00  0.00    +0.037 C 
ATOM     26  C   UNL     1      33.095 -20.028 -20.336  0.00  0.00    +0.003 C 
ATOM     27  C   UNL     1      36.764 -20.582 -20.210  0.00  0.00    +0.000 C 
ATOM     28  C   UNL     1      37.233 -19.459 -20.893  0.00  0.00    +0.003 C 
ATOM     29  C   UNL     1      34.898 -21.906 -19.332  0.00  0.00    +0.000 C 
ATOM     30  C   UNL     1      32.627 -21.151 -19.652  0.00  0.00    +0.000 C 
ATOM     31  C   UNL     1      33.526 -22.088 -19.151  0.00  0.00    +0.000 C 
ENDBRANCH  21  22
ENDBRANCH  20  21
ENDBRANCH  17  20
ENDBRANCH   1  17
TORSDOF 8
ENDMDL
MODEL 3
REMARK VINA RESULT:     -10.7      4.339     10.899
REMARK  Name = 4418
REMARK  8 active torsions:
REMARK  status: ('A' for Active; 'I' for Inactive)
REMARK    1  A    between atoms: C_1  and  N_2
REMARK    2  A    between atoms: C_1  and  C_17
REMARK    3  A    between atoms: N_3  and  C_9
REMARK    4  A    between atoms: C_10  and  O_15
REMARK    5  A    between atoms: C_17  and  O_18
REMARK    6  A    between atoms: C_17  and  C_20
REMARK    7  A    between atoms: C_20  and  O_21
REMARK    8  A    between atoms: O_21  and  C_22
REMARK                            x       y       z     vdW  Elec       q    Type
REMARK                         _______ _______ _______ _____ _____    ______ ____
ROOT
ATOM      1  C   UNL     1      35.894 -21.957 -18.575  0.00  0.00    -0.043 C 
ENDROOT
BRANCH   1   2
ATOM      2  N   UNL     1      35.630 -20.730 -19.328  0.00  0.00    +0.391 N 
ATOM      3  N   UNL     1      35.151 -19.157 -21.662  0.00  0.00    -0.309 N 
ATOM      4  C   UNL     1      36.714 -20.470 -20.282  0.00  0.00    -0.055 C 
ATOM      5  C   UNL     1      34.351 -20.828 -20.039  0.00  0.00    -0.055 C 
ATOM      6  C   UNL     1      36.479 -19.159 -21.036  0.00  0.00    +0.068 C 
ATOM      7  C   UNL     1      34.035 -19.530 -20.786  0.00  0.00    +0.068 C 
ATOM      8  H   UNL     1      35.580 -19.955 -18.665  0.00  0.00    -0.079 HD
BRANCH   3   9
ATOM      9  C   UNL     1      34.930 -18.282 -22.733  0.00  0.00    +0.082 C 
ATOM     10  C   UNL     1      34.846 -16.887 -22.544  0.00  0.00    +0.152 C 
ATOM     11  C   UNL     1      34.783 -18.780 -24.043  0.00  0.00    +0.018 C 
ATOM     12  C   UNL     1      34.626 -16.028 -23.620  0.00  0.00    +0.038 C 
ATOM     13  C   UNL     1      34.562 -17.920 -25.119  0.00  0.00    +0.001 C 
ATOM     14  C   UNL     1      34.484 -16.544 -24.908  0.00  0.00    +0.003 C 
BRANCH  10  15
ATOM     15  O   UNL     1      34.983 -16.363 -21.293  0.00  0.00    -0.470 OA
ATOM     16  C   UNL     1      34.502 -15.036 -21.092  0.00  0.00    +0.253 C 
ENDBRANCH  10  15
ENDBRANCH   3   9
ENDBRANCH   1   2
BRANCH   1  17
ATOM     17  C   UNL     1      37.042 -21.783 -17.577  0.00  0.00    +0.133 C 
BRANCH  17  18
ATOM     18  O   UNL     1      37.198 -20.385 -17.315  0.00  0.00    -0.383 OA
ATOM     19  H   UNL     1      37.798 -20.261 -16.563  0.00  0.00    +0.210 HD
ENDBRANCH  17  18
BRANCH  17  20
ATOM     20  C   UNL     1      36.806 -22.503 -16.252  0.00  0.00    +0.232 C 
BRANCH  20  21
ATOM     21  O   UNL     1      35.787 -23.481 -16.435  0.00  0.00    -0.473 OA
BRANCH  21  22
ATOM     22  C   UNL     1      34.905 -23.652 -15.402  0.00  0.00    +0.139 C 
ATOM     23  C   UNL     1      33.528 -23.454 -15.579  0.00  0.00    +0.034 C 
ATOM     24  C   UNL     1      32.657 -23.644 -14.480  0.00  0.00    +0.003 C 
ATOM     25  C   UNL     1      35.421 -24.033 -14.164  0.00  0.00    +0.037 C 
ATOM     26  C   UNL     1      32.994 -23.070 -16.821  0.00  0.00    +0.003 C 
ATOM     27  C   UNL     1      33.191 -24.027 -13.239  0.00  0.00    +0.000 C 
ATOM     28  C   UNL     1      34.564 -24.220 -13.083  0.00  0.00    +0.003 C 
ATOM     29  C   UNL     1      31.277 -23.446 -14.654  0.00  0.00    +0.000 C 
ATOM     30  C   UNL     1      31.621 -22.878 -16.976  0.00  0.00    +0.000 C 
ATOM     31  C   UNL     1      30.764 -23.065 -15.895  0.00  0.00    +0.000 C 
ENDBRANCH  21  22
ENDBRANCH  20  21
ENDBRANCH  17  20
ENDBRANCH   1  17
TORSDOF 8
ENDMDL
MODEL 4
REMARK VINA RESULT:     -10.6      4.471     11.889
REMARK  Name = 4418
REMARK  8 active torsions:
REMARK  status: ('A' for Active; 'I' for Inactive)
REMARK    1  A    between atoms: C_1  and  N_2
REMARK    2  A    between atoms: C_1  and  C_17
REMARK    3  A    between atoms: N_3  and  C_9
REMARK    4  A    between atoms: C_10  and  O_15
REMARK    5  A    between atoms: C_17  and  O_18
REMARK    6  A    between atoms: C_17  and  C_20
REMARK    7  A    between atoms: C_20  and  O_21
REMARK    8  A    between atoms: O_21  and  C_22
REMARK                            x       y       z     vdW  Elec       q    Type
REMARK                         _______ _______ _______ _____ _____    ______ ____
ROOT
ATOM      1  C   UNL     1      35.383 -22.101 -18.660  0.00  0.00    -0.043 C 
ENDROOT
BRANCH   1   2
ATOM      2  N   UNL     1      35.238 -20.840 -19.387  0.00  0.00    +0.391 N 
ATOM      3  N   UNL     1      34.978 -19.175 -21.693  0.00  0.00    -0.309 N 
ATOM      4  C   UNL     1      36.382 -20.629 -20.282  0.00  0.00    -0.055 C 
ATOM      5  C   UNL     1      33.991 -20.832 -20.160  0.00  0.00    -0.055 C 
ATOM      6  C   UNL     1      36.271 -19.285 -21.006  0.00  0.00    +0.068 C 
ATOM      7  C   UNL     1      33.799 -19.495 -20.881  0.00  0.00    +0.068 C 
ATOM      8  H   UNL     1      35.208 -20.082 -18.705  0.00  0.00    -0.079 HD
BRANCH   3   9
ATOM      9  C   UNL     1      34.867 -18.260 -22.746  0.00  0.00    +0.082 C 
ATOM     10  C   UNL     1      34.935 -16.868 -22.526  0.00  0.00    +0.152 C 
ATOM     11  C   UNL     1      34.683 -18.711 -24.068  0.00  0.00    +0.018 C 
ATOM     12  C   UNL     1      34.824 -15.967 -23.585  0.00  0.00    +0.038 C 
ATOM     13  C   UNL     1      34.571 -17.809 -25.127  0.00  0.00    +0.001 C 
ATOM     14  C   UNL     1      34.642 -16.437 -24.885  0.00  0.00    +0.003 C 
BRANCH  10  15
ATOM     15  O   UNL     1      35.113 -16.389 -21.263  0.00  0.00    -0.470 OA
ATOM     16  C   UNL     1      34.309 -15.277 -20.874  0.00  0.00    +0.253 C 
ENDBRANCH  10  15
ENDBRANCH   3   9
ENDBRANCH   1   2
BRANCH   1  17
ATOM     17  C   UNL     1      34.031 -22.763 -18.381  0.00  0.00    +0.133 C 
BRANCH  17  18
ATOM     18  O   UNL     1      33.922 -23.923 -19.210  0.00  0.00    -0.383 OA
ATOM     19  H   UNL     1      33.290 -24.545 -18.816  0.00  0.00    +0.210 HD
ENDBRANCH  17  18
BRANCH  17  20
ATOM     20  C   UNL     1      33.854 -23.186 -16.925  0.00  0.00    +0.232 C 
BRANCH  20  21
ATOM     21  O   UNL     1      35.102 -23.660 -16.429  0.00  0.00    -0.473 OA
BRANCH  21  22
ATOM     22  C   UNL     1      35.160 -23.963 -15.095  0.00  0.00    +0.139 C 
ATOM     23  C   UNL     1      36.359 -24.371 -14.493  0.00  0.00    +0.034 C 
ATOM     24  C   UNL     1      36.369 -24.673 -13.110  0.00  0.00    +0.003 C 
ATOM     25  C   UNL     1      33.987 -23.851 -14.351  0.00  0.00    +0.037 C 
ATOM     26  C   UNL     1      37.549 -24.488 -15.229  0.00  0.00    +0.003 C 
ATOM     27  C   UNL     1      35.178 -24.556 -12.373  0.00  0.00    +0.000 C 
ATOM     28  C   UNL     1      33.996 -24.147 -12.991  0.00  0.00    +0.003 C 
ATOM     29  C   UNL     1      37.567 -25.083 -12.504  0.00  0.00    +0.000 C 
ATOM     30  C   UNL     1      38.732 -24.897 -14.611  0.00  0.00    +0.000 C 
ATOM     31  C   UNL     1      38.741 -25.193 -13.251  0.00  0.00    +0.000 C 
ENDBRANCH  21  22
ENDBRANCH  20  21
ENDBRANCH  17  20
ENDBRANCH   1  17
TORSDOF 8
ENDMDL
MODEL 5
REMARK VINA RESULT:     -10.6      4.429     11.181
REMARK  Name = 4418
REMARK  8 active torsions:
REMARK  status: ('A' for Active; 'I' for Inactive)
REMARK    1  A    between atoms: C_1  and  N_2
REMARK    2  A    between atoms: C_1  and  C_17
REMARK    3  A    between atoms: N_3  and  C_9
REMARK    4  A    between atoms: C_10  and  O_15
REMARK    5  A    between atoms: C_17  and  O_18
REMARK    6  A    between atoms: C_17  and  C_20
REMARK    7  A    between atoms: C_20  and  O_21
REMARK    8  A    between atoms: O_21  and  C_22
REMARK                            x       y       z     vdW  Elec       q    Type
REMARK                         _______ _______ _______ _____ _____    ______ ____
ROOT
ATOM      1  C   UNL     1      35.628 -21.978 -19.548  0.00  0.00    -0.043 C 
ENDROOT
BRANCH   1   2
ATOM      2  N   UNL     1      35.434 -20.854 -20.463  0.00  0.00    +0.391 N 
ATOM      3  N   UNL     1      34.989 -18.126 -21.183  0.00  0.00    -0.309 N 
ATOM      4  C   UNL     1      34.122 -20.233 -20.244  0.00  0.00    -0.055 C 
ATOM      5  C   UNL     1      36.494 -19.855 -20.283  0.00  0.00    -0.055 C 
ATOM      6  C   UNL     1      33.883 -19.091 -21.234  0.00  0.00    +0.068 C 
ATOM      7  C   UNL     1      36.336 -18.699 -21.273  0.00  0.00    +0.068 C 
ATOM      8  H   UNL     1      35.476 -21.210 -21.418  0.00  0.00    -0.079 HD
BRANCH   3   9
ATOM      9  C   UNL     1      34.753 -16.829 -21.655  0.00  0.00    +0.082 C 
ATOM     10  C   UNL     1      34.763 -16.531 -23.034  0.00  0.00    +0.152 C 
ATOM     11  C   UNL     1      34.497 -15.776 -20.754  0.00  0.00    +0.018 C 
ATOM     12  C   UNL     1      34.526 -15.235 -23.490  0.00  0.00    +0.038 C 
ATOM     13  C   UNL     1      34.261 -14.480 -21.212  0.00  0.00    +0.001 C 
ATOM     14  C   UNL     1      34.275 -14.209 -22.579  0.00  0.00    +0.003 C 
BRANCH  10  15
ATOM     15  O   UNL     1      35.007 -17.520 -23.940  0.00  0.00    -0.470 OA
ATOM     16  C   UNL     1      34.597 -17.280 -25.284  0.00  0.00    +0.253 C 
ENDBRANCH  10  15
ENDBRANCH   3   9
ENDBRANCH   1   2
BRANCH   1  17
ATOM     17  C   UNL     1      34.297 -22.561 -19.064  0.00  0.00    +0.133 C 
BRANCH  17  18
ATOM     18  O   UNL     1      34.083 -23.805 -19.738  0.00  0.00    -0.383 OA
ATOM     19  H   UNL     1      34.362 -24.536 -19.164  0.00  0.00    +0.210 HD
ENDBRANCH  17  18
BRANCH  17  20
ATOM     20  C   UNL     1      34.257 -22.809 -17.559  0.00  0.00    +0.232 C 
BRANCH  20  21
ATOM     21  O   UNL     1      32.902 -22.782 -17.123  0.00  0.00    -0.473 OA
BRANCH  21  22
ATOM     22  C   UNL     1      32.610 -23.467 -15.975  0.00  0.00    +0.139 C 
ATOM     23  C   UNL     1      31.302 -23.886 -15.690  0.00  0.00    +0.034 C 
ATOM     24  C   UNL     1      31.049 -24.592 -14.490  0.00  0.00    +0.003 C 
ATOM     25  C   UNL     1      33.656 -23.739 -15.095  0.00  0.00    +0.037 C 
ATOM     26  C   UNL     1      30.237 -23.620 -16.567  0.00  0.00    +0.003 C 
ATOM     27  C   UNL     1      32.114 -24.858 -13.612  0.00  0.00    +0.000 C 
ATOM     28  C   UNL     1      33.409 -24.433 -13.915  0.00  0.00    +0.003 C 
ATOM     29  C   UNL     1      29.741 -25.012 -14.201  0.00  0.00    +0.000 C 
ATOM     30  C   UNL     1      28.942 -24.045 -16.265  0.00  0.00    +0.000 C 
ATOM     31  C   UNL     1      28.695 -24.739 -15.084  0.00  0.00    +0.000 C 
ENDBRANCH  21  22
ENDBRANCH  20  21
ENDBRANCH  17  20
ENDBRANCH   1  17
TORSDOF 8
ENDMDL
MODEL 6
REMARK VINA RESULT:     -10.5      1.913      9.640
REMARK  Name = 4418
REMARK  8 active torsions:
REMARK  status: ('A' for Active; 'I' for Inactive)
REMARK    1  A    between atoms: C_1  and  N_2
REMARK    2  A    between atoms: C_1  and  C_17
REMARK    3  A    between atoms: N_3  and  C_9
REMARK    4  A    between atoms: C_10  and  O_15
REMARK    5  A    between atoms: C_17  and  O_18
REMARK    6  A    between atoms: C_17  and  C_20
REMARK    7  A    between atoms: C_20  and  O_21
REMARK    8  A    between atoms: O_21  and  C_22
REMARK                            x       y       z     vdW  Elec       q    Type
REMARK                         _______ _______ _______ _____ _____    ______ ____
ROOT
ATOM      1  C   UNL     1      33.217 -15.624 -25.114  0.00  0.00    -0.043 C 
ENDROOT
BRANCH   1   2
ATOM      2  N   UNL     1      33.729 -14.312 -24.722  0.00  0.00    +0.391 N 
ATOM      3  N   UNL     1      33.558 -11.541 -24.051  0.00  0.00    -0.309 N 
ATOM      4  C   UNL     1      33.433 -13.314 -25.758  0.00  0.00    -0.055 C 
ATOM      5  C   UNL     1      33.144 -13.892 -23.444  0.00  0.00    -0.055 C 
ATOM      6  C   UNL     1      34.014 -11.948 -25.386  0.00  0.00    +0.068 C 
ATOM      7  C   UNL     1      33.714 -12.545 -22.993  0.00  0.00    +0.068 C 
ATOM      8  H   UNL     1      34.741 -14.385 -24.614  0.00  0.00    -0.079 HD
BRANCH   3   9
ATOM      9  C   UNL     1      33.601 -10.179 -23.728  0.00  0.00    +0.082 C 
ATOM     10  C   UNL     1      32.581  -9.566 -22.970  0.00  0.00    +0.152 C 
ATOM     11  C   UNL     1      34.677  -9.377 -24.156  0.00  0.00    +0.018 C 
ATOM     12  C   UNL     1      32.638  -8.209 -22.655  0.00  0.00    +0.038 C 
ATOM     13  C   UNL     1      34.733  -8.020 -23.841  0.00  0.00    +0.001 C 
ATOM     14  C   UNL     1      33.713  -7.436 -23.090  0.00  0.00    +0.003 C 
BRANCH  10  15
ATOM     15  O   UNL     1      31.522 -10.305 -22.535  0.00  0.00    -0.470 OA
ATOM     16  C   UNL     1      31.386 -10.474 -21.126  0.00  0.00    +0.253 C 
ENDBRANCH  10  15
ENDBRANCH   3   9
ENDBRANCH   1   2
BRANCH   1  17
ATOM     17  C   UNL     1      34.254 -16.731 -24.908  0.00  0.00    +0.133 C 
BRANCH  17  18
ATOM     18  O   UNL     1      35.301 -16.546 -25.865  0.00  0.00    -0.383 OA
ATOM     19  H   UNL     1      35.657 -15.647 -25.785  0.00  0.00    +0.210 HD
ENDBRANCH  17  18
BRANCH  17  20
ATOM     20  C   UNL     1      34.867 -16.732 -23.509  0.00  0.00    +0.232 C 
BRANCH  20  21
ATOM     21  O   UNL     1      34.246 -17.754 -22.736  0.00  0.00    -0.473 OA
BRANCH  21  22
ATOM     22  C   UNL     1      35.072 -18.537 -21.975  0.00  0.00    +0.139 C 
ATOM     23  C   UNL     1      34.557 -19.527 -21.124  0.00  0.00    +0.034 C 
ATOM     24  C   UNL     1      35.450 -20.311 -20.357  0.00  0.00    +0.003 C 
ATOM     25  C   UNL     1      36.445 -18.320 -22.071  0.00  0.00    +0.037 C 
ATOM     26  C   UNL     1      33.175 -19.757 -21.017  0.00  0.00    +0.003 C 
ATOM     27  C   UNL     1      36.832 -20.081 -20.465  0.00  0.00    +0.000 C 
ATOM     28  C   UNL     1      37.325 -19.091 -21.317  0.00  0.00    +0.003 C 
ATOM     29  C   UNL     1      34.937 -21.302 -19.505  0.00  0.00    +0.000 C 
ATOM     30  C   UNL     1      32.682 -20.746 -20.165  0.00  0.00    +0.000 C 
ATOM     31  C   UNL     1      33.562 -21.518 -19.411  0.00  0.00    +0.000 C 
ENDBRANCH  21  22
ENDBRANCH  20  21
ENDBRANCH  17  20
ENDBRANCH   1  17
TORSDOF 8
ENDMDL
MODEL 7
REMARK VINA RESULT:     -10.5      3.424      5.857
REMARK  Name = 4418
REMARK  8 active torsions:
REMARK  status: ('A' for Active; 'I' for Inactive)
REMARK    1  A    between atoms: C_1  and  N_2
REMARK    2  A    between atoms: C_1  and  C_17
REMARK    3  A    between atoms: N_3  and  C_9
REMARK    4  A    between atoms: C_10  and  O_15
REMARK    5  A    between atoms: C_17  and  O_18
REMARK    6  A    between atoms: C_17  and  C_20
REMARK    7  A    between atoms: C_20  and  O_21
REMARK    8  A    between atoms: O_21  and  C_22
REMARK                            x       y       z     vdW  Elec       q    Type
REMARK                         _______ _______ _______ _____ _____    ______ ____
ROOT
ATOM      1  C   UNL     1      31.320  -9.968 -21.550  0.00  0.00    -0.043 C 
ENDROOT
BRANCH   1   2
ATOM      2  N   UNL     1      32.240 -11.068 -21.840  0.00  0.00    +0.391 N 
ATOM      3  N   UNL     1      33.145 -13.426 -23.172  0.00  0.00    -0.309 N 
ATOM      4  C   UNL     1      31.593 -12.361 -21.582  0.00  0.00    -0.055 C 
ATOM      5  C   UNL     1      32.693 -11.006 -23.234  0.00  0.00    -0.055 C 
ATOM      6  C   UNL     1      32.563 -13.518 -21.827  0.00  0.00    +0.068 C 
ATOM      7  C   UNL     1      33.700 -12.118 -23.536  0.00  0.00    +0.068 C 
ATOM      8  H   UNL     1      33.049 -10.976 -21.226  0.00  0.00    -0.079 HD
BRANCH   3   9
ATOM      9  C   UNL     1      33.681 -14.589 -23.738  0.00  0.00    +0.082 C 
ATOM     10  C   UNL     1      33.381 -14.974 -25.062  0.00  0.00    +0.152 C 
ATOM     11  C   UNL     1      34.545 -15.415 -22.991  0.00  0.00    +0.018 C 
ATOM     12  C   UNL     1      33.924 -16.135 -25.613  0.00  0.00    +0.038 C 
ATOM     13  C   UNL     1      35.086 -16.576 -23.543  0.00  0.00    +0.001 C 
ATOM     14  C   UNL     1      34.776 -16.936 -24.854  0.00  0.00    +0.003 C 
BRANCH  10  15
ATOM     15  O   UNL     1      32.551 -14.204 -25.820  0.00  0.00    -0.470 OA
ATOM     16  C   UNL     1      33.120 -13.572 -26.964  0.00  0.00    +0.253 C 
ENDBRANCH  10  15
ENDBRANCH   3   9
ENDBRANCH   1   2
BRANCH   1  17
ATOM     17  C   UNL     1      31.725  -9.198 -20.290  0.00  0.00    +0.133 C 
BRANCH  17  18
ATOM     18  O   UNL     1      32.352 -10.115 -19.389  0.00  0.00    -0.383 OA
ATOM     19  H   UNL     1      31.756 -10.297 -18.646  0.00  0.00    +0.210 HD
ENDBRANCH  17  18
BRANCH  17  20
ATOM     20  C   UNL     1      32.691  -8.050 -20.568  0.00  0.00    +0.232 C 
BRANCH  20  21
ATOM     21  O   UNL     1      32.133  -7.212 -21.575  0.00  0.00    -0.473 OA
BRANCH  21  22
ATOM     22  C   UNL     1      32.891  -7.006 -22.696  0.00  0.00    +0.139 C 
ATOM     23  C   UNL     1      32.480  -6.118 -23.701  0.00  0.00    +0.034 C 
ATOM     24  C   UNL     1      33.300  -5.938 -24.840  0.00  0.00    +0.003 C 
ATOM     25  C   UNL     1      34.091  -7.708 -22.807  0.00  0.00    +0.037 C 
ATOM     26  C   UNL     1      31.275  -5.403 -23.602  0.00  0.00    +0.003 C 
ATOM     27  C   UNL     1      34.506  -6.652 -24.939  0.00  0.00    +0.000 C 
ATOM     28  C   UNL     1      34.897  -7.531 -23.928  0.00  0.00    +0.003 C 
ATOM     29  C   UNL     1      32.890  -5.050 -25.848  0.00  0.00    +0.000 C 
ATOM     30  C   UNL     1      30.883  -4.524 -24.613  0.00  0.00    +0.000 C 
ATOM     31  C   UNL     1      31.690  -4.348 -25.733  0.00  0.00    +0.000 C 
ENDBRANCH  21  22
ENDBRANCH  20  21
ENDBRANCH  17  20
ENDBRANCH   1  17
TORSDOF 8
ENDMDL
MODEL 8
REMARK VINA RESULT:     -10.5      4.103     11.454
REMARK  Name = 4418
REMARK  8 active torsions:
REMARK  status: ('A' for Active; 'I' for Inactive)
REMARK    1  A    between atoms: C_1  and  N_2
REMARK    2  A    between atoms: C_1  and  C_17
REMARK    3  A    between atoms: N_3  and  C_9
REMARK    4  A    between atoms: C_10  and  O_15
REMARK    5  A    between atoms: C_17  and  O_18
REMARK    6  A    between atoms: C_17  and  C_20
REMARK    7  A    between atoms: C_20  and  O_21
REMARK    8  A    between atoms: O_21  and  C_22
REMARK                            x       y       z     vdW  Elec       q    Type
REMARK                         _______ _______ _______ _____ _____    ______ ____
ROOT
ATOM      1  C   UNL     1      35.406 -22.017 -19.548  0.00  0.00    -0.043 C 
ENDROOT
BRANCH   1   2
ATOM      2  N   UNL     1      35.284 -20.881 -20.462  0.00  0.00    +0.391 N 
ATOM      3  N   UNL     1      34.921 -18.141 -21.179  0.00  0.00    -0.309 N 
ATOM      4  C   UNL     1      33.969 -20.244 -20.316  0.00  0.00    -0.055 C 
ATOM      5  C   UNL     1      36.345 -19.900 -20.208  0.00  0.00    -0.055 C 
ATOM      6  C   UNL     1      33.807 -19.089 -21.307  0.00  0.00    +0.068 C 
ATOM      7  C   UNL     1      36.263 -18.732 -21.194  0.00  0.00    +0.068 C 
ATOM      8  H   UNL     1      35.378 -21.229 -21.416  0.00  0.00    -0.079 HD
BRANCH   3   9
ATOM      9  C   UNL     1      34.732 -16.836 -21.652  0.00  0.00    +0.082 C 
ATOM     10  C   UNL     1      34.812 -16.529 -23.026  0.00  0.00    +0.152 C 
ATOM     11  C   UNL     1      34.454 -15.785 -20.755  0.00  0.00    +0.018 C 
ATOM     12  C   UNL     1      34.622 -15.225 -23.483  0.00  0.00    +0.038 C 
ATOM     13  C   UNL     1      34.265 -14.481 -21.213  0.00  0.00    +0.001 C 
ATOM     14  C   UNL     1      34.348 -14.201 -22.576  0.00  0.00    +0.003 C 
BRANCH  10  15
ATOM     15  O   UNL     1      35.079 -17.515 -23.927  0.00  0.00    -0.470 OA
ATOM     16  C   UNL     1      34.493 -17.385 -25.221  0.00  0.00    +0.253 C 
ENDBRANCH  10  15
ENDBRANCH   3   9
ENDBRANCH   1   2
BRANCH   1  17
ATOM     17  C   UNL     1      34.060 -22.704 -19.302  0.00  0.00    +0.133 C 
BRANCH  17  18
ATOM     18  O   UNL     1      34.140 -24.038 -19.812  0.00  0.00    -0.383 OA
ATOM     19  H   UNL     1      34.255 -24.659 -19.076  0.00  0.00    +0.210 HD
ENDBRANCH  17  18
BRANCH  17  20
ATOM     20  C   UNL     1      33.675 -22.768 -17.826  0.00  0.00    +0.232 C 
BRANCH  20  21
ATOM     21  O   UNL     1      34.772 -23.297 -17.088  0.00  0.00    -0.473 OA
BRANCH  21  22
ATOM     22  C   UNL     1      34.540 -23.600 -15.773  0.00  0.00    +0.139 C 
ATOM     23  C   UNL     1      35.586 -23.967 -14.915  0.00  0.00    +0.034 C 
ATOM     24  C   UNL     1      35.296 -24.270 -13.563  0.00  0.00    +0.003 C 
ATOM     25  C   UNL     1      33.226 -23.530 -15.311  0.00  0.00    +0.037 C 
ATOM     26  C   UNL     1      36.915 -24.041 -15.366  0.00  0.00    +0.003 C 
ATOM     27  C   UNL     1      33.968 -24.196 -13.112  0.00  0.00    +0.000 C 
ATOM     28  C   UNL     1      32.940 -23.828 -13.982  0.00  0.00    +0.003 C 
ATOM     29  C   UNL     1      36.342 -24.639 -12.702  0.00  0.00    +0.000 C 
ATOM     30  C   UNL     1      37.942 -24.409 -14.496  0.00  0.00    +0.000 C 
ATOM     31  C   UNL     1      37.656 -24.708 -13.166  0.00  0.00    +0.000 C 
ENDBRANCH  21  22
ENDBRANCH  20  21
ENDBRANCH  17  20
ENDBRANCH   1  17
TORSDOF 8
ENDMDL
MODEL 9
REMARK VINA RESULT:     -10.5      4.493     11.058
REMARK  Name = 4418
REMARK  8 active torsions:
REMARK  status: ('A' for Active; 'I' for Inactive)
REMARK    1  A    between atoms: C_1  and  N_2
REMARK    2  A    between atoms: C_1  and  C_17
REMARK    3  A    between atoms: N_3  and  C_9
REMARK    4  A    between atoms: C_10  and  O_15
REMARK    5  A    between atoms: C_17  and  O_18
REMARK    6  A    between atoms: C_17  and  C_20
REMARK    7  A    between atoms: C_20  and  O_21
REMARK    8  A    between atoms: O_21  and  C_22
REMARK                            x       y       z     vdW  Elec       q    Type
REMARK                         _______ _______ _______ _____ _____    ______ ____
ROOT
ATOM      1  C   UNL     1      35.491 -22.001 -18.724  0.00  0.00    -0.043 C 
ENDROOT
BRANCH   1   2
ATOM      2  N   UNL     1      35.280 -20.738 -19.432  0.00  0.00    +0.391 N 
ATOM      3  N   UNL     1      34.917 -19.056 -21.711  0.00  0.00    -0.309 N 
ATOM      4  C   UNL     1      36.403 -20.461 -20.336  0.00  0.00    -0.055 C 
ATOM      5  C   UNL     1      34.025 -20.777 -20.191  0.00  0.00    -0.055 C 
ATOM      6  C   UNL     1      36.221 -19.115 -21.039  0.00  0.00    +0.068 C 
ATOM      7  C   UNL     1      33.764 -19.441 -20.891  0.00  0.00    +0.068 C 
ATOM      8  H   UNL     1      35.223 -19.991 -18.738  0.00  0.00    -0.079 HD
BRANCH   3   9
ATOM      9  C   UNL     1      34.752 -18.132 -22.750  0.00  0.00    +0.082 C 
ATOM     10  C   UNL     1      34.561 -16.758 -22.494  0.00  0.00    +0.152 C 
ATOM     11  C   UNL     1      34.774 -18.557 -24.093  0.00  0.00    +0.018 C 
ATOM     12  C   UNL     1      34.399 -15.849 -23.539  0.00  0.00    +0.038 C 
ATOM     13  C   UNL     1      34.611 -17.647 -25.138  0.00  0.00    +0.001 C 
ATOM     14  C   UNL     1      34.424 -16.293 -24.861  0.00  0.00    +0.003 C 
BRANCH  10  15
ATOM     15  O   UNL     1      34.534 -16.304 -21.209  0.00  0.00    -0.470 OA
ATOM     16  C   UNL     1      34.536 -14.891 -21.022  0.00  0.00    +0.253 C 
ENDBRANCH  10  15
ENDBRANCH   3   9
ENDBRANCH   1   2
BRANCH   1  17
ATOM     17  C   UNL     1      34.172 -22.712 -18.411  0.00  0.00    +0.133 C 
BRANCH  17  18
ATOM     18  O   UNL     1      33.949 -23.702 -19.419  0.00  0.00    -0.383 OA
ATOM     19  H   UNL     1      33.251 -23.399 -20.021  0.00  0.00    +0.210 HD
ENDBRANCH  17  18
BRANCH  17  20
ATOM     20  C   UNL     1      34.163 -23.395 -17.046  0.00  0.00    +0.232 C 
BRANCH  20  21
ATOM     21  O   UNL     1      33.253 -22.708 -16.193  0.00  0.00    -0.473 OA
BRANCH  21  22
ATOM     22  C   UNL     1      32.447 -23.482 -15.402  0.00  0.00    +0.139 C 
ATOM     23  C   UNL     1      31.057 -23.511 -15.588  0.00  0.00    +0.034 C 
ATOM     24  C   UNL     1      30.265 -24.327 -14.745  0.00  0.00    +0.003 C 
ATOM     25  C   UNL     1      33.052 -24.242 -14.403  0.00  0.00    +0.037 C 
ATOM     26  C   UNL     1      30.433 -22.750 -16.591  0.00  0.00    +0.003 C 
ATOM     27  C   UNL     1      30.889 -25.088 -13.742  0.00  0.00    +0.000 C 
ATOM     28  C   UNL     1      32.274 -25.045 -13.574  0.00  0.00    +0.003 C 
ATOM     29  C   UNL     1      28.873 -24.358 -14.929  0.00  0.00    +0.000 C 
ATOM     30  C   UNL     1      29.048 -22.793 -16.759  0.00  0.00    +0.000 C 
ATOM     31  C   UNL     1      28.270 -23.596 -15.930  0.00  0.00    +0.000 C 
ENDBRANCH  21  22
ENDBRANCH  20  21
ENDBRANCH  17  20
ENDBRANCH   1  17
TORSDOF 8
ENDMDL
