MODEL 1
REMARK VINA RESULT:      -9.2      0.000      0.000
REMARK  Name = 6540289
REMARK  1 active torsions:
REMARK  status: ('A' for Active; 'I' for Inactive)
REMARK    1  A    between atoms: N_3  and  O_18
REMARK                            x       y       z     vdW  Elec       q    Type
REMARK                         _______ _______ _______ _____ _____    ______ ____
ROOT
ATOM      1 CL   UNL     1      36.173 -20.073 -20.258  0.00  0.00    -0.082 Cl
ATOM      2  O   UNL     1      33.541 -15.423 -20.465  0.00  0.00    -0.286 OA
ATOM      3  N   UNL     1      34.230 -16.290 -24.442  0.00  0.00    -0.166 N 
ATOM      4  N   UNL     1      33.060 -14.204 -24.809  0.00  0.00    -0.231 N 
ATOM      5  N   UNL     1      32.467 -13.224 -24.095  0.00  0.00    -0.172 NA
ATOM      6  C   UNL     1      33.581 -15.185 -24.027  0.00  0.00    +0.180 A 
ATOM      7  C   UNL     1      33.320 -14.839 -22.727  0.00  0.00    +0.091 A 
ATOM      8  C   UNL     1      34.700 -17.202 -23.447  0.00  0.00    +0.102 A 
ATOM      9  C   UNL     1      34.478 -16.932 -22.065  0.00  0.00    +0.059 A 
ATOM     10  C   UNL     1      32.630 -13.619 -22.825  0.00  0.00    +0.085 A 
ATOM     11  C   UNL     1      33.749 -15.687 -21.640  0.00  0.00    +0.201 A 
ATOM     12  C   UNL     1      35.383 -18.375 -23.798  0.00  0.00    +0.022 C 
ATOM     13  C   UNL     1      34.934 -17.818 -21.084  0.00  0.00    +0.016 C 
ATOM     14  C   UNL     1      33.067 -14.094 -26.250  0.00  0.00    +0.155 C 
ATOM     15  C   UNL     1      32.102 -12.785 -21.732  0.00  0.00    +0.054 C 
ATOM     16  C   UNL     1      35.834 -19.253 -22.810  0.00  0.00    +0.013 C 
ATOM     17  C   UNL     1      35.611 -18.977 -21.461  0.00  0.00    +0.058 C 
ENDROOT
BRANCH   3  18
ATOM     18  O   UNL     1      34.446 -16.542 -25.789  0.00  0.00    -0.424 OA
ATOM     19  H   UNL     1      34.724 -15.850 -26.356  0.00  0.00    +0.326 HD
ENDBRANCH   3  18
TORSDOF 1
ENDMDL
MODEL 2
REMARK VINA RESULT:      -9.1     10.254     12.273
REMARK  Name = 6540289
REMARK  1 active torsions:
REMARK  status: ('A' for Active; 'I' for Inactive)
REMARK    1  A    between atoms: N_3  and  O_18
REMARK                            x       y       z     vdW  Elec       q    Type
REMARK                         _______ _______ _______ _____ _____    ______ ____
ROOT
ATOM      1 CL   UNL     1      29.031 -24.296 -16.161  0.00  0.00    -0.082 Cl
ATOM      2  O   UNL     1      34.017 -22.685 -17.222  0.00  0.00    -0.286 OA
ATOM      3  N   UNL     1      34.342 -24.318 -13.445  0.00  0.00    -0.166 N 
ATOM      4  N   UNL     1      36.667 -23.688 -13.678  0.00  0.00    -0.231 N 
ATOM      5  N   UNL     1      37.482 -23.097 -14.577  0.00  0.00    -0.172 NA
ATOM      6  C   UNL     1      35.384 -23.781 -14.111  0.00  0.00    +0.180 A 
ATOM      7  C   UNL     1      35.343 -23.226 -15.363  0.00  0.00    +0.091 A 
ATOM      8  C   UNL     1      33.066 -24.317 -14.086  0.00  0.00    +0.102 A 
ATOM      9  C   UNL     1      32.920 -23.760 -15.391  0.00  0.00    +0.059 A 
ATOM     10  C   UNL     1      36.666 -22.818 -15.603  0.00  0.00    +0.085 A 
ATOM     11  C   UNL     1      34.106 -23.170 -16.104  0.00  0.00    +0.201 A 
ATOM     12  C   UNL     1      31.934 -24.857 -13.460  0.00  0.00    +0.022 C 
ATOM     13  C   UNL     1      31.675 -23.755 -16.028  0.00  0.00    +0.016 C 
ATOM     14  C   UNL     1      37.235 -24.127 -12.424  0.00  0.00    +0.155 C 
ATOM     15  C   UNL     1      37.208 -22.154 -16.801  0.00  0.00    +0.054 C 
ATOM     16  C   UNL     1      30.695 -24.847 -14.105  0.00  0.00    +0.013 C 
ATOM     17  C   UNL     1      30.566 -24.299 -15.381  0.00  0.00    +0.058 C 
ENDROOT
BRANCH   3  18
ATOM     18  O   UNL     1      34.493 -24.852 -12.173  0.00  0.00    -0.424 OA
ATOM     19  H   UNL     1      33.976 -24.525 -11.463  0.00  0.00    +0.326 HD
ENDBRANCH   3  18
TORSDOF 1
ENDMDL
MODEL 3
REMARK VINA RESULT:      -8.8      8.604     11.064
REMARK  Name = 6540289
REMARK  1 active torsions:
REMARK  status: ('A' for Active; 'I' for Inactive)
REMARK    1  A    between atoms: N_3  and  O_18
REMARK                            x       y       z     vdW  Elec       q    Type
REMARK                         _______ _______ _______ _____ _____    ______ ____
ROOT
ATOM      1 CL   UNL     1      36.812 -20.871 -20.244  0.00  0.00    -0.082 Cl
ATOM      2  O   UNL     1      37.390 -22.452 -15.170  0.00  0.00    -0.286 OA
ATOM      3  N   UNL     1      33.491 -23.492 -16.039  0.00  0.00    -0.166 N 
ATOM      4  N   UNL     1      33.493 -24.295 -13.755  0.00  0.00    -0.231 N 
ATOM      5  N   UNL     1      34.330 -24.377 -12.701  0.00  0.00    -0.172 NA
ATOM      6  C   UNL     1      34.067 -23.715 -14.841  0.00  0.00    +0.180 A 
ATOM      7  C   UNL     1      35.352 -23.395 -14.489  0.00  0.00    +0.091 A 
ATOM      8  C   UNL     1      34.278 -22.864 -17.053  0.00  0.00    +0.102 A 
ATOM      9  C   UNL     1      35.628 -22.492 -16.784  0.00  0.00    +0.059 A 
ATOM     10  C   UNL     1      35.464 -23.825 -13.157  0.00  0.00    +0.085 A 
ATOM     11  C   UNL     1      36.237 -22.757 -15.434  0.00  0.00    +0.201 A 
ATOM     12  C   UNL     1      33.752 -22.600 -18.324  0.00  0.00    +0.022 C 
ATOM     13  C   UNL     1      36.407 -21.877 -17.770  0.00  0.00    +0.016 C 
ATOM     14  C   UNL     1      32.152 -24.812 -13.608  0.00  0.00    +0.155 C 
ATOM     15  C   UNL     1      36.635 -23.734 -12.267  0.00  0.00    +0.054 C 
ATOM     16  C   UNL     1      34.538 -21.985 -19.302  0.00  0.00    +0.013 C 
ATOM     17  C   UNL     1      35.858 -21.626 -19.026  0.00  0.00    +0.058 C 
ENDROOT
BRANCH   3  18
ATOM     18  O   UNL     1      32.175 -23.853 -16.288  0.00  0.00    -0.424 OA
ATOM     19  H   UNL     1      31.772 -24.533 -15.785  0.00  0.00    +0.326 HD
ENDBRANCH   3  18
TORSDOF 1
ENDMDL
MODEL 4
REMARK VINA RESULT:      -8.8      8.842     11.304
REMARK  Name = 6540289
REMARK  1 active torsions:
REMARK  status: ('A' for Active; 'I' for Inactive)
REMARK    1  A    between atoms: N_3  and  O_18
REMARK                            x       y       z     vdW  Elec       q    Type
REMARK                         _______ _______ _______ _____ _____    ______ ____
ROOT
ATOM      1 CL   UNL     1      35.374 -21.207 -20.527  0.00  0.00    -0.082 Cl
ATOM      2  O   UNL     1      32.468 -23.548 -16.698  0.00  0.00    -0.286 OA
ATOM      3  N   UNL     1      36.142 -23.012 -14.893  0.00  0.00    -0.166 N 
ATOM      4  N   UNL     1      35.050 -24.055 -13.001  0.00  0.00    -0.231 N 
ATOM      5  N   UNL     1      33.847 -24.566 -12.669  0.00  0.00    -0.172 NA
ATOM      6  C   UNL     1      35.089 -23.580 -14.273  0.00  0.00    +0.180 A 
ATOM      7  C   UNL     1      33.846 -23.786 -14.814  0.00  0.00    +0.091 A 
ATOM      8  C   UNL     1      35.968 -22.577 -16.243  0.00  0.00    +0.102 A 
ATOM      9  C   UNL     1      34.711 -22.748 -16.895  0.00  0.00    +0.059 A 
ATOM     10  C   UNL     1      33.117 -24.399 -13.781  0.00  0.00    +0.085 A 
ATOM     11  C   UNL     1      33.559 -23.386 -16.170  0.00  0.00    +0.201 A 
ATOM     12  C   UNL     1      37.015 -21.977 -16.956  0.00  0.00    +0.022 C 
ATOM     13  C   UNL     1      34.532 -22.326 -18.216  0.00  0.00    +0.016 C 
ATOM     14  C   UNL     1      36.100 -24.073 -12.009  0.00  0.00    +0.155 C 
ATOM     15  C   UNL     1      31.714 -24.846 -13.802  0.00  0.00    +0.054 C 
ATOM     16  C   UNL     1      36.825 -21.558 -18.275  0.00  0.00    +0.013 C 
ATOM     17  C   UNL     1      35.590 -21.732 -18.901  0.00  0.00    +0.058 C 
ENDROOT
BRANCH   3  18
ATOM     18  O   UNL     1      37.362 -22.856 -14.252  0.00  0.00    -0.424 OA
ATOM     19  H   UNL     1      38.151 -22.794 -14.755  0.00  0.00    +0.326 HD
ENDBRANCH   3  18
TORSDOF 1
ENDMDL
MODEL 5
REMARK VINA RESULT:      -8.8      2.694      4.921
REMARK  Name = 6540289
REMARK  1 active torsions:
REMARK  status: ('A' for Active; 'I' for Inactive)
REMARK    1  A    between atoms: N_3  and  O_18
REMARK                            x       y       z     vdW  Elec       q    Type
REMARK                         _______ _______ _______ _____ _____    ______ ____
ROOT
ATOM      1 CL   UNL     1      31.733 -11.619 -19.584  0.00  0.00    -0.082 Cl
ATOM      2  O   UNL     1      34.724 -16.041 -19.865  0.00  0.00    -0.286 OA
ATOM      3  N   UNL     1      33.601 -15.416 -23.788  0.00  0.00    -0.166 N 
ATOM      4  N   UNL     1      34.908 -17.415 -24.186  0.00  0.00    -0.231 N 
ATOM      5  N   UNL     1      35.645 -18.309 -23.495  0.00  0.00    -0.172 NA
ATOM      6  C   UNL     1      34.379 -16.445 -23.396  0.00  0.00    +0.180 A 
ATOM      7  C   UNL     1      34.787 -16.708 -22.114  0.00  0.00    +0.091 A 
ATOM      8  C   UNL     1      33.148 -14.501 -22.788  0.00  0.00    +0.102 A 
ATOM      9  C   UNL     1      33.518 -14.690 -21.424  0.00  0.00    +0.059 A 
ATOM     10  C   UNL     1      35.566 -17.870 -22.231  0.00  0.00    +0.085 A 
ATOM     11  C   UNL     1      34.388 -15.850 -21.024  0.00  0.00    +0.201 A 
ATOM     12  C   UNL     1      32.337 -13.406 -23.116  0.00  0.00    +0.022 C 
ATOM     13  C   UNL     1      33.080 -13.799 -20.438  0.00  0.00    +0.016 C 
ATOM     14  C   UNL     1      34.778 -17.590 -25.614  0.00  0.00    +0.155 C 
ATOM     15  C   UNL     1      36.263 -18.608 -21.162  0.00  0.00    +0.054 C 
ATOM     16  C   UNL     1      31.905 -12.523 -22.124  0.00  0.00    +0.013 C 
ATOM     17  C   UNL     1      32.274 -12.719 -20.793  0.00  0.00    +0.058 C 
ENDROOT
BRANCH   3  18
ATOM     18  O   UNL     1      33.242 -15.245 -25.117  0.00  0.00    -0.424 OA
ATOM     19  H   UNL     1      33.820 -15.526 -25.799  0.00  0.00    +0.326 HD
ENDBRANCH   3  18
TORSDOF 1
ENDMDL
MODEL 6
REMARK VINA RESULT:      -8.7     10.168     11.901
REMARK  Name = 6540289
REMARK  1 active torsions:
REMARK  status: ('A' for Active; 'I' for Inactive)
REMARK    1  A    between atoms: N_3  and  O_18
REMARK                            x       y       z     vdW  Elec       q    Type
REMARK                         _______ _______ _______ _____ _____    ______ ____
ROOT
ATOM      1 CL   UNL     1      29.297 -24.789 -14.409  0.00  0.00    -0.082 Cl
ATOM      2  O   UNL     1      34.183 -24.527 -12.256  0.00  0.00    -0.286 OA
ATOM      3  N   UNL     1      34.762 -23.076 -16.077  0.00  0.00    -0.166 N 
ATOM      4  N   UNL     1      37.057 -22.854 -15.343  0.00  0.00    -0.231 N 
ATOM      5  N   UNL     1      37.806 -23.081 -14.244  0.00  0.00    -0.172 NA
ATOM      6  C   UNL     1      35.752 -23.186 -15.170  0.00  0.00    +0.180 A 
ATOM      7  C   UNL     1      35.627 -23.658 -13.889  0.00  0.00    +0.091 A 
ATOM      8  C   UNL     1      33.449 -23.484 -15.687  0.00  0.00    +0.102 A 
ATOM      9  C   UNL     1      33.216 -23.990 -14.374  0.00  0.00    +0.059 A 
ATOM     10  C   UNL     1      36.926 -23.572 -13.361  0.00  0.00    +0.085 A 
ATOM     11  C   UNL     1      34.347 -24.099 -13.389  0.00  0.00    +0.201 A 
ATOM     12  C   UNL     1      32.366 -23.399 -16.573  0.00  0.00    +0.022 C 
ATOM     13  C   UNL     1      31.935 -24.392 -13.984  0.00  0.00    +0.016 C 
ATOM     14  C   UNL     1      37.705 -22.309 -16.514  0.00  0.00    +0.155 C 
ATOM     15  C   UNL     1      37.384 -23.947 -12.011  0.00  0.00    +0.054 C 
ATOM     16  C   UNL     1      31.091 -23.803 -16.172  0.00  0.00    +0.013 C 
ATOM     17  C   UNL     1      30.876 -24.297 -14.885  0.00  0.00    +0.058 C 
ENDROOT
BRANCH   3  18
ATOM     18  O   UNL     1      35.000 -22.587 -17.354  0.00  0.00    -0.424 OA
ATOM     19  H   UNL     1      35.525 -23.080 -17.953  0.00  0.00    +0.326 HD
ENDBRANCH   3  18
TORSDOF 1
ENDMDL
MODEL 7
REMARK VINA RESULT:      -8.7      8.472     10.770
REMARK  Name = 6540289
REMARK  1 active torsions:
REMARK  status: ('A' for Active; 'I' for Inactive)
REMARK    1  A    between atoms: N_3  and  O_18
REMARK                            x       y       z     vdW  Elec       q    Type
REMARK                         _______ _______ _______ _____ _____    ______ ____
ROOT
ATOM      1 CL   UNL     1      28.898 -24.703 -14.903  0.00  0.00    -0.082 Cl
ATOM      2  O   UNL     1      32.334 -22.529 -18.376  0.00  0.00    -0.286 OA
ATOM      3  N   UNL     1      34.744 -23.548 -15.183  0.00  0.00    -0.166 N 
ATOM      4  N   UNL     1      36.496 -22.616 -16.570  0.00  0.00    -0.231 N 
ATOM      5  N   UNL     1      36.644 -22.043 -17.782  0.00  0.00    -0.172 NA
ATOM      6  C   UNL     1      35.209 -22.961 -16.303  0.00  0.00    +0.180 A 
ATOM      7  C   UNL     1      34.465 -22.599 -17.395  0.00  0.00    +0.091 A 
ATOM      8  C   UNL     1      33.346 -23.829 -15.106  0.00  0.00    +0.102 A 
ATOM      9  C   UNL     1      32.485 -23.488 -16.192  0.00  0.00    +0.059 A 
ATOM     10  C   UNL     1      35.399 -22.035 -18.280  0.00  0.00    +0.085 A 
ATOM     11  C   UNL     1      33.041 -22.834 -17.426  0.00  0.00    +0.201 A 
ATOM     12  C   UNL     1      32.786 -24.438 -13.975  0.00  0.00    +0.022 C 
ATOM     13  C   UNL     1      31.115 -23.759 -16.126  0.00  0.00    +0.016 C 
ATOM     14  C   UNL     1      37.668 -22.785 -15.743  0.00  0.00    +0.155 C 
ATOM     15  C   UNL     1      35.158 -21.473 -19.620  0.00  0.00    +0.054 C 
ATOM     16  C   UNL     1      31.415 -24.704 -13.920  0.00  0.00    +0.013 C 
ATOM     17  C   UNL     1      30.585 -24.366 -14.989  0.00  0.00    +0.058 C 
ENDROOT
BRANCH   3  18
ATOM     18  O   UNL     1      35.588 -23.870 -14.130  0.00  0.00    -0.424 OA
ATOM     19  H   UNL     1      36.339 -23.338 -13.952  0.00  0.00    +0.326 HD
ENDBRANCH   3  18
TORSDOF 1
ENDMDL
MODEL 8
REMARK VINA RESULT:      -8.5      7.437      9.892
REMARK  Name = 6540289
REMARK  1 active torsions:
REMARK  status: ('A' for Active; 'I' for Inactive)
REMARK    1  A    between atoms: N_3  and  O_18
REMARK                            x       y       z     vdW  Elec       q    Type
REMARK                         _______ _______ _______ _____ _____    ______ ____
ROOT
ATOM      1 CL   UNL     1      34.737 -19.762 -21.845  0.00  0.00    -0.082 Cl
ATOM      2  O   UNL     1      32.035 -22.386 -18.051  0.00  0.00    -0.286 OA
ATOM      3  N   UNL     1      35.965 -22.797 -16.858  0.00  0.00    -0.166 N 
ATOM      4  N   UNL     1      34.986 -24.035 -15.024  0.00  0.00    -0.231 N 
ATOM      5  N   UNL     1      33.769 -24.418 -14.582  0.00  0.00    -0.172 NA
ATOM      6  C   UNL     1      34.926 -23.317 -16.175  0.00  0.00    +0.180 A 
ATOM      7  C   UNL     1      33.603 -23.217 -16.515  0.00  0.00    +0.091 A 
ATOM      8  C   UNL     1      35.682 -22.069 -18.054  0.00  0.00    +0.102 A 
ATOM      9  C   UNL     1      34.334 -21.909 -18.494  0.00  0.00    +0.059 A 
ATOM     10  C   UNL     1      32.930 -23.914 -15.499  0.00  0.00    +0.085 A 
ATOM     11  C   UNL     1      33.201 -22.504 -17.704  0.00  0.00    +0.201 A 
ATOM     12  C   UNL     1      36.707 -21.497 -18.820  0.00  0.00    +0.022 C 
ATOM     13  C   UNL     1      34.047 -21.198 -19.664  0.00  0.00    +0.016 C 
ATOM     14  C   UNL     1      36.146 -24.418 -14.254  0.00  0.00    +0.155 C 
ATOM     15  C   UNL     1      31.481 -24.132 -15.352  0.00  0.00    +0.054 C 
ATOM     16  C   UNL     1      36.409 -20.789 -19.987  0.00  0.00    +0.013 C 
ATOM     17  C   UNL     1      35.086 -20.640 -20.406  0.00  0.00    +0.058 C 
ENDROOT
BRANCH   3  18
ATOM     18  O   UNL     1      37.273 -22.963 -16.426  0.00  0.00    -0.424 OA
ATOM     19  H   UNL     1      37.717 -23.775 -16.575  0.00  0.00    +0.326 HD
ENDBRANCH   3  18
TORSDOF 1
ENDMDL
MODEL 9
REMARK VINA RESULT:      -8.1      8.040     10.222
REMARK  Name = 6540289
REMARK  1 active torsions:
REMARK  status: ('A' for Active; 'I' for Inactive)
REMARK    1  A    between atoms: N_3  and  O_18
REMARK                            x       y       z     vdW  Elec       q    Type
REMARK                         _______ _______ _______ _____ _____    ______ ____
ROOT
ATOM      1 CL   UNL     1      30.278 -24.718 -13.012  0.00  0.00    -0.082 Cl
ATOM      2  O   UNL     1      35.351 -23.556 -14.236  0.00  0.00    -0.286 OA
ATOM      3  N   UNL     1      33.313 -22.630 -17.705  0.00  0.00    -0.166 N 
ATOM      4  N   UNL     1      35.517 -22.028 -18.506  0.00  0.00    -0.231 N 
ATOM      5  N   UNL     1      36.792 -21.998 -18.066  0.00  0.00    -0.172 NA
ATOM      6  C   UNL     1      34.646 -22.485 -17.568  0.00  0.00    +0.180 A 
ATOM      7  C   UNL     1      35.381 -22.773 -16.448  0.00  0.00    +0.091 A 
ATOM      8  C   UNL     1      32.577 -23.130 -16.587  0.00  0.00    +0.102 A 
ATOM      9  C   UNL     1      33.252 -23.460 -15.374  0.00  0.00    +0.059 A 
ATOM     10  C   UNL     1      36.701 -22.455 -16.809  0.00  0.00    +0.085 A 
ATOM     11  C   UNL     1      34.741 -23.284 -15.260  0.00  0.00    +0.201 A 
ATOM     12  C   UNL     1      31.189 -23.308 -16.649  0.00  0.00    +0.022 C 
ATOM     13  C   UNL     1      32.540 -23.950 -14.274  0.00  0.00    +0.016 C 
ATOM     14  C   UNL     1      35.246 -21.591 -19.856  0.00  0.00    +0.155 C 
ATOM     15  C   UNL     1      37.919 -22.567 -15.988  0.00  0.00    +0.054 C 
ATOM     16  C   UNL     1      30.488 -23.798 -15.545  0.00  0.00    +0.013 C 
ATOM     17  C   UNL     1      31.160 -24.117 -14.364  0.00  0.00    +0.058 C 
ENDROOT
BRANCH   3  18
ATOM     18  O   UNL     1      32.667 -22.312 -18.890  0.00  0.00    -0.424 OA
ATOM     19  H   UNL     1      33.167 -22.091 -19.652  0.00  0.00    +0.326 HD
ENDBRANCH   3  18
TORSDOF 1
ENDMDL
