MODEL 1
REMARK VINA RESULT:      -9.7      0.000      0.000
REMARK  Name = 4632
REMARK  4 active torsions:
REMARK  status: ('A' for Active; 'I' for Inactive)
REMARK    1  A    between atoms: C_1  and  C_12
REMARK    2  A    between atoms: C_2  and  O_9
REMARK    3  A    between atoms: C_4  and  O_7
REMARK    4  A    between atoms: C_12  and  C_13
REMARK                            x       y       z     vdW  Elec       q    Type
REMARK                         _______ _______ _______ _____ _____    ______ ____
ROOT
ATOM      1  C   UNL     1      35.225 -18.121 -22.884  0.00  0.00    +0.073 C 
ATOM      2  C   UNL     1      34.906 -16.778 -22.790  0.00  0.00    +0.140 C 
ATOM      3  C   UNL     1      35.042 -18.829 -24.061  0.00  0.00    +0.009 C 
ATOM      4  C   UNL     1      34.193 -16.819 -25.099  0.00  0.00    +0.142 C 
ATOM      5  C   UNL     1      34.386 -16.122 -23.906  0.00  0.00    +0.074 C 
ATOM      6  C   UNL     1      34.522 -18.172 -25.177  0.00  0.00    +0.037 C 
ENDROOT
BRANCH   4   7
ATOM      7  O   UNL     1      33.685 -16.178 -26.187  0.00  0.00    -0.471 OA
ATOM      8  C   UNL     1      33.084 -14.903 -25.968  0.00  0.00    +0.252 C 
ENDBRANCH   4   7
BRANCH   2   9
ATOM      9  O   UNL     1      35.088 -16.079 -21.635  0.00  0.00    -0.505 OA
ATOM     10  H   UNL     1      35.872 -15.583 -21.506  0.00  0.00    +0.292 HD
ENDBRANCH   2   9
BRANCH   1  12
ATOM     11  O   UNL     1      36.968 -18.678 -21.392  0.00  0.00    -0.286 OA
ATOM     12  C   UNL     1      35.781 -18.835 -21.716  0.00  0.00    +0.198 C 
BRANCH  12  13
ATOM     13  C   UNL     1      34.959 -19.745 -20.935  0.00  0.00    +0.039 C 
ATOM     14  C   UNL     1      33.575 -19.576 -20.898  0.00  0.00    +0.003 C 
ATOM     15  C   UNL     1      35.553 -20.786 -20.223  0.00  0.00    +0.003 C 
ATOM     16  C   UNL     1      32.786 -20.448 -20.149  0.00  0.00    +0.000 C 
ATOM     17  C   UNL     1      34.764 -21.658 -19.473  0.00  0.00    +0.000 C 
ATOM     18  C   UNL     1      33.381 -21.490 -19.436  0.00  0.00    +0.000 C 
ENDBRANCH  12  13
ENDBRANCH   1  12
TORSDOF 4
ENDMDL
MODEL 2
REMARK VINA RESULT:      -9.3      1.919      6.067
REMARK  Name = 4632
REMARK  4 active torsions:
REMARK  status: ('A' for Active; 'I' for Inactive)
REMARK    1  A    between atoms: C_1  and  C_12
REMARK    2  A    between atoms: C_2  and  O_9
REMARK    3  A    between atoms: C_4  and  O_7
REMARK    4  A    between atoms: C_12  and  C_13
REMARK                            x       y       z     vdW  Elec       q    Type
REMARK                         _______ _______ _______ _____ _____    ______ ____
ROOT
ATOM      1  C   UNL     1      35.007 -19.927 -20.784  0.00  0.00    +0.073 C 
ATOM      2  C   UNL     1      35.568 -20.982 -20.086  0.00  0.00    +0.140 C 
ATOM      3  C   UNL     1      33.645 -19.676 -20.747  0.00  0.00    +0.009 C 
ATOM      4  C   UNL     1      33.369 -21.576 -19.279  0.00  0.00    +0.142 C 
ATOM      5  C   UNL     1      34.742 -21.813 -19.328  0.00  0.00    +0.074 C 
ATOM      6  C   UNL     1      32.820 -20.507 -19.989  0.00  0.00    +0.037 C 
ENDROOT
BRANCH   4   7
ATOM      7  O   UNL     1      32.563 -22.387 -18.541  0.00  0.00    -0.471 OA
ATOM      8  C   UNL     1      33.187 -23.173 -17.527  0.00  0.00    +0.252 C 
ENDBRANCH   4   7
BRANCH   2   9
ATOM      9  O   UNL     1      36.907 -21.230 -20.118  0.00  0.00    -0.505 OA
ATOM     10  H   UNL     1      37.512 -20.572 -19.836  0.00  0.00    +0.292 HD
ENDBRANCH   2   9
BRANCH   1  12
ATOM     11  O   UNL     1      37.036 -18.814 -21.250  0.00  0.00    -0.286 OA
ATOM     12  C   UNL     1      35.863 -19.032 -21.589  0.00  0.00    +0.198 C 
BRANCH  12  13
ATOM     13  C   UNL     1      35.347 -18.378 -22.781  0.00  0.00    +0.039 C 
ATOM     14  C   UNL     1      35.265 -16.987 -22.834  0.00  0.00    +0.003 C 
ATOM     15  C   UNL     1      34.934 -19.143 -23.873  0.00  0.00    +0.003 C 
ATOM     16  C   UNL     1      34.770 -16.361 -23.978  0.00  0.00    +0.000 C 
ATOM     17  C   UNL     1      34.439 -18.516 -25.016  0.00  0.00    +0.000 C 
ATOM     18  C   UNL     1      34.357 -17.125 -25.069  0.00  0.00    +0.000 C 
ENDBRANCH  12  13
ENDBRANCH   1  12
TORSDOF 4
ENDMDL
MODEL 3
REMARK VINA RESULT:      -9.3      0.952      2.032
REMARK  Name = 4632
REMARK  4 active torsions:
REMARK  status: ('A' for Active; 'I' for Inactive)
REMARK    1  A    between atoms: C_1  and  C_12
REMARK    2  A    between atoms: C_2  and  O_9
REMARK    3  A    between atoms: C_4  and  O_7
REMARK    4  A    between atoms: C_12  and  C_13
REMARK                            x       y       z     vdW  Elec       q    Type
REMARK                         _______ _______ _______ _____ _____    ______ ____
ROOT
ATOM      1  C   UNL     1      35.293 -17.948 -23.036  0.00  0.00    +0.073 C 
ATOM      2  C   UNL     1      34.930 -18.598 -24.202  0.00  0.00    +0.140 C 
ATOM      3  C   UNL     1      35.149 -16.578 -22.895  0.00  0.00    +0.009 C 
ATOM      4  C   UNL     1      34.257 -16.474 -25.138  0.00  0.00    +0.142 C 
ATOM      5  C   UNL     1      34.408 -17.855 -25.262  0.00  0.00    +0.074 C 
ATOM      6  C   UNL     1      34.628 -15.835 -23.954  0.00  0.00    +0.037 C 
ENDROOT
BRANCH   4   7
ATOM      7  O   UNL     1      33.749 -15.749 -26.172  0.00  0.00    -0.471 OA
ATOM      8  C   UNL     1      32.981 -14.595 -25.839  0.00  0.00    +0.252 C 
ENDBRANCH   4   7
BRANCH   2   9
ATOM      9  O   UNL     1      35.068 -19.947 -24.343  0.00  0.00    -0.505 OA
ATOM     10  H   UNL     1      35.853 -20.370 -24.055  0.00  0.00    +0.292 HD
ENDBRANCH   2   9
BRANCH   1  12
ATOM     11  O   UNL     1      37.050 -18.645 -21.621  0.00  0.00    -0.286 OA
ATOM     12  C   UNL     1      35.844 -18.716 -21.900  0.00  0.00    +0.198 C 
BRANCH  12  13
ATOM     13  C   UNL     1      34.991 -19.579 -21.098  0.00  0.00    +0.039 C 
ATOM     14  C   UNL     1      35.551 -20.617 -20.354  0.00  0.00    +0.003 C 
ATOM     15  C   UNL     1      33.612 -19.368 -21.072  0.00  0.00    +0.003 C 
ATOM     16  C   UNL     1      34.733 -21.444 -19.585  0.00  0.00    +0.000 C 
ATOM     17  C   UNL     1      32.794 -20.195 -20.303  0.00  0.00    +0.000 C 
ATOM     18  C   UNL     1      33.354 -21.234 -19.560  0.00  0.00    +0.000 C 
ENDBRANCH  12  13
ENDBRANCH   1  12
TORSDOF 4
ENDMDL
MODEL 4
REMARK VINA RESULT:      -9.2      1.673      2.691
REMARK  Name = 4632
REMARK  4 active torsions:
REMARK  status: ('A' for Active; 'I' for Inactive)
REMARK    1  A    between atoms: C_1  and  C_12
REMARK    2  A    between atoms: C_2  and  O_9
REMARK    3  A    between atoms: C_4  and  O_7
REMARK    4  A    between atoms: C_12  and  C_13
REMARK                            x       y       z     vdW  Elec       q    Type
REMARK                         _______ _______ _______ _____ _____    ______ ____
ROOT
ATOM      1  C   UNL     1      35.169 -17.002 -21.915  0.00  0.00    +0.073 C 
ATOM      2  C   UNL     1      34.999 -16.596 -23.227  0.00  0.00    +0.140 C 
ATOM      3  C   UNL     1      34.780 -16.203 -20.853  0.00  0.00    +0.009 C 
ATOM      4  C   UNL     1      34.026 -14.534 -22.429  0.00  0.00    +0.142 C 
ATOM      5  C   UNL     1      34.423 -15.352 -23.486  0.00  0.00    +0.074 C 
ATOM      6  C   UNL     1      34.204 -14.959 -21.112  0.00  0.00    +0.037 C 
ENDROOT
BRANCH   4   7
ATOM      7  O   UNL     1      33.464 -13.319 -22.682  0.00  0.00    -0.471 OA
ATOM      8  C   UNL     1      33.787 -12.702 -23.927  0.00  0.00    +0.252 C 
ENDBRANCH   4   7
BRANCH   2   9
ATOM      9  O   UNL     1      35.379 -17.382 -24.274  0.00  0.00    -0.505 OA
ATOM     10  H   UNL     1      35.406 -17.026 -25.141  0.00  0.00    +0.292 HD
ENDBRANCH   2   9
BRANCH   1  12
ATOM     11  O   UNL     1      36.944 -18.558 -21.948  0.00  0.00    -0.286 OA
ATOM     12  C   UNL     1      35.773 -18.317 -21.618  0.00  0.00    +0.198 C 
BRANCH  12  13
ATOM     13  C   UNL     1      35.008 -19.357 -20.950  0.00  0.00    +0.039 C 
ATOM     14  C   UNL     1      35.667 -20.379 -20.268  0.00  0.00    +0.003 C 
ATOM     15  C   UNL     1      33.614 -19.332 -20.991  0.00  0.00    +0.003 C 
ATOM     16  C   UNL     1      34.932 -21.377 -19.627  0.00  0.00    +0.000 C 
ATOM     17  C   UNL     1      32.879 -20.330 -20.350  0.00  0.00    +0.000 C 
ATOM     18  C   UNL     1      33.538 -21.352 -19.668  0.00  0.00    +0.000 C 
ENDBRANCH  12  13
ENDBRANCH   1  12
TORSDOF 4
ENDMDL
MODEL 5
REMARK VINA RESULT:      -9.1      2.068      5.950
REMARK  Name = 4632
REMARK  4 active torsions:
REMARK  status: ('A' for Active; 'I' for Inactive)
REMARK    1  A    between atoms: C_1  and  C_12
REMARK    2  A    between atoms: C_2  and  O_9
REMARK    3  A    between atoms: C_4  and  O_7
REMARK    4  A    between atoms: C_12  and  C_13
REMARK                            x       y       z     vdW  Elec       q    Type
REMARK                         _______ _______ _______ _____ _____    ______ ____
ROOT
ATOM      1  C   UNL     1      34.948 -19.334 -21.021  0.00  0.00    +0.073 C 
ATOM      2  C   UNL     1      35.630 -20.276 -20.272  0.00  0.00    +0.140 C 
ATOM      3  C   UNL     1      33.566 -19.342 -21.112  0.00  0.00    +0.009 C 
ATOM      4  C   UNL     1      33.517 -21.283 -19.674  0.00  0.00    +0.142 C 
ATOM      5  C   UNL     1      34.909 -21.259 -19.593  0.00  0.00    +0.074 C 
ATOM      6  C   UNL     1      32.845 -20.325 -20.434  0.00  0.00    +0.037 C 
ENDROOT
BRANCH   4   7
ATOM      7  O   UNL     1      32.813 -22.243 -19.013  0.00  0.00    -0.471 OA
ATOM      8  C   UNL     1      33.519 -23.011 -18.041  0.00  0.00    +0.252 C 
ENDBRANCH   4   7
BRANCH   2   9
ATOM      9  O   UNL     1      36.990 -20.268 -20.178  0.00  0.00    -0.505 OA
ATOM     10  H   UNL     1      37.459 -21.077 -20.117  0.00  0.00    +0.292 HD
ENDBRANCH   2   9
BRANCH   1  12
ATOM     11  O   UNL     1      36.800 -18.528 -22.244  0.00  0.00    -0.286 OA
ATOM     12  C   UNL     1      35.692 -18.281 -21.744  0.00  0.00    +0.198 C 
BRANCH  12  13
ATOM     13  C   UNL     1      35.151 -16.938 -21.871  0.00  0.00    +0.039 C 
ATOM     14  C   UNL     1      34.799 -16.217 -20.730  0.00  0.00    +0.003 C 
ATOM     15  C   UNL     1      34.984 -16.369 -23.134  0.00  0.00    +0.003 C 
ATOM     16  C   UNL     1      34.280 -14.928 -20.852  0.00  0.00    +0.000 C 
ATOM     17  C   UNL     1      34.465 -15.081 -23.256  0.00  0.00    +0.000 C 
ATOM     18  C   UNL     1      34.113 -14.360 -22.116  0.00  0.00    +0.000 C 
ENDBRANCH  12  13
ENDBRANCH   1  12
TORSDOF 4
ENDMDL
MODEL 6
REMARK VINA RESULT:      -8.9      1.412      1.954
REMARK  Name = 4632
REMARK  4 active torsions:
REMARK  status: ('A' for Active; 'I' for Inactive)
REMARK    1  A    between atoms: C_1  and  C_12
REMARK    2  A    between atoms: C_2  and  O_9
REMARK    3  A    between atoms: C_4  and  O_7
REMARK    4  A    between atoms: C_12  and  C_13
REMARK                            x       y       z     vdW  Elec       q    Type
REMARK                         _______ _______ _______ _____ _____    ______ ____
ROOT
ATOM      1  C   UNL     1      34.412 -16.304 -22.869  0.00  0.00    +0.073 C 
ATOM      2  C   UNL     1      33.643 -15.175 -23.087  0.00  0.00    +0.140 C 
ATOM      3  C   UNL     1      34.871 -17.082 -23.919  0.00  0.00    +0.009 C 
ATOM      4  C   UNL     1      33.773 -15.584 -25.465  0.00  0.00    +0.142 C 
ATOM      5  C   UNL     1      33.320 -14.812 -24.395  0.00  0.00    +0.074 C 
ATOM      6  C   UNL     1      34.548 -16.719 -25.227  0.00  0.00    +0.037 C 
ENDROOT
BRANCH   4   7
ATOM      7  O   UNL     1      33.457 -15.231 -26.741  0.00  0.00    -0.471 OA
ATOM      8  C   UNL     1      33.297 -13.839 -27.009  0.00  0.00    +0.252 C 
ENDBRANCH   4   7
BRANCH   2   9
ATOM      9  O   UNL     1      33.192 -14.406 -22.056  0.00  0.00    -0.505 OA
ATOM     10  H   UNL     1      33.249 -14.723 -21.176  0.00  0.00    +0.292 HD
ENDBRANCH   2   9
BRANCH   1  12
ATOM     11  O   UNL     1      35.043 -15.844 -20.641  0.00  0.00    -0.286 OA
ATOM     12  C   UNL     1      34.769 -16.704 -21.492  0.00  0.00    +0.198 C 
BRANCH  12  13
ATOM     13  C   UNL     1      34.823 -18.106 -21.112  0.00  0.00    +0.039 C 
ATOM     14  C   UNL     1      33.642 -18.832 -20.955  0.00  0.00    +0.003 C 
ATOM     15  C   UNL     1      36.055 -18.726 -20.904  0.00  0.00    +0.003 C 
ATOM     16  C   UNL     1      33.694 -20.177 -20.590  0.00  0.00    +0.000 C 
ATOM     17  C   UNL     1      36.107 -20.071 -20.538  0.00  0.00    +0.000 C 
ATOM     18  C   UNL     1      34.926 -20.797 -20.381  0.00  0.00    +0.000 C 
ENDBRANCH  12  13
ENDBRANCH   1  12
TORSDOF 4
ENDMDL
MODEL 7
REMARK VINA RESULT:      -8.9      2.027      6.045
REMARK  Name = 4632
REMARK  4 active torsions:
REMARK  status: ('A' for Active; 'I' for Inactive)
REMARK    1  A    between atoms: C_1  and  C_12
REMARK    2  A    between atoms: C_2  and  O_9
REMARK    3  A    between atoms: C_4  and  O_7
REMARK    4  A    between atoms: C_12  and  C_13
REMARK                            x       y       z     vdW  Elec       q    Type
REMARK                         _______ _______ _______ _____ _____    ______ ____
ROOT
ATOM      1  C   UNL     1      34.842 -19.660 -20.593  0.00  0.00    +0.073 C 
ATOM      2  C   UNL     1      33.545 -20.064 -20.332  0.00  0.00    +0.140 C 
ATOM      3  C   UNL     1      35.927 -20.465 -20.288  0.00  0.00    +0.009 C 
ATOM      4  C   UNL     1      34.406 -22.135 -19.432  0.00  0.00    +0.142 C 
ATOM      5  C   UNL     1      33.325 -21.312 -19.747  0.00  0.00    +0.074 C 
ATOM      6  C   UNL     1      35.707 -21.712 -19.702  0.00  0.00    +0.037 C 
ENDROOT
BRANCH   4   7
ATOM      7  O   UNL     1      34.191 -23.352 -18.859  0.00  0.00    -0.471 OA
ATOM      8  C   UNL     1      33.438 -23.375 -17.648  0.00  0.00    +0.252 C 
ENDBRANCH   4   7
BRANCH   2   9
ATOM      9  O   UNL     1      32.475 -19.276 -20.634  0.00  0.00    -0.505 OA
ATOM     10  H   UNL     1      32.530 -18.348 -20.517  0.00  0.00    +0.292 HD
ENDBRANCH   2   9
BRANCH   1  12
ATOM     11  O   UNL     1      35.471 -17.385 -20.525  0.00  0.00    -0.286 OA
ATOM     12  C   UNL     1      35.098 -18.345 -21.216  0.00  0.00    +0.198 C 
BRANCH  12  13
ATOM     13  C   UNL     1      34.904 -18.145 -22.643  0.00  0.00    +0.039 C 
ATOM     14  C   UNL     1      34.901 -16.855 -23.173  0.00  0.00    +0.003 C 
ATOM     15  C   UNL     1      34.720 -19.243 -23.484  0.00  0.00    +0.003 C 
ATOM     16  C   UNL     1      34.715 -16.662 -24.541  0.00  0.00    +0.000 C 
ATOM     17  C   UNL     1      34.534 -19.051 -24.852  0.00  0.00    +0.000 C 
ATOM     18  C   UNL     1      34.531 -17.761 -25.382  0.00  0.00    +0.000 C 
ENDBRANCH  12  13
ENDBRANCH   1  12
TORSDOF 4
ENDMDL
MODEL 8
REMARK VINA RESULT:      -8.7      4.634      8.595
REMARK  Name = 4632
REMARK  4 active torsions:
REMARK  status: ('A' for Active; 'I' for Inactive)
REMARK    1  A    between atoms: C_1  and  C_12
REMARK    2  A    between atoms: C_2  and  O_9
REMARK    3  A    between atoms: C_4  and  O_7
REMARK    4  A    between atoms: C_12  and  C_13
REMARK                            x       y       z     vdW  Elec       q    Type
REMARK                         _______ _______ _______ _____ _____    ______ ____
ROOT
ATOM      1  C   UNL     1      33.342 -23.078 -17.480  0.00  0.00    +0.073 C 
ATOM      2  C   UNL     1      34.267 -23.205 -16.459  0.00  0.00    +0.140 C 
ATOM      3  C   UNL     1      31.986 -22.973 -17.220  0.00  0.00    +0.009 C 
ATOM      4  C   UNL     1      32.460 -23.127 -14.856  0.00  0.00    +0.142 C 
ATOM      5  C   UNL     1      33.822 -23.230 -15.136  0.00  0.00    +0.074 C 
ATOM      6  C   UNL     1      31.541 -22.998 -15.898  0.00  0.00    +0.037 C 
ENDROOT
BRANCH   4   7
ATOM      7  O   UNL     1      32.026 -23.153 -13.566  0.00  0.00    -0.471 OA
ATOM      8  C   UNL     1      30.829 -23.881 -13.298  0.00  0.00    +0.252 C 
ENDBRANCH   4   7
BRANCH   2   9
ATOM      9  O   UNL     1      35.603 -23.306 -16.711  0.00  0.00    -0.505 OA
ATOM     10  H   UNL     1      36.016 -22.701 -17.295  0.00  0.00    +0.292 HD
ENDBRANCH   2   9
BRANCH   1  12
ATOM     11  O   UNL     1      33.960 -24.100 -19.516  0.00  0.00    -0.286 OA
ATOM     12  C   UNL     1      33.792 -23.044 -18.887  0.00  0.00    +0.198 C 
BRANCH  12  13
ATOM     13  C   UNL     1      34.059 -21.782 -19.556  0.00  0.00    +0.039 C 
ATOM     14  C   UNL     1      35.374 -21.369 -19.767  0.00  0.00    +0.003 C 
ATOM     15  C   UNL     1      33.000 -20.982 -19.987  0.00  0.00    +0.003 C 
ATOM     16  C   UNL     1      35.631 -20.157 -20.408  0.00  0.00    +0.000 C 
ATOM     17  C   UNL     1      33.256 -19.771 -20.629  0.00  0.00    +0.000 C 
ATOM     18  C   UNL     1      34.572 -19.358 -20.839  0.00  0.00    +0.000 C 
ENDBRANCH  12  13
ENDBRANCH   1  12
TORSDOF 4
ENDMDL
MODEL 9
REMARK VINA RESULT:      -8.6      2.945      5.120
REMARK  Name = 4632
REMARK  4 active torsions:
REMARK  status: ('A' for Active; 'I' for Inactive)
REMARK    1  A    between atoms: C_1  and  C_12
REMARK    2  A    between atoms: C_2  and  O_9
REMARK    3  A    between atoms: C_4  and  O_7
REMARK    4  A    between atoms: C_12  and  C_13
REMARK                            x       y       z     vdW  Elec       q    Type
REMARK                         _______ _______ _______ _____ _____    ______ ____
ROOT
ATOM      1  C   UNL     1      34.005 -21.569 -19.701  0.00  0.00    +0.073 C 
ATOM      2  C   UNL     1      35.239 -21.021 -20.003  0.00  0.00    +0.140 C 
ATOM      3  C   UNL     1      32.825 -20.916 -20.016  0.00  0.00    +0.009 C 
ATOM      4  C   UNL     1      34.118 -19.108 -20.963  0.00  0.00    +0.142 C 
ATOM      5  C   UNL     1      35.296 -19.780 -20.639  0.00  0.00    +0.074 C 
ATOM      6  C   UNL     1      32.882 -19.675 -20.652  0.00  0.00    +0.037 C 
ENDROOT
BRANCH   4   7
ATOM      7  O   UNL     1      34.174 -17.896 -21.583  0.00  0.00    -0.471 OA
ATOM      8  C   UNL     1      35.000 -16.899 -20.984  0.00  0.00    +0.252 C 
ENDBRANCH   4   7
BRANCH   2   9
ATOM      9  O   UNL     1      36.401 -21.663 -19.696  0.00  0.00    -0.505 OA
ATOM     10  H   UNL     1      36.510 -22.056 -18.852  0.00  0.00    +0.292 HD
ENDBRANCH   2   9
BRANCH   1  12
ATOM     11  O   UNL     1      34.114 -23.927 -19.673  0.00  0.00    -0.286 OA
ATOM     12  C   UNL     1      33.921 -22.884 -19.032  0.00  0.00    +0.198 C 
BRANCH  12  13
ATOM     13  C   UNL     1      33.596 -22.983 -17.618  0.00  0.00    +0.039 C 
ATOM     14  C   UNL     1      32.264 -23.049 -17.211  0.00  0.00    +0.003 C 
ATOM     15  C   UNL     1      34.617 -23.011 -16.668  0.00  0.00    +0.003 C 
ATOM     16  C   UNL     1      31.952 -23.144 -15.855  0.00  0.00    +0.000 C 
ATOM     17  C   UNL     1      34.305 -23.105 -15.312  0.00  0.00    +0.000 C 
ATOM     18  C   UNL     1      32.973 -23.172 -14.905  0.00  0.00    +0.000 C 
ENDBRANCH  12  13
ENDBRANCH   1  12
TORSDOF 4
ENDMDL
