MODEL 1
REMARK VINA RESULT:      -7.9      0.000      0.000
REMARK  Name = 2776332
REMARK  3 active torsions:
REMARK  status: ('A' for Active; 'I' for Inactive)
REMARK    1  A    between atoms: C_1  and  C_8
REMARK    2  A    between atoms: C_2  and  C_12
REMARK    3  A    between atoms: C_12  and  N_13
REMARK                            x       y       z     vdW  Elec       q    Type
REMARK                         _______ _______ _______ _____ _____    ______ ____
ROOT
ATOM      1  C   UNL     1      34.469 -19.520 -21.265  0.00  0.00    +0.006 C 
ATOM      2  C   UNL     1      34.064 -21.543 -19.388  0.00  0.00    -0.044 C 
ATOM      3  C   UNL     1      35.559 -20.229 -20.758  0.00  0.00    +0.000 C 
ATOM      4  C   UNL     1      33.178 -19.823 -20.835  0.00  0.00    +0.000 C 
ATOM      5  C   UNL     1      35.355 -21.241 -19.820  0.00  0.00    -0.006 C 
ATOM      6  C   UNL     1      32.975 -20.834 -19.896  0.00  0.00    -0.006 C 
ENDROOT
BRANCH   1   8
ATOM      7  S   UNL     1      34.847 -16.859 -21.692  0.00  0.00    -0.086 S 
ATOM      8  C   UNL     1      34.679 -18.474 -22.237  0.00  0.00    +0.029 C 
ATOM      9  C   UNL     1      34.772 -18.568 -23.609  0.00  0.00    +0.007 C 
ATOM     10  C   UNL     1      34.983 -17.298 -24.219  0.00  0.00    +0.007 C 
ATOM     11  C   UNL     1      35.044 -16.281 -23.293  0.00  0.00    +0.035 C 
ENDBRANCH   1   8
BRANCH   2  12
ATOM     12  C   UNL     1      33.847 -22.625 -18.385  0.00  0.00    -0.059 C 
BRANCH  12  13
ATOM     13  N   UNL     1      32.444 -22.633 -17.978  0.00  0.00    +0.383 N 
ATOM     14  H   UNL     1      32.293 -21.921 -17.264  0.00  0.00    -0.089 HD
ATOM     15  H   UNL     1      32.204 -23.549 -17.600  0.00  0.00    -0.089 HD
ATOM     16  H   UNL     1      31.854 -22.434 -18.787  0.00  0.00    -0.089 HD
ENDBRANCH  12  13
ENDBRANCH   2  12
TORSDOF 3
ENDMDL
MODEL 2
REMARK VINA RESULT:      -7.9      0.102      1.344
REMARK  Name = 2776332
REMARK  3 active torsions:
REMARK  status: ('A' for Active; 'I' for Inactive)
REMARK    1  A    between atoms: C_1  and  C_8
REMARK    2  A    between atoms: C_2  and  C_12
REMARK    3  A    between atoms: C_12  and  N_13
REMARK                            x       y       z     vdW  Elec       q    Type
REMARK                         _______ _______ _______ _____ _____    ______ ____
ROOT
ATOM      1  C   UNL     1      34.455 -19.474 -21.211  0.00  0.00    +0.006 C 
ATOM      2  C   UNL     1      34.042 -21.547 -19.391  0.00  0.00    -0.044 C 
ATOM      3  C   UNL     1      33.159 -19.797 -20.805  0.00  0.00    +0.000 C 
ATOM      4  C   UNL     1      35.542 -20.185 -20.707  0.00  0.00    +0.000 C 
ATOM      5  C   UNL     1      32.953 -20.834 -19.895  0.00  0.00    -0.006 C 
ATOM      6  C   UNL     1      35.336 -21.222 -19.796  0.00  0.00    -0.006 C 
ENDROOT
BRANCH   1   8
ATOM      7  S   UNL     1      34.779 -16.795 -21.569  0.00  0.00    -0.086 S 
ATOM      8  C   UNL     1      34.668 -18.401 -22.153  0.00  0.00    +0.029 C 
ATOM      9  C   UNL     1      34.805 -18.462 -23.523  0.00  0.00    +0.007 C 
ATOM     10  C   UNL     1      35.002 -17.174 -24.099  0.00  0.00    +0.007 C 
ATOM     11  C   UNL     1      35.009 -16.177 -23.149  0.00  0.00    +0.035 C 
ENDBRANCH   1   8
BRANCH   2  12
ATOM     12  C   UNL     1      33.822 -22.654 -18.417  0.00  0.00    -0.059 C 
BRANCH  12  13
ATOM     13  N   UNL     1      32.430 -22.638 -17.973  0.00  0.00    +0.383 N 
ATOM     14  H   UNL     1      32.327 -21.977 -17.204  0.00  0.00    -0.089 HD
ATOM     15  H   UNL     1      32.162 -23.571 -17.658  0.00  0.00    -0.089 HD
ATOM     16  H   UNL     1      31.829 -22.355 -18.748  0.00  0.00    -0.089 HD
ENDBRANCH  12  13
ENDBRANCH   2  12
TORSDOF 3
ENDMDL
MODEL 3
REMARK VINA RESULT:      -7.8      0.895      1.773
REMARK  Name = 2776332
REMARK  3 active torsions:
REMARK  status: ('A' for Active; 'I' for Inactive)
REMARK    1  A    between atoms: C_1  and  C_8
REMARK    2  A    between atoms: C_2  and  C_12
REMARK    3  A    between atoms: C_12  and  N_13
REMARK                            x       y       z     vdW  Elec       q    Type
REMARK                         _______ _______ _______ _____ _____    ______ ____
ROOT
ATOM      1  C   UNL     1      34.486 -19.329 -21.263  0.00  0.00    +0.006 C 
ATOM      2  C   UNL     1      34.108 -21.458 -19.501  0.00  0.00    -0.044 C 
ATOM      3  C   UNL     1      33.197 -19.678 -20.857  0.00  0.00    +0.000 C 
ATOM      4  C   UNL     1      35.584 -20.043 -20.788  0.00  0.00    +0.000 C 
ATOM      5  C   UNL     1      33.009 -20.742 -19.976  0.00  0.00    -0.006 C 
ATOM      6  C   UNL     1      35.396 -21.108 -19.906  0.00  0.00    -0.006 C 
ENDROOT
BRANCH   1   8
ATOM      7  S   UNL     1      34.831 -18.553 -23.849  0.00  0.00    -0.086 S 
ATOM      8  C   UNL     1      34.681 -18.227 -22.174  0.00  0.00    +0.029 C 
ATOM      9  C   UNL     1      34.771 -16.879 -21.901  0.00  0.00    +0.007 C 
ATOM     10  C   UNL     1      34.966 -16.106 -23.082  0.00  0.00    +0.007 C 
ATOM     11  C   UNL     1      35.018 -16.890 -24.212  0.00  0.00    +0.035 C 
ENDBRANCH   1   8
BRANCH   2  12
ATOM     12  C   UNL     1      33.906 -22.596 -18.558  0.00  0.00    -0.059 C 
BRANCH  12  13
ATOM     13  N   UNL     1      32.526 -22.589 -18.081  0.00  0.00    +0.383 N 
ATOM     14  H   UNL     1      31.895 -22.450 -18.869  0.00  0.00    -0.089 HD
ATOM     15  H   UNL     1      32.402 -21.833 -17.407  0.00  0.00    -0.089 HD
ATOM     16  H   UNL     1      32.318 -23.482 -17.631  0.00  0.00    -0.089 HD
ENDBRANCH  12  13
ENDBRANCH   2  12
TORSDOF 3
ENDMDL
MODEL 4
REMARK VINA RESULT:      -7.3      1.580      1.903
REMARK  Name = 2776332
REMARK  3 active torsions:
REMARK  status: ('A' for Active; 'I' for Inactive)
REMARK    1  A    between atoms: C_1  and  C_8
REMARK    2  A    between atoms: C_2  and  C_12
REMARK    3  A    between atoms: C_12  and  N_13
REMARK                            x       y       z     vdW  Elec       q    Type
REMARK                         _______ _______ _______ _____ _____    ______ ____
ROOT
ATOM      1  C   UNL     1      34.896 -18.265 -21.368  0.00  0.00    +0.006 C 
ATOM      2  C   UNL     1      35.185 -20.732 -20.099  0.00  0.00    -0.044 C 
ATOM      3  C   UNL     1      36.169 -18.742 -21.054  0.00  0.00    +0.000 C 
ATOM      4  C   UNL     1      33.769 -19.021 -21.049  0.00  0.00    +0.000 C 
ATOM      5  C   UNL     1      36.313 -19.976 -20.420  0.00  0.00    -0.006 C 
ATOM      6  C   UNL     1      33.913 -20.255 -20.415  0.00  0.00    -0.006 C 
ENDROOT
BRANCH   1   8
ATOM      7  S   UNL     1      34.415 -15.602 -21.075  0.00  0.00    -0.086 S 
ATOM      8  C   UNL     1      34.746 -16.988 -22.024  0.00  0.00    +0.029 C 
ATOM      9  C   UNL     1      34.833 -16.686 -23.366  0.00  0.00    +0.007 C 
ATOM     10  C   UNL     1      34.623 -15.299 -23.617  0.00  0.00    +0.007 C 
ATOM     11  C   UNL     1      34.384 -14.593 -22.459  0.00  0.00    +0.035 C 
ENDBRANCH   1   8
BRANCH   2  12
ATOM     12  C   UNL     1      35.340 -22.052 -19.423  0.00  0.00    -0.059 C 
BRANCH  12  13
ATOM     13  N   UNL     1      36.199 -21.897 -18.252  0.00  0.00    +0.383 N 
ATOM     14  H   UNL     1      35.627 -21.901 -17.408  0.00  0.00    -0.089 HD
ATOM     15  H   UNL     1      36.706 -21.015 -18.316  0.00  0.00    -0.089 HD
ATOM     16  H   UNL     1      36.865 -22.670 -18.215  0.00  0.00    -0.089 HD
ENDBRANCH  12  13
ENDBRANCH   2  12
TORSDOF 3
ENDMDL
MODEL 5
REMARK VINA RESULT:      -7.2      3.176      5.750
REMARK  Name = 2776332
REMARK  3 active torsions:
REMARK  status: ('A' for Active; 'I' for Inactive)
REMARK    1  A    between atoms: C_1  and  C_8
REMARK    2  A    between atoms: C_2  and  C_12
REMARK    3  A    between atoms: C_12  and  N_13
REMARK                            x       y       z     vdW  Elec       q    Type
REMARK                         _______ _______ _______ _____ _____    ______ ____
ROOT
ATOM      1  C   UNL     1      34.580 -19.080 -21.557  0.00  0.00    +0.006 C 
ATOM      2  C   UNL     1      34.774 -16.968 -23.369  0.00  0.00    -0.044 C 
ATOM      3  C   UNL     1      34.528 -17.762 -21.100  0.00  0.00    +0.000 C 
ATOM      4  C   UNL     1      34.728 -19.341 -22.918  0.00  0.00    +0.000 C 
ATOM      5  C   UNL     1      34.625 -16.707 -22.007  0.00  0.00    -0.006 C 
ATOM      6  C   UNL     1      34.825 -18.285 -23.825  0.00  0.00    -0.006 C 
ENDROOT
BRANCH   1   8
ATOM      7  S   UNL     1      35.916 -20.908 -20.048  0.00  0.00    -0.086 S 
ATOM      8  C   UNL     1      34.480 -20.172 -20.620  0.00  0.00    +0.029 C 
ATOM      9  C   UNL     1      33.353 -20.752 -20.078  0.00  0.00    +0.007 C 
ATOM     10  C   UNL     1      33.673 -21.814 -19.184  0.00  0.00    +0.007 C 
ATOM     11  C   UNL     1      35.032 -22.006 -19.075  0.00  0.00    +0.035 C 
ENDBRANCH   1   8
BRANCH   2  12
ATOM     12  C   UNL     1      34.876 -15.839 -24.338  0.00  0.00    -0.059 C 
BRANCH  12  13
ATOM     13  N   UNL     1      33.953 -16.068 -25.446  0.00  0.00    +0.383 N 
ATOM     14  H   UNL     1      33.806 -15.195 -25.952  0.00  0.00    -0.089 HD
ATOM     15  H   UNL     1      33.061 -16.405 -25.083  0.00  0.00    -0.089 HD
ATOM     16  H   UNL     1      34.347 -16.766 -26.078  0.00  0.00    -0.089 HD
ENDBRANCH  12  13
ENDBRANCH   2  12
TORSDOF 3
ENDMDL
MODEL 6
REMARK VINA RESULT:      -7.2      3.166      5.715
REMARK  Name = 2776332
REMARK  3 active torsions:
REMARK  status: ('A' for Active; 'I' for Inactive)
REMARK    1  A    between atoms: C_1  and  C_8
REMARK    2  A    between atoms: C_2  and  C_12
REMARK    3  A    between atoms: C_12  and  N_13
REMARK                            x       y       z     vdW  Elec       q    Type
REMARK                         _______ _______ _______ _____ _____    ______ ____
ROOT
ATOM      1  C   UNL     1      34.567 -19.074 -21.511  0.00  0.00    +0.006 C 
ATOM      2  C   UNL     1      34.799 -16.926 -23.275  0.00  0.00    -0.044 C 
ATOM      3  C   UNL     1      34.720 -19.308 -22.878  0.00  0.00    +0.000 C 
ATOM      4  C   UNL     1      34.530 -17.768 -21.026  0.00  0.00    +0.000 C 
ATOM      5  C   UNL     1      34.837 -18.233 -23.760  0.00  0.00    -0.006 C 
ATOM      6  C   UNL     1      34.647 -16.693 -21.908  0.00  0.00    -0.006 C 
ENDROOT
BRANCH   1   8
ATOM      7  S   UNL     1      35.870 -20.960 -20.044  0.00  0.00    -0.086 S 
ATOM      8  C   UNL     1      34.447 -20.186 -20.599  0.00  0.00    +0.029 C 
ATOM      9  C   UNL     1      33.310 -20.758 -20.071  0.00  0.00    +0.007 C 
ATOM     10  C   UNL     1      33.611 -21.845 -19.201  0.00  0.00    +0.007 C 
ATOM     11  C   UNL     1      34.967 -22.064 -19.096  0.00  0.00    +0.035 C 
ENDBRANCH   1   8
BRANCH   2  12
ATOM     12  C   UNL     1      34.924 -15.777 -24.218  0.00  0.00    -0.059 C 
BRANCH  12  13
ATOM     13  N   UNL     1      34.274 -14.604 -23.640  0.00  0.00    +0.383 N 
ATOM     14  H   UNL     1      34.980 -13.983 -23.248  0.00  0.00    -0.089 HD
ATOM     15  H   UNL     1      33.633 -14.898 -22.903  0.00  0.00    -0.089 HD
ATOM     16  H   UNL     1      33.753 -14.112 -24.367  0.00  0.00    -0.089 HD
ENDBRANCH  12  13
ENDBRANCH   2  12
TORSDOF 3
ENDMDL
MODEL 7
REMARK VINA RESULT:      -7.1      3.179      5.714
REMARK  Name = 2776332
REMARK  3 active torsions:
REMARK  status: ('A' for Active; 'I' for Inactive)
REMARK    1  A    between atoms: C_1  and  C_8
REMARK    2  A    between atoms: C_2  and  C_12
REMARK    3  A    between atoms: C_12  and  N_13
REMARK                            x       y       z     vdW  Elec       q    Type
REMARK                         _______ _______ _______ _____ _____    ______ ____
ROOT
ATOM      1  C   UNL     1      34.949 -19.088 -21.647  0.00  0.00    +0.006 C 
ATOM      2  C   UNL     1      34.697 -17.044 -23.529  0.00  0.00    -0.044 C 
ATOM      3  C   UNL     1      34.899 -17.758 -21.229  0.00  0.00    +0.000 C 
ATOM      4  C   UNL     1      34.872 -19.396 -23.005  0.00  0.00    +0.000 C 
ATOM      5  C   UNL     1      34.772 -16.736 -22.171  0.00  0.00    -0.006 C 
ATOM      6  C   UNL     1      34.746 -18.374 -23.946  0.00  0.00    -0.006 C 
ENDROOT
BRANCH   1   8
ATOM      7  S   UNL     1      33.662 -20.887 -20.061  0.00  0.00    -0.086 S 
ATOM      8  C   UNL     1      35.079 -20.145 -20.674  0.00  0.00    +0.029 C 
ATOM      9  C   UNL     1      36.222 -20.685 -20.126  0.00  0.00    +0.007 C 
ATOM     10  C   UNL     1      35.931 -21.720 -19.191  0.00  0.00    +0.007 C 
ATOM     11  C   UNL     1      34.577 -21.933 -19.059  0.00  0.00    +0.035 C 
ENDBRANCH   1   8
BRANCH   2  12
ATOM     12  C   UNL     1      34.560 -15.952 -24.535  0.00  0.00    -0.059 C 
BRANCH  12  13
ATOM     13  N   UNL     1      33.560 -14.993 -24.075  0.00  0.00    +0.383 N 
ATOM     14  H   UNL     1      33.257 -14.416 -24.859  0.00  0.00    -0.089 HD
ATOM     15  H   UNL     1      33.965 -14.398 -23.352  0.00  0.00    -0.089 HD
ATOM     16  H   UNL     1      32.758 -15.495 -23.692  0.00  0.00    -0.089 HD
ENDBRANCH  12  13
ENDBRANCH   2  12
TORSDOF 3
ENDMDL
MODEL 8
REMARK VINA RESULT:      -6.9      3.404      5.943
REMARK  Name = 2776332
REMARK  3 active torsions:
REMARK  status: ('A' for Active; 'I' for Inactive)
REMARK    1  A    between atoms: C_1  and  C_8
REMARK    2  A    between atoms: C_2  and  C_12
REMARK    3  A    between atoms: C_12  and  N_13
REMARK                            x       y       z     vdW  Elec       q    Type
REMARK                         _______ _______ _______ _____ _____    ______ ____
ROOT
ATOM      1  C   UNL     1      35.093 -17.833 -21.630  0.00  0.00    +0.006 C 
ATOM      2  C   UNL     1      34.493 -15.421 -22.897  0.00  0.00    -0.044 C 
ATOM      3  C   UNL     1      35.078 -17.762 -23.024  0.00  0.00    +0.000 C 
ATOM      4  C   UNL     1      34.810 -16.699 -20.871  0.00  0.00    +0.000 C 
ATOM      5  C   UNL     1      34.778 -16.556 -23.657  0.00  0.00    -0.006 C 
ATOM      6  C   UNL     1      34.510 -15.492 -21.504  0.00  0.00    -0.006 C 
ENDROOT
BRANCH   1   8
ATOM      7  S   UNL     1      34.124 -20.143 -20.567  0.00  0.00    -0.086 S 
ATOM      8  C   UNL     1      35.404 -19.081 -20.976  0.00  0.00    +0.029 C 
ATOM      9  C   UNL     1      36.632 -19.586 -20.605  0.00  0.00    +0.007 C 
ATOM     10  C   UNL     1      36.519 -20.860 -19.977  0.00  0.00    +0.007 C 
ATOM     11  C   UNL     1      35.211 -21.282 -19.891  0.00  0.00    +0.035 C 
ENDBRANCH   1   8
BRANCH   2  12
ATOM     12  C   UNL     1      34.174 -14.131 -23.573  0.00  0.00    -0.059 C 
BRANCH  12  13
ATOM     13  N   UNL     1      33.288 -14.385 -24.706  0.00  0.00    +0.383 N 
ATOM     14  H   UNL     1      32.391 -13.930 -24.544  0.00  0.00    -0.089 HD
ATOM     15  H   UNL     1      33.147 -15.390 -24.809  0.00  0.00    -0.089 HD
ATOM     16  H   UNL     1      33.710 -14.013 -25.558  0.00  0.00    -0.089 HD
ENDBRANCH  12  13
ENDBRANCH   2  12
TORSDOF 3
ENDMDL
MODEL 9
REMARK VINA RESULT:      -6.8      2.658      4.077
REMARK  Name = 2776332
REMARK  3 active torsions:
REMARK  status: ('A' for Active; 'I' for Inactive)
REMARK    1  A    between atoms: C_1  and  C_8
REMARK    2  A    between atoms: C_2  and  C_12
REMARK    3  A    between atoms: C_12  and  N_13
REMARK                            x       y       z     vdW  Elec       q    Type
REMARK                         _______ _______ _______ _____ _____    ______ ____
ROOT
ATOM      1  C   UNL     1      34.328 -16.702 -23.506  0.00  0.00    +0.006 C 
ATOM      2  C   UNL     1      35.121 -18.813 -21.864  0.00  0.00    -0.044 C 
ATOM      3  C   UNL     1      34.469 -16.502 -22.132  0.00  0.00    +0.000 C 
ATOM      4  C   UNL     1      34.583 -17.957 -24.058  0.00  0.00    +0.000 C 
ATOM      5  C   UNL     1      34.867 -17.557 -21.312  0.00  0.00    -0.006 C 
ATOM      6  C   UNL     1      34.980 -19.012 -23.237  0.00  0.00    -0.006 C 
ENDROOT
BRANCH   1   8
ATOM      7  S   UNL     1      33.867 -14.027 -23.704  0.00  0.00    -0.086 S 
ATOM      8  C   UNL     1      33.917 -15.610 -24.355  0.00  0.00    +0.029 C 
ATOM      9  C   UNL     1      33.537 -15.635 -25.680  0.00  0.00    +0.007 C 
ATOM     10  C   UNL     1      33.201 -14.338 -26.165  0.00  0.00    +0.007 C 
ATOM     11  C   UNL     1      33.336 -13.371 -25.194  0.00  0.00    +0.035 C 
ENDBRANCH   1   8
BRANCH   2  12
ATOM     12  C   UNL     1      35.547 -19.941 -20.986  0.00  0.00    -0.059 C 
BRANCH  12  13
ATOM     13  N   UNL     1      36.713 -19.534 -20.207  0.00  0.00    +0.383 N 
ATOM     14  H   UNL     1      36.406 -19.051 -19.364  0.00  0.00    -0.089 HD
ATOM     15  H   UNL     1      37.295 -18.909 -20.765  0.00  0.00    -0.089 HD
ATOM     16  H   UNL     1      37.254 -20.360 -19.948  0.00  0.00    -0.089 HD
ENDBRANCH  12  13
ENDBRANCH   2  12
TORSDOF 3
ENDMDL
