MODEL 1
REMARK VINA RESULT:     -10.0      0.000      0.000
REMARK  Name = 11955855
REMARK  4 active torsions:
REMARK  status: ('A' for Active; 'I' for Inactive)
REMARK    1  A    between atoms: C_2  and  O_22
REMARK    2  A    between atoms: C_3  and  N_10
REMARK    3  A    between atoms: O_22  and  C_23
REMARK    4  A    between atoms: C_23  and  C_26
REMARK                            x       y       z     vdW  Elec       q    Type
REMARK                         _______ _______ _______ _____ _____    ______ ____
ROOT
ATOM      1 BR   UNL     1      39.242 -25.525 -14.615  0.00  0.00    -0.049 Br
ATOM      2  C   UNL     1      34.812 -24.159 -13.998  0.00  0.00    +0.152 C 
ATOM      3  C   UNL     1      35.448 -23.947 -15.215  0.00  0.00    +0.086 C 
ATOM      4  C   UNL     1      35.479 -24.780 -12.948  0.00  0.00    +0.034 C 
ATOM      5  C   UNL     1      36.801 -25.193 -13.118  0.00  0.00    -0.013 C 
ATOM      6  C   UNL     1      36.769 -24.359 -15.386  0.00  0.00    +0.024 C 
ATOM      7  C   UNL     1      37.446 -24.982 -14.337  0.00  0.00    +0.032 C 
ATOM      8  C   UNL     1      37.485 -25.858 -11.968  0.00  0.00    +0.032 C 
ENDROOT
BRANCH   3  10
ATOM      9  O   UNL     1      36.508 -22.216 -17.407  0.00  0.00    -0.252 OA
ATOM     10  N   UNL     1      34.782 -23.324 -16.274  0.00  0.00    -0.266 N 
ATOM     11  N   UNL     1      34.298 -22.086 -18.161  0.00  0.00    -0.256 N 
ATOM     12  N   UNL     1      35.617 -20.799 -19.654  0.00  0.00    -0.252 NA
ATOM     13  N   UNL     1      33.293 -20.199 -21.104  0.00  0.00    -0.269 NA
ATOM     14  C   UNL     1      35.321 -22.508 -17.297  0.00  0.00    +0.309 C 
ATOM     15  C   UNL     1      34.410 -21.262 -19.306  0.00  0.00    +0.132 C 
ATOM     16  C   UNL     1      33.267 -20.977 -20.004  0.00  0.00    +0.185 C 
ATOM     17  C   UNL     1      34.502 -19.726 -21.466  0.00  0.00    +0.057 C 
ATOM     18  C   UNL     1      35.644 -20.020 -20.754  0.00  0.00    +0.167 C 
ATOM     19  C   UNL     1      34.567 -18.861 -22.676  0.00  0.00    +0.049 C 
ATOM     20  H   UNL     1      33.810 -23.471 -16.313  0.00  0.00    +0.157 HD
ATOM     21  H   UNL     1      33.391 -22.403 -17.944  0.00  0.00    +0.158 HD
ENDBRANCH   3  10
BRANCH   2  22
ATOM     22  O   UNL     1      33.512 -23.762 -13.810  0.00  0.00    -0.472 OA
BRANCH  22  23
ATOM     23  C   UNL     1      32.514 -24.765 -13.893  0.00  0.00    +0.232 C 
BRANCH  23  26
ATOM     24  O   UNL     1      31.549 -23.579 -15.728  0.00  0.00    -0.357 OA
ATOM     25  N   UNL     1      28.941 -24.582 -15.193  0.00  0.00    +0.387 N 
ATOM     26  C   UNL     1      31.241 -24.141 -14.447  0.00  0.00    +0.138 C 
ATOM     27  C   UNL     1      30.132 -25.187 -14.593  0.00  0.00    -0.048 C 
ATOM     28  C   UNL     1      29.278 -23.972 -16.480  0.00  0.00    -0.049 C 
ATOM     29  C   UNL     1      30.400 -22.956 -16.304  0.00  0.00    +0.119 C 
ATOM     30  H   UNL     1      28.574 -23.867 -14.566  0.00  0.00    -0.084 HD
ATOM     31  H   UNL     1      28.239 -25.307 -15.342  0.00  0.00    -0.084 HD
ENDBRANCH  23  26
ENDBRANCH  22  23
ENDBRANCH   2  22
TORSDOF 4
ENDMDL
MODEL 2
REMARK VINA RESULT:      -9.3      1.823      5.895
REMARK  Name = 11955855
REMARK  4 active torsions:
REMARK  status: ('A' for Active; 'I' for Inactive)
REMARK    1  A    between atoms: C_2  and  O_22
REMARK    2  A    between atoms: C_3  and  N_10
REMARK    3  A    between atoms: O_22  and  C_23
REMARK    4  A    between atoms: C_23  and  C_26
REMARK                            x       y       z     vdW  Elec       q    Type
REMARK                         _______ _______ _______ _____ _____    ______ ____
ROOT
ATOM      1 BR   UNL     1      37.172 -26.591 -13.501  0.00  0.00    -0.049 Br
ATOM      2  C   UNL     1      36.328 -22.897 -16.242  0.00  0.00    +0.152 C 
ATOM      3  C   UNL     1      35.307 -23.787 -15.931  0.00  0.00    +0.086 C 
ATOM      4  C   UNL     1      37.613 -23.090 -15.746  0.00  0.00    +0.034 C 
ATOM      5  C   UNL     1      37.879 -24.187 -14.926  0.00  0.00    -0.013 C 
ATOM      6  C   UNL     1      35.572 -24.884 -15.112  0.00  0.00    +0.024 C 
ATOM      7  C   UNL     1      36.858 -25.084 -14.610  0.00  0.00    +0.032 C 
ATOM      8  C   UNL     1      39.270 -24.360 -14.409  0.00  0.00    +0.032 C 
ENDROOT
BRANCH   3  10
ATOM      9  O   UNL     1      32.773 -23.118 -14.498  0.00  0.00    -0.252 OA
ATOM     10  N   UNL     1      34.015 -23.598 -16.427  0.00  0.00    -0.266 N 
ATOM     11  N   UNL     1      31.751 -23.182 -16.601  0.00  0.00    -0.256 N 
ATOM     12  N   UNL     1      30.060 -22.657 -15.023  0.00  0.00    -0.252 NA
ATOM     13  N   UNL     1      28.205 -22.562 -17.124  0.00  0.00    -0.269 NA
ATOM     14  C   UNL     1      32.834 -23.281 -15.713  0.00  0.00    +0.309 C 
ATOM     15  C   UNL     1      30.401 -22.883 -16.297  0.00  0.00    +0.132 C 
ATOM     16  C   UNL     1      29.507 -22.840 -17.333  0.00  0.00    +0.185 C 
ATOM     17  C   UNL     1      27.846 -22.333 -15.845  0.00  0.00    +0.057 C 
ATOM     18  C   UNL     1      28.757 -22.381 -14.813  0.00  0.00    +0.167 C 
ATOM     19  C   UNL     1      26.415 -22.026 -15.577  0.00  0.00    +0.049 C 
ATOM     20  H   UNL     1      33.910 -23.700 -17.400  0.00  0.00    +0.157 HD
ATOM     21  H   UNL     1      31.955 -23.340 -17.551  0.00  0.00    +0.158 HD
ENDBRANCH   3  10
BRANCH   2  22
ATOM     22  O   UNL     1      36.088 -21.811 -17.045  0.00  0.00    -0.472 OA
BRANCH  22  23
ATOM     23  C   UNL     1      36.739 -21.784 -18.304  0.00  0.00    +0.232 C 
BRANCH  23  26
ATOM     24  O   UNL     1      34.406 -21.546 -18.757  0.00  0.00    -0.357 OA
ATOM     25  N   UNL     1      34.873 -20.139 -21.185  0.00  0.00    +0.387 N 
ATOM     26  C   UNL     1      35.688 -21.608 -19.392  0.00  0.00    +0.138 C 
ATOM     27  C   UNL     1      35.933 -20.325 -20.192  0.00  0.00    -0.048 C 
ATOM     28  C   UNL     1      33.564 -20.122 -20.529  0.00  0.00    -0.049 C 
ATOM     29  C   UNL     1      33.363 -21.399 -19.722  0.00  0.00    +0.119 C 
ATOM     30  H   UNL     1      34.903 -20.903 -21.859  0.00  0.00    -0.084 HD
ATOM     31  H   UNL     1      35.017 -19.249 -21.662  0.00  0.00    -0.084 HD
ENDBRANCH  23  26
ENDBRANCH  22  23
ENDBRANCH   2  22
TORSDOF 4
ENDMDL
MODEL 3
REMARK VINA RESULT:      -9.2      2.841      5.584
REMARK  Name = 11955855
REMARK  4 active torsions:
REMARK  status: ('A' for Active; 'I' for Inactive)
REMARK    1  A    between atoms: C_2  and  O_22
REMARK    2  A    between atoms: C_3  and  N_10
REMARK    3  A    between atoms: O_22  and  C_23
REMARK    4  A    between atoms: C_23  and  C_26
REMARK                            x       y       z     vdW  Elec       q    Type
REMARK                         _______ _______ _______ _____ _____    ______ ____
ROOT
ATOM      1 BR   UNL     1      29.985 -23.532 -16.184  0.00  0.00    -0.049 Br
ATOM      2  C   UNL     1      34.661 -23.513 -16.089  0.00  0.00    +0.152 C 
ATOM      3  C   UNL     1      33.976 -22.809 -17.073  0.00  0.00    +0.086 C 
ATOM      4  C   UNL     1      33.969 -24.231 -15.120  0.00  0.00    +0.034 C 
ATOM      5  C   UNL     1      32.574 -24.245 -15.135  0.00  0.00    -0.013 C 
ATOM      6  C   UNL     1      32.582 -22.824 -17.090  0.00  0.00    +0.024 C 
ATOM      7  C   UNL     1      31.881 -23.542 -16.121  0.00  0.00    +0.032 C 
ATOM      8  C   UNL     1      31.865 -25.026 -14.077  0.00  0.00    +0.032 C 
ENDROOT
BRANCH   3  10
ATOM      9  O   UNL     1      32.943 -21.185 -19.356  0.00  0.00    -0.252 OA
ATOM     10  N   UNL     1      34.666 -22.086 -18.049  0.00  0.00    -0.266 N 
ATOM     11  N   UNL     1      35.186 -20.760 -19.865  0.00  0.00    -0.256 N 
ATOM     12  N   UNL     1      33.879 -19.622 -21.485  0.00  0.00    -0.252 NA
ATOM     13  N   UNL     1      36.249 -18.705 -22.672  0.00  0.00    -0.269 NA
ATOM     14  C   UNL     1      34.139 -21.325 -19.120  0.00  0.00    +0.309 C 
ATOM     15  C   UNL     1      35.091 -19.934 -21.011  0.00  0.00    +0.132 C 
ATOM     16  C   UNL     1      36.257 -19.494 -21.580  0.00  0.00    +0.185 C 
ATOM     17  C   UNL     1      35.035 -18.383 -23.161  0.00  0.00    +0.057 C 
ATOM     18  C   UNL     1      33.871 -18.834 -22.579  0.00  0.00    +0.167 C 
ATOM     19  C   UNL     1      34.988 -17.514 -24.369  0.00  0.00    +0.049 C 
ATOM     20  H   UNL     1      35.648 -22.108 -17.984  0.00  0.00    +0.157 HD
ATOM     21  H   UNL     1      36.097 -20.962 -19.553  0.00  0.00    +0.158 HD
ENDBRANCH   3  10
BRANCH   2  22
ATOM     22  O   UNL     1      36.032 -23.511 -16.054  0.00  0.00    -0.472 OA
BRANCH  22  23
ATOM     23  C   UNL     1      36.644 -23.521 -14.776  0.00  0.00    +0.232 C 
BRANCH  23  26
ATOM     24  O   UNL     1      38.922 -24.081 -15.222  0.00  0.00    -0.357 OA
ATOM     25  N   UNL     1      38.934 -26.180 -13.302  0.00  0.00    +0.387 N 
ATOM     26  C   UNL     1      37.688 -24.629 -14.744  0.00  0.00    +0.138 C 
ATOM     27  C   UNL     1      37.877 -25.168 -13.323  0.00  0.00    -0.048 C 
ATOM     28  C   UNL     1      40.178 -25.623 -13.835  0.00  0.00    -0.049 C 
ATOM     29  C   UNL     1      39.950 -25.073 -15.238  0.00  0.00    +0.119 C 
ATOM     30  H   UNL     1      38.650 -26.977 -13.872  0.00  0.00    -0.084 HD
ATOM     31  H   UNL     1      39.090 -26.480 -12.339  0.00  0.00    -0.084 HD
ENDBRANCH  23  26
ENDBRANCH  22  23
ENDBRANCH   2  22
TORSDOF 4
ENDMDL
MODEL 4
REMARK VINA RESULT:      -9.2      1.648      2.085
REMARK  Name = 11955855
REMARK  4 active torsions:
REMARK  status: ('A' for Active; 'I' for Inactive)
REMARK    1  A    between atoms: C_2  and  O_22
REMARK    2  A    between atoms: C_3  and  N_10
REMARK    3  A    between atoms: O_22  and  C_23
REMARK    4  A    between atoms: C_23  and  C_26
REMARK                            x       y       z     vdW  Elec       q    Type
REMARK                         _______ _______ _______ _____ _____    ______ ____
ROOT
ATOM      1 BR   UNL     1      39.976 -25.510 -14.446  0.00  0.00    -0.049 Br
ATOM      2  C   UNL     1      35.995 -23.199 -15.274  0.00  0.00    +0.152 C 
ATOM      3  C   UNL     1      37.151 -22.879 -15.977  0.00  0.00    +0.086 C 
ATOM      4  C   UNL     1      36.003 -24.208 -14.318  0.00  0.00    +0.034 C 
ATOM      5  C   UNL     1      37.184 -24.906 -14.060  0.00  0.00    -0.013 C 
ATOM      6  C   UNL     1      38.331 -23.576 -15.720  0.00  0.00    +0.024 C 
ATOM      7  C   UNL     1      38.347 -24.590 -14.761  0.00  0.00    +0.032 C 
ATOM      8  C   UNL     1      37.153 -25.985 -13.027  0.00  0.00    +0.032 C 
ENDROOT
BRANCH   3  10
ATOM      9  O   UNL     1      35.570 -22.624 -18.499  0.00  0.00    -0.252 OA
ATOM     10  N   UNL     1      37.148 -21.867 -16.940  0.00  0.00    -0.266 N 
ATOM     11  N   UNL     1      36.689 -20.594 -18.810  0.00  0.00    -0.256 N 
ATOM     12  N   UNL     1      35.227 -20.871 -20.657  0.00  0.00    -0.252 NA
ATOM     13  N   UNL     1      36.136 -18.420 -21.673  0.00  0.00    -0.269 NA
ATOM     14  C   UNL     1      36.382 -21.781 -18.127  0.00  0.00    +0.309 C 
ATOM     15  C   UNL     1      36.149 -20.128 -20.032  0.00  0.00    +0.132 C 
ATOM     16  C   UNL     1      36.603 -18.930 -20.516  0.00  0.00    +0.185 C 
ATOM     17  C   UNL     1      35.208 -19.158 -22.314  0.00  0.00    +0.057 C 
ATOM     18  C   UNL     1      34.761 -20.362 -21.815  0.00  0.00    +0.167 C 
ATOM     19  C   UNL     1      34.672 -18.625 -23.597  0.00  0.00    +0.049 C 
ATOM     20  H   UNL     1      37.760 -21.115 -16.772  0.00  0.00    +0.157 HD
ATOM     21  H   UNL     1      37.364 -20.014 -18.387  0.00  0.00    +0.158 HD
ENDBRANCH   3  10
BRANCH   2  22
ATOM     22  O   UNL     1      34.823 -22.526 -15.513  0.00  0.00    -0.472 OA
BRANCH  22  23
ATOM     23  C   UNL     1      33.746 -23.277 -16.046  0.00  0.00    +0.232 C 
BRANCH  23  26
ATOM     24  O   UNL     1      31.395 -22.961 -15.774  0.00  0.00    -0.357 OA
ATOM     25  N   UNL     1      31.301 -24.585 -13.440  0.00  0.00    +0.387 N 
ATOM     26  C   UNL     1      32.596 -23.255 -15.050  0.00  0.00    +0.138 C 
ATOM     27  C   UNL     1      32.455 -24.605 -14.340  0.00  0.00    -0.048 C 
ATOM     28  C   UNL     1      30.087 -24.239 -14.182  0.00  0.00    -0.049 C 
ATOM     29  C   UNL     1      30.269 -22.905 -14.896  0.00  0.00    +0.119 C 
ATOM     30  H   UNL     1      31.456 -23.895 -12.706  0.00  0.00    -0.084 HD
ATOM     31  H   UNL     1      31.185 -25.511 -13.027  0.00  0.00    -0.084 HD
ENDBRANCH  23  26
ENDBRANCH  22  23
ENDBRANCH   2  22
TORSDOF 4
ENDMDL
MODEL 5
REMARK VINA RESULT:      -8.9      7.465     12.077
REMARK  Name = 11955855
REMARK  4 active torsions:
REMARK  status: ('A' for Active; 'I' for Inactive)
REMARK    1  A    between atoms: C_2  and  O_22
REMARK    2  A    between atoms: C_3  and  N_10
REMARK    3  A    between atoms: O_22  and  C_23
REMARK    4  A    between atoms: C_23  and  C_26
REMARK                            x       y       z     vdW  Elec       q    Type
REMARK                         _______ _______ _______ _____ _____    ______ ____
ROOT
ATOM      1 BR   UNL     1      31.478 -10.386 -18.738  0.00  0.00    -0.049 Br
ATOM      2  C   UNL     1      32.306 -12.731 -22.699  0.00  0.00    +0.152 C 
ATOM      3  C   UNL     1      32.213 -13.408 -21.489  0.00  0.00    +0.086 C 
ATOM      4  C   UNL     1      32.155 -11.350 -22.752  0.00  0.00    +0.034 C 
ATOM      5  C   UNL     1      31.907 -10.637 -21.577  0.00  0.00    -0.013 C 
ATOM      6  C   UNL     1      31.966 -12.697 -20.316  0.00  0.00    +0.024 C 
ATOM      7  C   UNL     1      31.813 -11.311 -20.360  0.00  0.00    +0.032 C 
ATOM      8  C   UNL     1      31.747  -9.155 -21.674  0.00  0.00    +0.032 C 
ENDROOT
BRANCH   3  10
ATOM      9  O   UNL     1      34.635 -15.061 -20.921  0.00  0.00    -0.252 OA
ATOM     10  N   UNL     1      32.363 -14.796 -21.431  0.00  0.00    -0.266 N 
ATOM     11  N   UNL     1      33.242 -16.918 -21.199  0.00  0.00    -0.256 N 
ATOM     12  N   UNL     1      35.408 -17.745 -20.702  0.00  0.00    -0.252 NA
ATOM     13  N   UNL     1      34.395 -20.354 -20.885  0.00  0.00    -0.269 NA
ATOM     14  C   UNL     1      33.533 -15.546 -21.159  0.00  0.00    +0.309 C 
ATOM     15  C   UNL     1      34.125 -18.003 -20.984  0.00  0.00    +0.132 C 
ATOM     16  C   UNL     1      33.616 -19.271 -21.076  0.00  0.00    +0.185 C 
ATOM     17  C   UNL     1      35.690 -20.110 -20.601  0.00  0.00    +0.057 C 
ATOM     18  C   UNL     1      36.188 -18.828 -20.512  0.00  0.00    +0.167 C 
ATOM     19  C   UNL     1      36.580 -21.283 -20.385  0.00  0.00    +0.049 C 
ATOM     20  H   UNL     1      31.550 -15.323 -21.604  0.00  0.00    +0.157 HD
ATOM     21  H   UNL     1      32.308 -17.156 -21.403  0.00  0.00    +0.158 HD
ENDBRANCH   3  10
BRANCH   2  22
ATOM     22  O   UNL     1      32.548 -13.412 -23.865  0.00  0.00    -0.472 OA
BRANCH  22  23
ATOM     23  C   UNL     1      33.825 -13.246 -24.456  0.00  0.00    +0.232 C 
BRANCH  23  26
ATOM     24  O   UNL     1      34.863 -15.282 -23.764  0.00  0.00    -0.357 OA
ATOM     25  N   UNL     1      33.696 -16.768 -25.891  0.00  0.00    +0.387 N 
ATOM     26  C   UNL     1      34.333 -14.607 -24.910  0.00  0.00    +0.138 C 
ATOM     27  C   UNL     1      33.204 -15.439 -25.526  0.00  0.00    -0.048 C 
ATOM     28  C   UNL     1      34.277 -17.431 -24.722  0.00  0.00    -0.049 C 
ATOM     29  C   UNL     1      35.378 -16.567 -24.119  0.00  0.00    +0.119 C 
ATOM     30  H   UNL     1      34.407 -16.678 -26.615  0.00  0.00    -0.084 HD
ATOM     31  H   UNL     1      32.917 -17.328 -26.237  0.00  0.00    -0.084 HD
ENDBRANCH  23  26
ENDBRANCH  22  23
ENDBRANCH   2  22
TORSDOF 4
ENDMDL
MODEL 6
REMARK VINA RESULT:      -8.7      3.000      7.425
REMARK  Name = 11955855
REMARK  4 active torsions:
REMARK  status: ('A' for Active; 'I' for Inactive)
REMARK    1  A    between atoms: C_2  and  O_22
REMARK    2  A    between atoms: C_3  and  N_10
REMARK    3  A    between atoms: O_22  and  C_23
REMARK    4  A    between atoms: C_23  and  C_26
REMARK                            x       y       z     vdW  Elec       q    Type
REMARK                         _______ _______ _______ _____ _____    ______ ____
ROOT
ATOM      1 BR   UNL     1      28.768 -25.046 -14.209  0.00  0.00    -0.049 Br
ATOM      2  C   UNL     1      32.187 -22.904 -16.574  0.00  0.00    +0.152 C 
ATOM      3  C   UNL     1      32.454 -23.512 -15.353  0.00  0.00    +0.086 C 
ATOM      4  C   UNL     1      30.905 -22.923 -17.111  0.00  0.00    +0.034 C 
ATOM      5  C   UNL     1      29.875 -23.559 -16.416  0.00  0.00    -0.013 C 
ATOM      6  C   UNL     1      31.425 -24.147 -14.658  0.00  0.00    +0.024 C 
ATOM      7  C   UNL     1      30.136 -24.170 -15.190  0.00  0.00    +0.032 C 
ATOM      8  C   UNL     1      28.511 -23.561 -17.026  0.00  0.00    +0.032 C 
ENDROOT
BRANCH   3  10
ATOM      9  O   UNL     1      34.753 -25.366 -15.793  0.00  0.00    -0.252 OA
ATOM     10  N   UNL     1      33.741 -23.496 -14.809  0.00  0.00    -0.266 N 
ATOM     11  N   UNL     1      35.930 -24.014 -14.291  0.00  0.00    -0.256 N 
ATOM     12  N   UNL     1      37.407 -25.739 -14.974  0.00  0.00    -0.252 NA
ATOM     13  N   UNL     1      39.381 -24.628 -13.321  0.00  0.00    -0.269 NA
ATOM     14  C   UNL     1      34.808 -24.397 -15.042  0.00  0.00    +0.309 C 
ATOM     15  C   UNL     1      37.197 -24.641 -14.237  0.00  0.00    +0.132 C 
ATOM     16  C   UNL     1      38.151 -24.088 -13.425  0.00  0.00    +0.185 C 
ATOM     17  C   UNL     1      39.607 -25.734 -14.057  0.00  0.00    +0.057 C 
ATOM     18  C   UNL     1      38.637 -26.281 -14.869  0.00  0.00    +0.167 C 
ATOM     19  C   UNL     1      40.955 -26.359 -13.965  0.00  0.00    +0.049 C 
ATOM     20  H   UNL     1      33.931 -22.764 -14.180  0.00  0.00    +0.157 HD
ATOM     21  H   UNL     1      35.822 -23.210 -13.732  0.00  0.00    +0.158 HD
ENDBRANCH   3  10
BRANCH   2  22
ATOM     22  O   UNL     1      33.186 -22.274 -17.274  0.00  0.00    -0.472 OA
BRANCH  22  23
ATOM     23  C   UNL     1      33.801 -23.008 -18.319  0.00  0.00    +0.232 C 
BRANCH  23  26
ATOM     24  O   UNL     1      32.859 -21.151 -19.487  0.00  0.00    -0.357 OA
ATOM     25  N   UNL     1      35.341 -20.469 -20.698  0.00  0.00    +0.387 N 
ATOM     26  C   UNL     1      33.923 -22.108 -19.540  0.00  0.00    +0.138 C 
ATOM     27  C   UNL     1      35.272 -21.382 -19.556  0.00  0.00    -0.048 C 
ATOM     28  C   UNL     1      34.223 -19.525 -20.659  0.00  0.00    -0.049 C 
ATOM     29  C   UNL     1      32.899 -20.278 -20.617  0.00  0.00    +0.119 C 
ATOM     30  H   UNL     1      35.299 -21.006 -21.564  0.00  0.00    -0.084 HD
ATOM     31  H   UNL     1      36.217 -19.948 -20.656  0.00  0.00    -0.084 HD
ENDBRANCH  23  26
ENDBRANCH  22  23
ENDBRANCH   2  22
TORSDOF 4
ENDMDL
MODEL 7
REMARK VINA RESULT:      -8.1      2.848      7.536
REMARK  Name = 11955855
REMARK  4 active torsions:
REMARK  status: ('A' for Active; 'I' for Inactive)
REMARK    1  A    between atoms: C_2  and  O_22
REMARK    2  A    between atoms: C_3  and  N_10
REMARK    3  A    between atoms: O_22  and  C_23
REMARK    4  A    between atoms: C_23  and  C_26
REMARK                            x       y       z     vdW  Elec       q    Type
REMARK                         _______ _______ _______ _____ _____    ______ ____
ROOT
ATOM      1 BR   UNL     1      33.828 -19.259 -22.033  0.00  0.00    -0.049 Br
ATOM      2  C   UNL     1      36.520 -21.387 -18.856  0.00  0.00    +0.152 C 
ATOM      3  C   UNL     1      35.145 -21.595 -18.863  0.00  0.00    +0.086 C 
ATOM      4  C   UNL     1      37.114 -20.547 -19.791  0.00  0.00    +0.034 C 
ATOM      5  C   UNL     1      36.323 -19.906 -20.745  0.00  0.00    -0.013 C 
ATOM      6  C   UNL     1      34.354 -20.954 -19.815  0.00  0.00    +0.024 C 
ATOM      7  C   UNL     1      34.944 -20.109 -20.757  0.00  0.00    +0.032 C 
ATOM      8  C   UNL     1      36.999 -19.013 -21.734  0.00  0.00    +0.032 C 
ENDROOT
BRANCH   3  10
ATOM      9  O   UNL     1      32.255 -22.056 -18.266  0.00  0.00    -0.252 OA
ATOM     10  N   UNL     1      34.542 -22.438 -17.926  0.00  0.00    -0.266 N 
ATOM     11  N   UNL     1      32.993 -23.571 -16.643  0.00  0.00    -0.256 N 
ATOM     12  N   UNL     1      30.623 -23.571 -16.565  0.00  0.00    -0.252 NA
ATOM     13  N   UNL     1      30.745 -25.468 -14.504  0.00  0.00    -0.269 NA
ATOM     14  C   UNL     1      33.163 -22.630 -17.671  0.00  0.00    +0.309 C 
ATOM     15  C   UNL     1      31.780 -24.044 -16.089  0.00  0.00    +0.132 C 
ATOM     16  C   UNL     1      31.856 -24.970 -15.082  0.00  0.00    +0.185 C 
ATOM     17  C   UNL     1      29.572 -25.000 -14.974  0.00  0.00    +0.057 C 
ATOM     18  C   UNL     1      29.511 -24.067 -15.986  0.00  0.00    +0.167 C 
ATOM     19  C   UNL     1      28.324 -25.527 -14.355  0.00  0.00    +0.049 C 
ATOM     20  H   UNL     1      35.156 -22.968 -17.369  0.00  0.00    +0.157 HD
ATOM     21  H   UNL     1      33.819 -23.947 -16.261  0.00  0.00    +0.158 HD
ENDBRANCH   3  10
BRANCH   2  22
ATOM     22  O   UNL     1      37.316 -22.009 -17.927  0.00  0.00    -0.472 OA
BRANCH  22  23
ATOM     23  C   UNL     1      37.285 -21.497 -16.606  0.00  0.00    +0.232 C 
BRANCH  23  26
ATOM     24  O   UNL     1      36.130 -23.459 -15.886  0.00  0.00    -0.357 OA
ATOM     25  N   UNL     1      38.508 -24.677 -14.910  0.00  0.00    +0.387 N 
ATOM     26  C   UNL     1      37.294 -22.665 -15.631  0.00  0.00    +0.138 C 
ATOM     27  C   UNL     1      38.552 -23.521 -15.807  0.00  0.00    -0.048 C 
ATOM     28  C   UNL     1      37.291 -25.455 -15.149  0.00  0.00    -0.049 C 
ATOM     29  C   UNL     1      36.061 -24.570 -14.991  0.00  0.00    +0.119 C 
ATOM     30  H   UNL     1      38.519 -24.355 -13.943  0.00  0.00    -0.084 HD
ATOM     31  H   UNL     1      39.321 -25.268 -15.088  0.00  0.00    -0.084 HD
ENDBRANCH  23  26
ENDBRANCH  22  23
ENDBRANCH   2  22
TORSDOF 4
ENDMDL
MODEL 8
REMARK VINA RESULT:      -8.1     11.864     15.859
REMARK  Name = 11955855
REMARK  4 active torsions:
REMARK  status: ('A' for Active; 'I' for Inactive)
REMARK    1  A    between atoms: C_2  and  O_22
REMARK    2  A    between atoms: C_3  and  N_10
REMARK    3  A    between atoms: O_22  and  C_23
REMARK    4  A    between atoms: C_23  and  C_26
REMARK                            x       y       z     vdW  Elec       q    Type
REMARK                         _______ _______ _______ _____ _____    ______ ____
ROOT
ATOM      1 BR   UNL     1      35.313  -5.531 -26.627  0.00  0.00    -0.049 Br
ATOM      2  C   UNL     1      32.360  -7.587 -23.638  0.00  0.00    +0.152 C 
ATOM      3  C   UNL     1      33.499  -8.256 -24.072  0.00  0.00    +0.086 C 
ATOM      4  C   UNL     1      32.082  -6.300 -24.084  0.00  0.00    +0.034 C 
ATOM      5  C   UNL     1      32.954  -5.674 -24.976  0.00  0.00    -0.013 C 
ATOM      6  C   UNL     1      34.371  -7.632 -24.963  0.00  0.00    +0.024 C 
ATOM      7  C   UNL     1      34.098  -6.340 -25.415  0.00  0.00    +0.032 C 
ATOM      8  C   UNL     1      32.623  -4.289 -25.430  0.00  0.00    +0.032 C 
ENDROOT
BRANCH   3  10
ATOM      9  O   UNL     1      33.193 -10.882 -25.461  0.00  0.00    -0.252 OA
ATOM     10  N   UNL     1      33.784  -9.549 -23.627  0.00  0.00    -0.266 N 
ATOM     11  N   UNL     1      34.033 -11.841 -23.500  0.00  0.00    -0.256 N 
ATOM     12  N   UNL     1      33.605 -13.617 -25.012  0.00  0.00    -0.252 NA
ATOM     13  N   UNL     1      34.512 -15.420 -23.064  0.00  0.00    -0.269 NA
ATOM     14  C   UNL     1      33.625 -10.775 -24.317  0.00  0.00    +0.309 C 
ATOM     15  C   UNL     1      34.035 -13.222 -23.808  0.00  0.00    +0.132 C 
ATOM     16  C   UNL     1      34.480 -14.091 -22.847  0.00  0.00    +0.185 C 
ATOM     17  C   UNL     1      34.082 -15.833 -24.273  0.00  0.00    +0.057 C 
ATOM     18  C   UNL     1      33.636 -14.947 -25.230  0.00  0.00    +0.167 C 
ATOM     19  C   UNL     1      34.101 -17.296 -24.548  0.00  0.00    +0.049 C 
ATOM     20  H   UNL     1      34.141  -9.618 -22.713  0.00  0.00    +0.157 HD
ATOM     21  H   UNL     1      34.357 -11.597 -22.602  0.00  0.00    +0.158 HD
ENDBRANCH   3  10
BRANCH   2  22
ATOM     22  O   UNL     1      31.491  -8.183 -22.761  0.00  0.00    -0.472 OA
BRANCH  22  23
ATOM     23  C   UNL     1      31.900  -8.271 -21.407  0.00  0.00    +0.232 C 
BRANCH  23  26
ATOM     24  O   UNL     1      31.797 -10.637 -21.705  0.00  0.00    -0.357 OA
ATOM     25  N   UNL     1      31.515 -11.122 -18.916  0.00  0.00    +0.387 N 
ATOM     26  C   UNL     1      31.390  -9.582 -20.827  0.00  0.00    +0.138 C 
ATOM     27  C   UNL     1      31.961  -9.824 -19.426  0.00  0.00    -0.048 C 
ATOM     28  C   UNL     1      31.897 -12.188 -19.844  0.00  0.00    -0.049 C 
ATOM     29  C   UNL     1      31.336 -11.904 -21.232  0.00  0.00    +0.119 C 
ATOM     30  H   UNL     1      30.501 -11.113 -18.811  0.00  0.00    -0.084 HD
ATOM     31  H   UNL     1      31.957 -11.294 -18.013  0.00  0.00    -0.084 HD
ENDBRANCH  23  26
ENDBRANCH  22  23
ENDBRANCH   2  22
TORSDOF 4
ENDMDL
MODEL 9
REMARK VINA RESULT:      -7.9      2.451      6.896
REMARK  Name = 11955855
REMARK  4 active torsions:
REMARK  status: ('A' for Active; 'I' for Inactive)
REMARK    1  A    between atoms: C_2  and  O_22
REMARK    2  A    between atoms: C_3  and  N_10
REMARK    3  A    between atoms: O_22  and  C_23
REMARK    4  A    between atoms: C_23  and  C_26
REMARK                            x       y       z     vdW  Elec       q    Type
REMARK                         _______ _______ _______ _____ _____    ______ ____
ROOT
ATOM      1 BR   UNL     1      36.894 -19.140 -21.099  0.00  0.00    -0.049 Br
ATOM      2  C   UNL     1      33.480 -21.752 -19.255  0.00  0.00    +0.152 C 
ATOM      3  C   UNL     1      34.801 -21.956 -18.876  0.00  0.00    +0.086 C 
ATOM      4  C   UNL     1      33.152 -20.771 -20.185  0.00  0.00    +0.034 C 
ATOM      5  C   UNL     1      34.160 -19.984 -20.743  0.00  0.00    -0.013 C 
ATOM      6  C   UNL     1      35.809 -21.171 -19.434  0.00  0.00    +0.024 C 
ATOM      7  C   UNL     1      35.489 -20.185 -20.367  0.00  0.00    +0.032 C 
ATOM      8  C   UNL     1      33.770 -18.939 -21.736  0.00  0.00    +0.032 C 
ENDROOT
BRANCH   3  10
ATOM      9  O   UNL     1      36.155 -21.714 -16.225  0.00  0.00    -0.252 OA
ATOM     10  N   UNL     1      35.136 -22.940 -17.942  0.00  0.00    -0.266 N 
ATOM     11  N   UNL     1      35.925 -24.036 -16.070  0.00  0.00    -0.256 N 
ATOM     12  N   UNL     1      37.009 -23.312 -14.088  0.00  0.00    -0.252 NA
ATOM     13  N   UNL     1      37.088 -25.979 -13.224  0.00  0.00    -0.269 NA
ATOM     14  C   UNL     1      35.781 -22.785 -16.692  0.00  0.00    +0.309 C 
ATOM     15  C   UNL     1      36.513 -24.321 -14.815  0.00  0.00    +0.132 C 
ATOM     16  C   UNL     1      36.545 -25.628 -14.406  0.00  0.00    +0.185 C 
ATOM     17  C   UNL     1      37.592 -24.973 -12.482  0.00  0.00    +0.057 C 
ATOM     18  C   UNL     1      37.553 -23.663 -12.906  0.00  0.00    +0.167 C 
ATOM     19  C   UNL     1      38.202 -25.325 -11.170  0.00  0.00    +0.049 C 
ATOM     20  H   UNL     1      34.893 -23.862 -18.186  0.00  0.00    +0.157 HD
ATOM     21  H   UNL     1      35.574 -24.809 -16.569  0.00  0.00    +0.158 HD
ENDBRANCH   3  10
BRANCH   2  22
ATOM     22  O   UNL     1      32.473 -22.514 -18.718  0.00  0.00    -0.472 OA
BRANCH  22  23
ATOM     23  C   UNL     1      31.995 -22.139 -17.437  0.00  0.00    +0.232 C 
BRANCH  23  26
ATOM     24  O   UNL     1      32.798 -23.207 -15.459  0.00  0.00    -0.357 OA
ATOM     25  N   UNL     1      30.431 -24.757 -15.161  0.00  0.00    +0.387 N 
ATOM     26  C   UNL     1      31.907 -23.383 -16.566  0.00  0.00    +0.138 C 
ATOM     27  C   UNL     1      30.480 -23.597 -16.053  0.00  0.00    -0.048 C 
ATOM     28  C   UNL     1      31.379 -24.586 -14.058  0.00  0.00    -0.049 C 
ATOM     29  C   UNL     1      32.783 -24.350 -14.602  0.00  0.00    +0.119 C 
ATOM     30  H   UNL     1      30.673 -25.597 -15.686  0.00  0.00    -0.084 HD
ATOM     31  H   UNL     1      29.490 -24.845 -14.779  0.00  0.00    -0.084 HD
ENDBRANCH  23  26
ENDBRANCH  22  23
ENDBRANCH   2  22
TORSDOF 4
ENDMDL
