MODEL 1
REMARK VINA RESULT:      -6.9      0.000      0.000
REMARK  Name = 101369
REMARK  4 active torsions:
REMARK  status: ('A' for Active; 'I' for Inactive)
REMARK    1  A    between atoms: C_1  and  O_9
REMARK    2  A    between atoms: O_9  and  C_10
REMARK    3  A    between atoms: C_10  and  C_12
REMARK    4  A    between atoms: C_12  and  O_13
REMARK                            x       y       z     vdW  Elec       q    Type
REMARK                         _______ _______ _______ _____ _____    ______ ____
ROOT
ATOM      1  C   UNL     1      34.961 -19.611 -21.039  0.00  0.00    +0.131 C 
ATOM      2  C   UNL     1      33.905 -20.317 -20.465  0.00  0.00    +0.012 C 
ATOM      3  C   UNL     1      36.277 -19.915 -20.686  0.00  0.00    +0.012 C 
ATOM      4  C   UNL     1      34.163 -21.325 -19.536  0.00  0.00    -0.001 C 
ATOM      5  C   UNL     1      36.535 -20.924 -19.758  0.00  0.00    -0.001 C 
ATOM      6  C   UNL     1      35.478 -21.629 -19.183  0.00  0.00    -0.000 C 
ATOM      7  C   UNL     1      32.491 -20.006 -20.828  0.00  0.00    +0.034 C 
ATOM      8  C   UNL     1      37.422 -19.171 -21.292  0.00  0.00    +0.034 C 
ENDROOT
BRANCH   1   9
ATOM      9  O   UNL     1      34.708 -18.626 -21.947  0.00  0.00    -0.464 OA
BRANCH   9  10
ATOM     10  C   UNL     1      34.668 -19.005 -23.320  0.00  0.00    +0.314 C 
BRANCH  10  12
ATOM     11  O   UNL     1      34.665 -17.680 -25.357  0.00  0.00    -0.246 OA
ATOM     12  C   UNL     1      34.984 -17.817 -24.186  0.00  0.00    +0.359 C 
BRANCH  12  13
ATOM     13  O   UNL     1      35.685 -16.895 -23.479  0.00  0.00    -0.478 OA
ATOM     14  H   UNL     1      35.917 -16.079 -23.875  0.00  0.00    +0.295 HD
ENDBRANCH  12  13
ENDBRANCH  10  12
ENDBRANCH   9  10
ENDBRANCH   1   9
TORSDOF 4
ENDMDL
MODEL 2
REMARK VINA RESULT:      -6.8      0.149      2.387
REMARK  Name = 101369
REMARK  4 active torsions:
REMARK  status: ('A' for Active; 'I' for Inactive)
REMARK    1  A    between atoms: C_1  and  O_9
REMARK    2  A    between atoms: O_9  and  C_10
REMARK    3  A    between atoms: C_10  and  C_12
REMARK    4  A    between atoms: C_12  and  O_13
REMARK                            x       y       z     vdW  Elec       q    Type
REMARK                         _______ _______ _______ _____ _____    ______ ____
ROOT
ATOM      1  C   UNL     1      34.964 -19.520 -21.070  0.00  0.00    +0.131 C 
ATOM      2  C   UNL     1      36.272 -19.860 -20.729  0.00  0.00    +0.012 C 
ATOM      3  C   UNL     1      33.893 -20.220 -20.514  0.00  0.00    +0.012 C 
ATOM      4  C   UNL     1      36.510 -20.902 -19.832  0.00  0.00    -0.001 C 
ATOM      5  C   UNL     1      34.131 -21.261 -19.616  0.00  0.00    -0.001 C 
ATOM      6  C   UNL     1      35.440 -21.602 -19.275  0.00  0.00    -0.000 C 
ATOM      7  C   UNL     1      37.431 -19.124 -21.315  0.00  0.00    +0.034 C 
ATOM      8  C   UNL     1      32.484 -19.870 -20.866  0.00  0.00    +0.034 C 
ENDROOT
BRANCH   1   9
ATOM      9  O   UNL     1      34.732 -18.502 -21.948  0.00  0.00    -0.464 OA
BRANCH   9  10
ATOM     10  C   UNL     1      34.728 -18.832 -23.334  0.00  0.00    +0.314 C 
BRANCH  10  12
ATOM     11  O   UNL     1      34.717 -17.417 -25.310  0.00  0.00    -0.246 OA
ATOM     12  C   UNL     1      35.047 -17.609 -24.149  0.00  0.00    +0.359 C 
BRANCH  12  13
ATOM     13  O   UNL     1      35.763 -16.726 -23.408  0.00  0.00    -0.478 OA
ATOM     14  H   UNL     1      36.170 -15.990 -23.822  0.00  0.00    +0.295 HD
ENDBRANCH  12  13
ENDBRANCH  10  12
ENDBRANCH   9  10
ENDBRANCH   1   9
TORSDOF 4
ENDMDL
MODEL 3
REMARK VINA RESULT:      -6.8      3.736      5.800
REMARK  Name = 101369
REMARK  4 active torsions:
REMARK  status: ('A' for Active; 'I' for Inactive)
REMARK    1  A    between atoms: C_1  and  O_9
REMARK    2  A    between atoms: O_9  and  C_10
REMARK    3  A    between atoms: C_10  and  C_12
REMARK    4  A    between atoms: C_12  and  O_13
REMARK                            x       y       z     vdW  Elec       q    Type
REMARK                         _______ _______ _______ _____ _____    ______ ____
ROOT
ATOM      1  C   UNL     1      35.276 -21.583 -19.144  0.00  0.00    +0.131 C 
ATOM      2  C   UNL     1      33.961 -21.970 -18.887  0.00  0.00    +0.012 C 
ATOM      3  C   UNL     1      35.538 -20.568 -20.066  0.00  0.00    +0.012 C 
ATOM      4  C   UNL     1      32.907 -21.342 -19.552  0.00  0.00    -0.001 C 
ATOM      5  C   UNL     1      34.484 -19.940 -20.730  0.00  0.00    -0.001 C 
ATOM      6  C   UNL     1      33.168 -20.327 -20.472  0.00  0.00    -0.000 C 
ATOM      7  C   UNL     1      33.661 -23.055 -17.907  0.00  0.00    +0.034 C 
ATOM      8  C   UNL     1      36.939 -20.140 -20.354  0.00  0.00    +0.034 C 
ENDROOT
BRANCH   1   9
ATOM      9  O   UNL     1      36.305 -22.198 -18.495  0.00  0.00    -0.464 OA
BRANCH   9  10
ATOM     10  C   UNL     1      36.878 -21.505 -17.389  0.00  0.00    +0.314 C 
BRANCH  10  12
ATOM     11  O   UNL     1      36.048 -22.629 -15.401  0.00  0.00    -0.246 OA
ATOM     12  C   UNL     1      36.950 -22.419 -16.197  0.00  0.00    +0.359 C 
BRANCH  12  13
ATOM     13  O   UNL     1      38.177 -22.995 -16.123  0.00  0.00    -0.478 OA
ATOM     14  H   UNL     1      38.255 -23.928 -16.116  0.00  0.00    +0.295 HD
ENDBRANCH  12  13
ENDBRANCH  10  12
ENDBRANCH   9  10
ENDBRANCH   1   9
TORSDOF 4
ENDMDL
MODEL 4
REMARK VINA RESULT:      -6.8      3.749      6.187
REMARK  Name = 101369
REMARK  4 active torsions:
REMARK  status: ('A' for Active; 'I' for Inactive)
REMARK    1  A    between atoms: C_1  and  O_9
REMARK    2  A    between atoms: O_9  and  C_10
REMARK    3  A    between atoms: C_10  and  C_12
REMARK    4  A    between atoms: C_12  and  O_13
REMARK                            x       y       z     vdW  Elec       q    Type
REMARK                         _______ _______ _______ _____ _____    ______ ____
ROOT
ATOM      1  C   UNL     1      35.289 -21.594 -19.128  0.00  0.00    +0.131 C 
ATOM      2  C   UNL     1      35.561 -20.584 -20.050  0.00  0.00    +0.012 C 
ATOM      3  C   UNL     1      33.970 -21.975 -18.880  0.00  0.00    +0.012 C 
ATOM      4  C   UNL     1      34.514 -19.955 -20.725  0.00  0.00    -0.001 C 
ATOM      5  C   UNL     1      32.923 -21.347 -19.555  0.00  0.00    -0.001 C 
ATOM      6  C   UNL     1      33.196 -20.337 -20.478  0.00  0.00    -0.000 C 
ATOM      7  C   UNL     1      36.965 -20.160 -20.328  0.00  0.00    +0.034 C 
ATOM      8  C   UNL     1      33.658 -23.055 -17.896  0.00  0.00    +0.034 C 
ENDROOT
BRANCH   1   9
ATOM      9  O   UNL     1      36.313 -22.207 -18.469  0.00  0.00    -0.464 OA
BRANCH   9  10
ATOM     10  C   UNL     1      36.878 -21.512 -17.360  0.00  0.00    +0.314 C 
BRANCH  10  12
ATOM     11  O   UNL     1      36.052 -22.630 -15.367  0.00  0.00    -0.246 OA
ATOM     12  C   UNL     1      36.951 -22.426 -16.169  0.00  0.00    +0.359 C 
BRANCH  12  13
ATOM     13  O   UNL     1      38.174 -23.010 -16.101  0.00  0.00    -0.478 OA
ATOM     14  H   UNL     1      38.451 -23.424 -15.308  0.00  0.00    +0.295 HD
ENDBRANCH  12  13
ENDBRANCH  10  12
ENDBRANCH   9  10
ENDBRANCH   1   9
TORSDOF 4
ENDMDL
MODEL 5
REMARK VINA RESULT:      -6.7      1.227      2.842
REMARK  Name = 101369
REMARK  4 active torsions:
REMARK  status: ('A' for Active; 'I' for Inactive)
REMARK    1  A    between atoms: C_1  and  O_9
REMARK    2  A    between atoms: O_9  and  C_10
REMARK    3  A    between atoms: C_10  and  C_12
REMARK    4  A    between atoms: C_12  and  O_13
REMARK                            x       y       z     vdW  Elec       q    Type
REMARK                         _______ _______ _______ _____ _____    ______ ____
ROOT
ATOM      1  C   UNL     1      34.947 -19.534 -20.984  0.00  0.00    +0.131 C 
ATOM      2  C   UNL     1      36.253 -19.904 -20.667  0.00  0.00    +0.012 C 
ATOM      3  C   UNL     1      33.871 -20.241 -20.445  0.00  0.00    +0.012 C 
ATOM      4  C   UNL     1      36.485 -20.982 -19.813  0.00  0.00    -0.001 C 
ATOM      5  C   UNL     1      34.103 -21.319 -19.589  0.00  0.00    -0.001 C 
ATOM      6  C   UNL     1      35.411 -21.689 -19.273  0.00  0.00    -0.000 C 
ATOM      7  C   UNL     1      37.417 -19.162 -21.235  0.00  0.00    +0.034 C 
ATOM      8  C   UNL     1      32.465 -19.860 -20.771  0.00  0.00    +0.034 C 
ENDROOT
BRANCH   1   9
ATOM      9  O   UNL     1      34.721 -18.481 -21.820  0.00  0.00    -0.464 OA
BRANCH   9  10
ATOM     10  C   UNL     1      34.656 -17.187 -21.227  0.00  0.00    +0.314 C 
BRANCH  10  12
ATOM     11  O   UNL     1      34.501 -14.998 -22.270  0.00  0.00    -0.246 OA
ATOM     12  C   UNL     1      34.944 -16.136 -22.263  0.00  0.00    +0.359 C 
BRANCH  12  13
ATOM     13  O   UNL     1      35.783 -16.629 -23.209  0.00  0.00    -0.478 OA
ATOM     14  H   UNL     1      36.524 -17.143 -22.955  0.00  0.00    +0.295 HD
ENDBRANCH  12  13
ENDBRANCH  10  12
ENDBRANCH   9  10
ENDBRANCH   1   9
TORSDOF 4
ENDMDL
MODEL 6
REMARK VINA RESULT:      -6.7      1.223      1.536
REMARK  Name = 101369
REMARK  4 active torsions:
REMARK  status: ('A' for Active; 'I' for Inactive)
REMARK    1  A    between atoms: C_1  and  O_9
REMARK    2  A    between atoms: O_9  and  C_10
REMARK    3  A    between atoms: C_10  and  C_12
REMARK    4  A    between atoms: C_12  and  O_13
REMARK                            x       y       z     vdW  Elec       q    Type
REMARK                         _______ _______ _______ _____ _____    ______ ____
ROOT
ATOM      1  C   UNL     1      34.937 -19.542 -20.974  0.00  0.00    +0.131 C 
ATOM      2  C   UNL     1      33.863 -20.248 -20.432  0.00  0.00    +0.012 C 
ATOM      3  C   UNL     1      36.245 -19.917 -20.666  0.00  0.00    +0.012 C 
ATOM      4  C   UNL     1      34.097 -21.329 -19.582  0.00  0.00    -0.001 C 
ATOM      5  C   UNL     1      36.479 -20.999 -19.816  0.00  0.00    -0.001 C 
ATOM      6  C   UNL     1      35.404 -21.706 -19.275  0.00  0.00    -0.000 C 
ATOM      7  C   UNL     1      32.456 -19.860 -20.748  0.00  0.00    +0.034 C 
ATOM      8  C   UNL     1      37.408 -19.175 -21.236  0.00  0.00    +0.034 C 
ENDROOT
BRANCH   1   9
ATOM      9  O   UNL     1      34.708 -18.485 -21.804  0.00  0.00    -0.464 OA
BRANCH   9  10
ATOM     10  C   UNL     1      34.727 -17.186 -21.218  0.00  0.00    +0.314 C 
BRANCH  10  12
ATOM     11  O   UNL     1      34.407 -15.043 -22.318  0.00  0.00    -0.246 OA
ATOM     12  C   UNL     1      34.928 -16.148 -22.287  0.00  0.00    +0.359 C 
BRANCH  12  13
ATOM     13  O   UNL     1      35.785 -16.609 -23.233  0.00  0.00    -0.478 OA
ATOM     14  H   UNL     1      35.461 -16.852 -24.078  0.00  0.00    +0.295 HD
ENDBRANCH  12  13
ENDBRANCH  10  12
ENDBRANCH   9  10
ENDBRANCH   1   9
TORSDOF 4
ENDMDL
MODEL 7
REMARK VINA RESULT:      -6.7      3.115      4.545
REMARK  Name = 101369
REMARK  4 active torsions:
REMARK  status: ('A' for Active; 'I' for Inactive)
REMARK    1  A    between atoms: C_1  and  O_9
REMARK    2  A    between atoms: O_9  and  C_10
REMARK    3  A    between atoms: C_10  and  C_12
REMARK    4  A    between atoms: C_12  and  O_13
REMARK                            x       y       z     vdW  Elec       q    Type
REMARK                         _______ _______ _______ _____ _____    ______ ____
ROOT
ATOM      1  C   UNL     1      34.728 -16.438 -22.971  0.00  0.00    +0.131 C 
ATOM      2  C   UNL     1      34.708 -16.733 -21.609  0.00  0.00    +0.012 C 
ATOM      3  C   UNL     1      34.795 -17.472 -23.907  0.00  0.00    +0.012 C 
ATOM      4  C   UNL     1      34.755 -18.060 -21.181  0.00  0.00    -0.001 C 
ATOM      5  C   UNL     1      34.841 -18.799 -23.479  0.00  0.00    -0.001 C 
ATOM      6  C   UNL     1      34.820 -19.093 -22.115  0.00  0.00    -0.000 C 
ATOM      7  C   UNL     1      34.639 -15.642 -20.592  0.00  0.00    +0.034 C 
ATOM      8  C   UNL     1      34.817 -17.177 -25.371  0.00  0.00    +0.034 C 
ENDROOT
BRANCH   1   9
ATOM      9  O   UNL     1      34.683 -15.141 -23.389  0.00  0.00    -0.464 OA
BRANCH   9  10
ATOM     10  C   UNL     1      33.406 -14.622 -23.751  0.00  0.00    +0.314 C 
BRANCH  10  12
ATOM     11  O   UNL     1      32.456 -12.830 -22.414  0.00  0.00    -0.246 OA
ATOM     12  C   UNL     1      33.266 -13.214 -23.244  0.00  0.00    +0.359 C 
BRANCH  12  13
ATOM     13  O   UNL     1      34.180 -12.408 -23.841  0.00  0.00    -0.478 OA
ATOM     14  H   UNL     1      34.477 -11.634 -23.404  0.00  0.00    +0.295 HD
ENDBRANCH  12  13
ENDBRANCH  10  12
ENDBRANCH   9  10
ENDBRANCH   1   9
TORSDOF 4
ENDMDL
MODEL 8
REMARK VINA RESULT:      -6.7      3.113      4.598
REMARK  Name = 101369
REMARK  4 active torsions:
REMARK  status: ('A' for Active; 'I' for Inactive)
REMARK    1  A    between atoms: C_1  and  O_9
REMARK    2  A    between atoms: O_9  and  C_10
REMARK    3  A    between atoms: C_10  and  C_12
REMARK    4  A    between atoms: C_12  and  O_13
REMARK                            x       y       z     vdW  Elec       q    Type
REMARK                         _______ _______ _______ _____ _____    ______ ____
ROOT
ATOM      1  C   UNL     1      34.736 -16.436 -22.987  0.00  0.00    +0.131 C 
ATOM      2  C   UNL     1      34.803 -17.466 -23.924  0.00  0.00    +0.012 C 
ATOM      3  C   UNL     1      34.716 -16.734 -21.624  0.00  0.00    +0.012 C 
ATOM      4  C   UNL     1      34.848 -18.794 -23.499  0.00  0.00    -0.001 C 
ATOM      5  C   UNL     1      34.762 -18.062 -21.199  0.00  0.00    -0.001 C 
ATOM      6  C   UNL     1      34.829 -19.092 -22.137  0.00  0.00    -0.000 C 
ATOM      7  C   UNL     1      34.824 -17.169 -25.387  0.00  0.00    +0.034 C 
ATOM      8  C   UNL     1      34.646 -15.645 -20.604  0.00  0.00    +0.034 C 
ENDROOT
BRANCH   1   9
ATOM      9  O   UNL     1      34.692 -15.139 -23.403  0.00  0.00    -0.464 OA
BRANCH   9  10
ATOM     10  C   UNL     1      33.413 -14.615 -23.752  0.00  0.00    +0.314 C 
BRANCH  10  12
ATOM     11  O   UNL     1      32.515 -12.789 -22.424  0.00  0.00    -0.246 OA
ATOM     12  C   UNL     1      33.296 -13.195 -23.272  0.00  0.00    +0.359 C 
BRANCH  12  13
ATOM     13  O   UNL     1      34.193 -12.407 -23.917  0.00  0.00    -0.478 OA
ATOM     14  H   UNL     1      34.058 -12.185 -24.817  0.00  0.00    +0.295 HD
ENDBRANCH  12  13
ENDBRANCH  10  12
ENDBRANCH   9  10
ENDBRANCH   1   9
TORSDOF 4
ENDMDL
MODEL 9
REMARK VINA RESULT:      -6.5      7.822      9.636
REMARK  Name = 101369
REMARK  4 active torsions:
REMARK  status: ('A' for Active; 'I' for Inactive)
REMARK    1  A    between atoms: C_1  and  O_9
REMARK    2  A    between atoms: O_9  and  C_10
REMARK    3  A    between atoms: C_10  and  C_12
REMARK    4  A    between atoms: C_12  and  O_13
REMARK                            x       y       z     vdW  Elec       q    Type
REMARK                         _______ _______ _______ _____ _____    ______ ____
ROOT
ATOM      1  C   UNL     1      36.931 -23.873 -14.415  0.00  0.00    +0.131 C 
ATOM      2  C   UNL     1      36.515 -23.097 -15.496  0.00  0.00    +0.012 C 
ATOM      3  C   UNL     1      35.988 -24.409 -13.537  0.00  0.00    +0.012 C 
ATOM      4  C   UNL     1      35.157 -22.855 -15.699  0.00  0.00    -0.001 C 
ATOM      5  C   UNL     1      34.629 -24.169 -13.741  0.00  0.00    -0.001 C 
ATOM      6  C   UNL     1      34.213 -23.392 -14.823  0.00  0.00    -0.000 C 
ATOM      7  C   UNL     1      37.509 -22.513 -16.444  0.00  0.00    +0.034 C 
ATOM      8  C   UNL     1      36.413 -25.244 -12.374  0.00  0.00    +0.034 C 
ENDROOT
BRANCH   1   9
ATOM      9  O   UNL     1      38.259 -24.108 -14.216  0.00  0.00    -0.464 OA
BRANCH   9  10
ATOM     10  C   UNL     1      38.754 -25.388 -14.600  0.00  0.00    +0.314 C 
BRANCH  10  12
ATOM     11  O   UNL     1      41.077 -24.711 -14.379  0.00  0.00    -0.246 OA
ATOM     12  C   UNL     1      40.196 -25.275 -15.010  0.00  0.00    +0.359 C 
BRANCH  12  13
ATOM     13  O   UNL     1      40.396 -25.898 -16.199  0.00  0.00    -0.478 OA
ATOM     14  H   UNL     1      40.077 -25.510 -16.990  0.00  0.00    +0.295 HD
ENDBRANCH  12  13
ENDBRANCH  10  12
ENDBRANCH   9  10
ENDBRANCH   1   9
TORSDOF 4
ENDMDL
