MODEL 1
REMARK VINA RESULT:      -7.8      0.000      0.000
REMARK  Name = 3246941
REMARK  11 active torsions:
REMARK  status: ('A' for Active; 'I' for Inactive)
REMARK    1  A    between atoms: C_2  and  C_3
REMARK    2  A    between atoms: C_2  and  C_12
REMARK    3  A    between atoms: C_3  and  C_4
REMARK    4  A    between atoms: C_4  and  C_5
REMARK    5  A    between atoms: C_5  and  C_6
REMARK    6  A    between atoms: C_6  and  C_7
REMARK    7  A    between atoms: C_7  and  C_8
REMARK    8  A    between atoms: C_8  and  C_9
REMARK    9  A    between atoms: C_9  and  C_10
REMARK   10  A    between atoms: C_12  and  C_15
REMARK   11  A    between atoms: N_14  and  C_19
REMARK                            x       y       z     vdW  Elec       q    Type
REMARK                         _______ _______ _______ _____ _____    ______ ____
ROOT
ATOM      1  O   UNL     1      32.435 -20.560 -19.587  0.00  0.00    -0.296 OA
ATOM      2  C   UNL     1      33.533 -20.523 -20.142  0.00  0.00    +0.160 C 
ENDROOT
BRANCH   2   3
ATOM      3  C   UNL     1      33.890 -19.466 -21.174  0.00  0.00    +0.065 C 
BRANCH   3   4
ATOM      4  C   UNL     1      35.346 -19.012 -21.096  0.00  0.00    +0.008 C 
BRANCH   4   5
ATOM      5  C   UNL     1      35.961 -18.606 -22.442  0.00  0.00    +0.000 C 
BRANCH   5   6
ATOM      6  C   UNL     1      34.959 -18.634 -23.599  0.00  0.00    +0.000 C 
BRANCH   6   7
ATOM      7  C   UNL     1      34.909 -17.286 -24.323  0.00  0.00    +0.000 C 
BRANCH   7   8
ATOM      8  C   UNL     1      35.028 -16.084 -23.382  0.00  0.00    +0.000 C 
BRANCH   8   9
ATOM      9  C   UNL     1      33.723 -15.342 -23.075  0.00  0.00    +0.000 C 
BRANCH   9  10
ATOM     10  C   UNL     1      33.704 -14.691 -21.694  0.00  0.00    +0.000 C 
ATOM     11  C   UNL     1      34.554 -15.472 -20.702  0.00  0.00    +0.000 C 
ENDBRANCH   9  10
ENDBRANCH   8   9
ENDBRANCH   7   8
ENDBRANCH   6   7
ENDBRANCH   5   6
ENDBRANCH   4   5
ENDBRANCH   3   4
ENDBRANCH   2   3
BRANCH   2  12
ATOM     12  C   UNL     1      34.598 -21.547 -19.825  0.00  0.00    +0.149 C 
BRANCH  12  15
ATOM     13  O   UNL     1      33.966 -23.862 -19.627  0.00  0.00    -0.275 OA
ATOM     14  N   UNL     1      33.775 -22.478 -17.770  0.00  0.00    -0.296 N 
ATOM     15  C   UNL     1      34.078 -22.763 -19.091  0.00  0.00    +0.230 C 
ATOM     16  H   UNL     1      33.904 -21.557 -17.447  0.00  0.00    +0.150 HD
BRANCH  14  19
ATOM     17  O   UNL     1      31.759 -23.399 -15.068  0.00  0.00    -0.447 OA
ATOM     18  O   UNL     1      30.999 -22.641 -17.094  0.00  0.00    -0.248 OA
ATOM     19  C   UNL     1      33.282 -23.458 -16.851  0.00  0.00    +0.175 C 
ATOM     20  C   UNL     1      34.040 -23.484 -15.544  0.00  0.00    +0.078 C 
ATOM     21  C   UNL     1      32.985 -23.951 -14.574  0.00  0.00    +0.211 C 
ATOM     22  C   UNL     1      31.893 -23.096 -16.397  0.00  0.00    +0.335 C 
ENDBRANCH  14  19
ENDBRANCH  12  15
ENDBRANCH   2  12
TORSDOF 11
ENDMDL
MODEL 2
REMARK VINA RESULT:      -7.7      3.620      4.502
REMARK  Name = 3246941
REMARK  11 active torsions:
REMARK  status: ('A' for Active; 'I' for Inactive)
REMARK    1  A    between atoms: C_2  and  C_3
REMARK    2  A    between atoms: C_2  and  C_12
REMARK    3  A    between atoms: C_3  and  C_4
REMARK    4  A    between atoms: C_4  and  C_5
REMARK    5  A    between atoms: C_5  and  C_6
REMARK    6  A    between atoms: C_6  and  C_7
REMARK    7  A    between atoms: C_7  and  C_8
REMARK    8  A    between atoms: C_8  and  C_9
REMARK    9  A    between atoms: C_9  and  C_10
REMARK   10  A    between atoms: C_12  and  C_15
REMARK   11  A    between atoms: N_14  and  C_19
REMARK                            x       y       z     vdW  Elec       q    Type
REMARK                         _______ _______ _______ _____ _____    ______ ____
ROOT
ATOM      1  O   UNL     1      35.177 -22.602 -18.217  0.00  0.00    -0.296 OA
ATOM      2  C   UNL     1      36.109 -21.801 -18.274  0.00  0.00    +0.160 C 
ENDROOT
BRANCH   2   3
ATOM      3  C   UNL     1      36.382 -20.953 -19.505  0.00  0.00    +0.065 C 
BRANCH   3   4
ATOM      4  C   UNL     1      35.123 -20.634 -20.310  0.00  0.00    +0.008 C 
BRANCH   4   5
ATOM      5  C   UNL     1      35.172 -19.301 -21.069  0.00  0.00    +0.000 C 
BRANCH   5   6
ATOM      6  C   UNL     1      34.409 -19.330 -22.396  0.00  0.00    +0.000 C 
BRANCH   6   7
ATOM      7  C   UNL     1      35.296 -18.869 -23.556  0.00  0.00    +0.000 C 
BRANCH   7   8
ATOM      8  C   UNL     1      34.504 -18.363 -24.765  0.00  0.00    +0.000 C 
BRANCH   8   9
ATOM      9  C   UNL     1      34.335 -16.844 -24.868  0.00  0.00    +0.000 C 
BRANCH   9  10
ATOM     10  C   UNL     1      35.043 -16.077 -23.752  0.00  0.00    +0.000 C 
ATOM     11  C   UNL     1      34.185 -14.929 -23.239  0.00  0.00    +0.000 C 
ENDBRANCH   9  10
ENDBRANCH   8   9
ENDBRANCH   7   8
ENDBRANCH   6   7
ENDBRANCH   5   6
ENDBRANCH   4   5
ENDBRANCH   3   4
ENDBRANCH   2   3
BRANCH   2  12
ATOM     12  C   UNL     1      37.050 -21.620 -17.104  0.00  0.00    +0.149 C 
BRANCH  12  15
ATOM     13  O   UNL     1      35.772 -22.419 -15.228  0.00  0.00    -0.275 OA
ATOM     14  N   UNL     1      37.731 -23.525 -15.810  0.00  0.00    -0.296 N 
ATOM     15  C   UNL     1      36.763 -22.543 -15.941  0.00  0.00    +0.230 C 
ATOM     16  H   UNL     1      38.486 -23.527 -16.441  0.00  0.00    +0.150 HD
BRANCH  14  19
ATOM     17  O   UNL     1      38.730 -26.622 -14.534  0.00  0.00    -0.447 OA
ATOM     18  O   UNL     1      40.106 -24.819 -14.875  0.00  0.00    -0.248 OA
ATOM     19  C   UNL     1      37.687 -24.538 -14.799  0.00  0.00    +0.175 C 
ATOM     20  C   UNL     1      36.694 -25.636 -15.100  0.00  0.00    +0.078 C 
ATOM     21  C   UNL     1      37.318 -26.825 -14.413  0.00  0.00    +0.211 C 
ATOM     22  C   UNL     1      38.987 -25.295 -14.763  0.00  0.00    +0.335 C 
ENDBRANCH  14  19
ENDBRANCH  12  15
ENDBRANCH   2  12
TORSDOF 11
ENDMDL
MODEL 3
REMARK VINA RESULT:      -7.7      2.964      4.321
REMARK  Name = 3246941
REMARK  11 active torsions:
REMARK  status: ('A' for Active; 'I' for Inactive)
REMARK    1  A    between atoms: C_2  and  C_3
REMARK    2  A    between atoms: C_2  and  C_12
REMARK    3  A    between atoms: C_3  and  C_4
REMARK    4  A    between atoms: C_4  and  C_5
REMARK    5  A    between atoms: C_5  and  C_6
REMARK    6  A    between atoms: C_6  and  C_7
REMARK    7  A    between atoms: C_7  and  C_8
REMARK    8  A    between atoms: C_8  and  C_9
REMARK    9  A    between atoms: C_9  and  C_10
REMARK   10  A    between atoms: C_12  and  C_15
REMARK   11  A    between atoms: N_14  and  C_19
REMARK                            x       y       z     vdW  Elec       q    Type
REMARK                         _______ _______ _______ _____ _____    ______ ____
ROOT
ATOM      1  O   UNL     1      35.127 -22.941 -17.160  0.00  0.00    -0.296 OA
ATOM      2  C   UNL     1      36.019 -22.159 -17.490  0.00  0.00    +0.160 C 
ENDROOT
BRANCH   2   3
ATOM      3  C   UNL     1      36.037 -21.468 -18.843  0.00  0.00    +0.065 C 
BRANCH   3   4
ATOM      4  C   UNL     1      34.895 -21.904 -19.760  0.00  0.00    +0.008 C 
BRANCH   4   5
ATOM      5  C   UNL     1      33.553 -21.218 -19.478  0.00  0.00    +0.000 C 
BRANCH   5   6
ATOM      6  C   UNL     1      33.080 -20.316 -20.622  0.00  0.00    +0.000 C 
BRANCH   6   7
ATOM      7  C   UNL     1      34.154 -19.293 -21.001  0.00  0.00    +0.000 C 
BRANCH   7   8
ATOM      8  C   UNL     1      34.597 -19.387 -22.463  0.00  0.00    +0.000 C 
BRANCH   8   9
ATOM      9  C   UNL     1      35.593 -18.323 -22.932  0.00  0.00    +0.000 C 
BRANCH   9  10
ATOM     10  C   UNL     1      34.977 -17.279 -23.862  0.00  0.00    +0.000 C 
ATOM     11  C   UNL     1      34.440 -17.920 -25.134  0.00  0.00    +0.000 C 
ENDBRANCH   9  10
ENDBRANCH   8   9
ENDBRANCH   7   8
ENDBRANCH   6   7
ENDBRANCH   5   6
ENDBRANCH   4   5
ENDBRANCH   3   4
ENDBRANCH   2   3
BRANCH   2  12
ATOM     12  C   UNL     1      37.164 -21.847 -16.553  0.00  0.00    +0.149 C 
BRANCH  12  15
ATOM     13  O   UNL     1      38.416 -23.561 -15.419  0.00  0.00    -0.275 OA
ATOM     14  N   UNL     1      36.310 -22.988 -14.620  0.00  0.00    -0.296 N 
ATOM     15  C   UNL     1      37.386 -22.897 -15.488  0.00  0.00    +0.230 C 
ATOM     16  H   UNL     1      35.532 -22.403 -14.773  0.00  0.00    +0.150 HD
BRANCH  14  19
ATOM     17  O   UNL     1      34.734 -24.294 -11.787  0.00  0.00    -0.447 OA
ATOM     18  O   UNL     1      33.933 -24.426 -13.932  0.00  0.00    -0.248 OA
ATOM     19  C   UNL     1      36.273 -23.892 -13.511  0.00  0.00    +0.175 C 
ATOM     20  C   UNL     1      36.788 -23.281 -12.228  0.00  0.00    +0.078 C 
ATOM     21  C   UNL     1      36.006 -24.035 -11.182  0.00  0.00    +0.211 C 
ATOM     22  C   UNL     1      34.849 -24.218 -13.151  0.00  0.00    +0.335 C 
ENDBRANCH  14  19
ENDBRANCH  12  15
ENDBRANCH   2  12
TORSDOF 11
ENDMDL
MODEL 4
REMARK VINA RESULT:      -7.6      3.730      6.055
REMARK  Name = 3246941
REMARK  11 active torsions:
REMARK  status: ('A' for Active; 'I' for Inactive)
REMARK    1  A    between atoms: C_2  and  C_3
REMARK    2  A    between atoms: C_2  and  C_12
REMARK    3  A    between atoms: C_3  and  C_4
REMARK    4  A    between atoms: C_4  and  C_5
REMARK    5  A    between atoms: C_5  and  C_6
REMARK    6  A    between atoms: C_6  and  C_7
REMARK    7  A    between atoms: C_7  and  C_8
REMARK    8  A    between atoms: C_8  and  C_9
REMARK    9  A    between atoms: C_9  and  C_10
REMARK   10  A    between atoms: C_12  and  C_15
REMARK   11  A    between atoms: N_14  and  C_19
REMARK                            x       y       z     vdW  Elec       q    Type
REMARK                         _______ _______ _______ _____ _____    ______ ____
ROOT
ATOM      1  O   UNL     1      34.995 -16.024 -19.916  0.00  0.00    -0.296 OA
ATOM      2  C   UNL     1      34.359 -16.104 -20.967  0.00  0.00    +0.160 C 
ENDROOT
BRANCH   2   3
ATOM      3  C   UNL     1      32.937 -15.585 -21.101  0.00  0.00    +0.065 C 
BRANCH   3   4
ATOM      4  C   UNL     1      32.805 -14.095 -20.790  0.00  0.00    +0.008 C 
BRANCH   4   5
ATOM      5  C   UNL     1      32.308 -13.241 -21.964  0.00  0.00    +0.000 C 
BRANCH   5   6
ATOM      6  C   UNL     1      31.539 -11.992 -21.521  0.00  0.00    +0.000 C 
BRANCH   6   7
ATOM      7  C   UNL     1      31.657 -11.775 -20.010  0.00  0.00    +0.000 C 
BRANCH   7   8
ATOM      8  C   UNL     1      31.183 -10.392 -19.555  0.00  0.00    +0.000 C 
BRANCH   8   9
ATOM      9  C   UNL     1      32.215  -9.265 -19.650  0.00  0.00    +0.000 C 
BRANCH   9  10
ATOM     10  C   UNL     1      32.139  -8.478 -20.957  0.00  0.00    +0.000 C 
ATOM     11  C   UNL     1      32.097  -6.979 -20.700  0.00  0.00    +0.000 C 
ENDBRANCH   9  10
ENDBRANCH   8   9
ENDBRANCH   7   8
ENDBRANCH   6   7
ENDBRANCH   5   6
ENDBRANCH   4   5
ENDBRANCH   3   4
ENDBRANCH   2   3
BRANCH   2  12
ATOM     12  C   UNL     1      34.968 -16.738 -22.197  0.00  0.00    +0.149 C 
BRANCH  12  15
ATOM     13  O   UNL     1      34.526 -18.833 -23.298  0.00  0.00    -0.275 OA
ATOM     14  N   UNL     1      35.004 -18.833 -21.023  0.00  0.00    -0.296 N 
ATOM     15  C   UNL     1      34.798 -18.240 -22.258  0.00  0.00    +0.230 C 
ATOM     16  H   UNL     1      35.218 -18.256 -20.254  0.00  0.00    +0.150 HD
BRANCH  14  19
ATOM     17  O   UNL     1      33.886 -21.593 -19.193  0.00  0.00    -0.447 OA
ATOM     18  O   UNL     1      32.543 -20.102 -20.304  0.00  0.00    -0.248 OA
ATOM     19  C   UNL     1      34.922 -20.246 -20.810  0.00  0.00    +0.175 C 
ATOM     20  C   UNL     1      35.965 -20.766 -19.849  0.00  0.00    +0.078 C 
ATOM     21  C   UNL     1      35.270 -21.957 -19.239  0.00  0.00    +0.211 C 
ATOM     22  C   UNL     1      33.642 -20.592 -20.097  0.00  0.00    +0.335 C 
ENDBRANCH  14  19
ENDBRANCH  12  15
ENDBRANCH   2  12
TORSDOF 11
ENDMDL
MODEL 5
REMARK VINA RESULT:      -7.6      1.103      1.697
REMARK  Name = 3246941
REMARK  11 active torsions:
REMARK  status: ('A' for Active; 'I' for Inactive)
REMARK    1  A    between atoms: C_2  and  C_3
REMARK    2  A    between atoms: C_2  and  C_12
REMARK    3  A    between atoms: C_3  and  C_4
REMARK    4  A    between atoms: C_4  and  C_5
REMARK    5  A    between atoms: C_5  and  C_6
REMARK    6  A    between atoms: C_6  and  C_7
REMARK    7  A    between atoms: C_7  and  C_8
REMARK    8  A    between atoms: C_8  and  C_9
REMARK    9  A    between atoms: C_9  and  C_10
REMARK   10  A    between atoms: C_12  and  C_15
REMARK   11  A    between atoms: N_14  and  C_19
REMARK                            x       y       z     vdW  Elec       q    Type
REMARK                         _______ _______ _______ _____ _____    ______ ____
ROOT
ATOM      1  O   UNL     1      32.362 -20.559 -19.508  0.00  0.00    -0.296 OA
ATOM      2  C   UNL     1      33.435 -20.579 -20.109  0.00  0.00    +0.160 C 
ENDROOT
BRANCH   2   3
ATOM      3  C   UNL     1      33.736 -19.648 -21.273  0.00  0.00    +0.065 C 
BRANCH   3   4
ATOM      4  C   UNL     1      35.219 -19.307 -21.407  0.00  0.00    +0.008 C 
BRANCH   4   5
ATOM      5  C   UNL     1      35.531 -17.805 -21.410  0.00  0.00    +0.000 C 
BRANCH   5   6
ATOM      6  C   UNL     1      34.283 -16.927 -21.276  0.00  0.00    +0.000 C 
BRANCH   6   7
ATOM      7  C   UNL     1      34.599 -15.625 -20.535  0.00  0.00    +0.000 C 
BRANCH   7   8
ATOM      8  C   UNL     1      33.487 -14.578 -20.641  0.00  0.00    +0.000 C 
BRANCH   8   9
ATOM      9  C   UNL     1      32.507 -14.757 -21.805  0.00  0.00    +0.000 C 
BRANCH   9  10
ATOM     10  C   UNL     1      32.709 -13.744 -22.931  0.00  0.00    +0.000 C 
ATOM     11  C   UNL     1      33.650 -14.284 -23.998  0.00  0.00    +0.000 C 
ENDBRANCH   9  10
ENDBRANCH   8   9
ENDBRANCH   7   8
ENDBRANCH   6   7
ENDBRANCH   5   6
ENDBRANCH   4   5
ENDBRANCH   3   4
ENDBRANCH   2   3
BRANCH   2  12
ATOM     12  C   UNL     1      34.526 -21.551 -19.720  0.00  0.00    +0.149 C 
BRANCH  12  15
ATOM     13  O   UNL     1      33.974 -23.887 -19.540  0.00  0.00    -0.275 OA
ATOM     14  N   UNL     1      33.646 -22.506 -17.700  0.00  0.00    -0.296 N 
ATOM     15  C   UNL     1      34.019 -22.783 -19.005  0.00  0.00    +0.230 C 
ATOM     16  H   UNL     1      33.726 -21.579 -17.376  0.00  0.00    +0.150 HD
BRANCH  14  19
ATOM     17  O   UNL     1      31.629 -23.469 -15.013  0.00  0.00    -0.447 OA
ATOM     18  O   UNL     1      30.870 -22.668 -17.023  0.00  0.00    -0.248 OA
ATOM     19  C   UNL     1      33.150 -23.501 -16.799  0.00  0.00    +0.175 C 
ATOM     20  C   UNL     1      33.909 -23.556 -15.495  0.00  0.00    +0.078 C 
ATOM     21  C   UNL     1      32.853 -24.037 -14.532  0.00  0.00    +0.211 C 
ATOM     22  C   UNL     1      31.763 -23.141 -16.337  0.00  0.00    +0.335 C 
ENDBRANCH  14  19
ENDBRANCH  12  15
ENDBRANCH   2  12
TORSDOF 11
ENDMDL
MODEL 6
REMARK VINA RESULT:      -7.6      3.247      4.837
REMARK  Name = 3246941
REMARK  11 active torsions:
REMARK  status: ('A' for Active; 'I' for Inactive)
REMARK    1  A    between atoms: C_2  and  C_3
REMARK    2  A    between atoms: C_2  and  C_12
REMARK    3  A    between atoms: C_3  and  C_4
REMARK    4  A    between atoms: C_4  and  C_5
REMARK    5  A    between atoms: C_5  and  C_6
REMARK    6  A    between atoms: C_6  and  C_7
REMARK    7  A    between atoms: C_7  and  C_8
REMARK    8  A    between atoms: C_8  and  C_9
REMARK    9  A    between atoms: C_9  and  C_10
REMARK   10  A    between atoms: C_12  and  C_15
REMARK   11  A    between atoms: N_14  and  C_19
REMARK                            x       y       z     vdW  Elec       q    Type
REMARK                         _______ _______ _______ _____ _____    ______ ____
ROOT
ATOM      1  O   UNL     1      35.500 -22.676 -17.169  0.00  0.00    -0.296 OA
ATOM      2  C   UNL     1      34.339 -23.052 -17.013  0.00  0.00    +0.160 C 
ENDROOT
BRANCH   2   3
ATOM      3  C   UNL     1      33.233 -22.718 -18.000  0.00  0.00    +0.065 C 
BRANCH   3   4
ATOM      4  C   UNL     1      33.754 -22.348 -19.388  0.00  0.00    +0.008 C 
BRANCH   4   5
ATOM      5  C   UNL     1      33.382 -20.934 -19.853  0.00  0.00    +0.000 C 
BRANCH   5   6
ATOM      6  C   UNL     1      34.534 -20.200 -20.545  0.00  0.00    +0.000 C 
BRANCH   6   7
ATOM      7  C   UNL     1      34.012 -19.180 -21.559  0.00  0.00    +0.000 C 
BRANCH   7   8
ATOM      8  C   UNL     1      35.051 -18.777 -22.609  0.00  0.00    +0.000 C 
BRANCH   8   9
ATOM      9  C   UNL     1      34.784 -19.264 -24.037  0.00  0.00    +0.000 C 
BRANCH   9  10
ATOM     10  C   UNL     1      34.462 -18.134 -25.014  0.00  0.00    +0.000 C 
ATOM     11  C   UNL     1      34.806 -16.775 -24.422  0.00  0.00    +0.000 C 
ENDBRANCH   9  10
ENDBRANCH   8   9
ENDBRANCH   7   8
ENDBRANCH   6   7
ENDBRANCH   5   6
ENDBRANCH   4   5
ENDBRANCH   3   4
ENDBRANCH   2   3
BRANCH   2  12
ATOM     12  C   UNL     1      33.944 -23.874 -15.807  0.00  0.00    +0.149 C 
BRANCH  12  15
ATOM     13  O   UNL     1      35.694 -25.527 -15.791  0.00  0.00    -0.275 OA
ATOM     14  N   UNL     1      35.370 -24.212 -13.903  0.00  0.00    -0.296 N 
ATOM     15  C   UNL     1      35.092 -24.643 -15.190  0.00  0.00    +0.230 C 
ATOM     16  H   UNL     1      34.818 -23.492 -13.519  0.00  0.00    +0.150 HD
BRANCH  14  19
ATOM     17  O   UNL     1      37.194 -24.358 -10.925  0.00  0.00    -0.447 OA
ATOM     18  O   UNL     1      34.972 -24.876 -11.148  0.00  0.00    -0.248 OA
ATOM     19  C   UNL     1      36.422 -24.762 -13.103  0.00  0.00    +0.175 C 
ATOM     20  C   UNL     1      37.700 -23.959 -13.167  0.00  0.00    +0.078 C 
ATOM     21  C   UNL     1      38.310 -24.226 -11.814  0.00  0.00    +0.211 C 
ATOM     22  C   UNL     1      36.069 -24.670 -11.643  0.00  0.00    +0.335 C 
ENDBRANCH  14  19
ENDBRANCH  12  15
ENDBRANCH   2  12
TORSDOF 11
ENDMDL
MODEL 7
REMARK VINA RESULT:      -7.5      5.433      8.814
REMARK  Name = 3246941
REMARK  11 active torsions:
REMARK  status: ('A' for Active; 'I' for Inactive)
REMARK    1  A    between atoms: C_2  and  C_3
REMARK    2  A    between atoms: C_2  and  C_12
REMARK    3  A    between atoms: C_3  and  C_4
REMARK    4  A    between atoms: C_4  and  C_5
REMARK    5  A    between atoms: C_5  and  C_6
REMARK    6  A    between atoms: C_6  and  C_7
REMARK    7  A    between atoms: C_7  and  C_8
REMARK    8  A    between atoms: C_8  and  C_9
REMARK    9  A    between atoms: C_9  and  C_10
REMARK   10  A    between atoms: C_12  and  C_15
REMARK   11  A    between atoms: N_14  and  C_19
REMARK                            x       y       z     vdW  Elec       q    Type
REMARK                         _______ _______ _______ _____ _____    ______ ____
ROOT
ATOM      1  O   UNL     1      32.689 -13.572 -22.752  0.00  0.00    -0.296 OA
ATOM      2  C   UNL     1      32.348 -13.296 -21.602  0.00  0.00    +0.160 C 
ENDROOT
BRANCH   2   3
ATOM      3  C   UNL     1      31.614 -12.012 -21.254  0.00  0.00    +0.065 C 
BRANCH   3   4
ATOM      4  C   UNL     1      31.648 -11.681 -19.763  0.00  0.00    +0.008 C 
BRANCH   4   5
ATOM      5  C   UNL     1      31.744 -10.183 -19.444  0.00  0.00    +0.000 C 
BRANCH   5   6
ATOM      6  C   UNL     1      32.028  -9.319 -20.675  0.00  0.00    +0.000 C 
BRANCH   6   7
ATOM      7  C   UNL     1      32.389  -7.885 -20.274  0.00  0.00    +0.000 C 
BRANCH   7   8
ATOM      8  C   UNL     1      32.355  -6.899 -21.444  0.00  0.00    +0.000 C 
BRANCH   8   9
ATOM      9  C   UNL     1      32.718  -7.474 -22.817  0.00  0.00    +0.000 C 
BRANCH   9  10
ATOM     10  C   UNL     1      34.223  -7.539 -23.071  0.00  0.00    +0.000 C 
ATOM     11  C   UNL     1      34.579  -6.971 -24.437  0.00  0.00    +0.000 C 
ENDBRANCH   9  10
ENDBRANCH   8   9
ENDBRANCH   7   8
ENDBRANCH   6   7
ENDBRANCH   5   6
ENDBRANCH   4   5
ENDBRANCH   3   4
ENDBRANCH   2   3
BRANCH   2  12
ATOM     12  C   UNL     1      32.654 -14.234 -20.456  0.00  0.00    +0.149 C 
BRANCH  12  15
ATOM     13  O   UNL     1      35.017 -14.658 -20.282  0.00  0.00    -0.275 OA
ATOM     14  N   UNL     1      33.653 -16.262 -21.267  0.00  0.00    -0.296 N 
ATOM     15  C   UNL     1      33.913 -15.048 -20.652  0.00  0.00    +0.230 C 
ATOM     16  H   UNL     1      32.725 -16.470 -21.521  0.00  0.00    +0.150 HD
BRANCH  14  19
ATOM     17  O   UNL     1      35.423 -18.271 -23.513  0.00  0.00    -0.447 OA
ATOM     18  O   UNL     1      35.412 -15.978 -23.506  0.00  0.00    -0.248 OA
ATOM     19  C   UNL     1      34.669 -17.229 -21.551  0.00  0.00    +0.175 C 
ATOM     20  C   UNL     1      34.147 -18.645 -21.597  0.00  0.00    +0.078 C 
ATOM     21  C   UNL     1      35.091 -19.300 -22.574  0.00  0.00    +0.211 C 
ATOM     22  C   UNL     1      35.188 -17.043 -22.952  0.00  0.00    +0.335 C 
ENDBRANCH  14  19
ENDBRANCH  12  15
ENDBRANCH   2  12
TORSDOF 11
ENDMDL
MODEL 8
REMARK VINA RESULT:      -7.5      1.455      2.358
REMARK  Name = 3246941
REMARK  11 active torsions:
REMARK  status: ('A' for Active; 'I' for Inactive)
REMARK    1  A    between atoms: C_2  and  C_3
REMARK    2  A    between atoms: C_2  and  C_12
REMARK    3  A    between atoms: C_3  and  C_4
REMARK    4  A    between atoms: C_4  and  C_5
REMARK    5  A    between atoms: C_5  and  C_6
REMARK    6  A    between atoms: C_6  and  C_7
REMARK    7  A    between atoms: C_7  and  C_8
REMARK    8  A    between atoms: C_8  and  C_9
REMARK    9  A    between atoms: C_9  and  C_10
REMARK   10  A    between atoms: C_12  and  C_15
REMARK   11  A    between atoms: N_14  and  C_19
REMARK                            x       y       z     vdW  Elec       q    Type
REMARK                         _______ _______ _______ _____ _____    ______ ____
ROOT
ATOM      1  O   UNL     1      33.831 -23.446 -19.479  0.00  0.00    -0.296 OA
ATOM      2  C   UNL     1      34.397 -22.460 -19.008  0.00  0.00    +0.160 C 
ENDROOT
BRANCH   2   3
ATOM      3  C   UNL     1      34.590 -21.176 -19.798  0.00  0.00    +0.065 C 
BRANCH   3   4
ATOM      4  C   UNL     1      33.275 -20.510 -20.198  0.00  0.00    +0.008 C 
BRANCH   4   5
ATOM      5  C   UNL     1      33.431 -19.298 -21.127  0.00  0.00    +0.000 C 
BRANCH   5   6
ATOM      6  C   UNL     1      34.795 -19.236 -21.818  0.00  0.00    +0.000 C 
BRANCH   6   7
ATOM      7  C   UNL     1      35.463 -17.875 -21.607  0.00  0.00    +0.000 C 
BRANCH   7   8
ATOM      8  C   UNL     1      34.486 -16.698 -21.680  0.00  0.00    +0.000 C 
BRANCH   8   9
ATOM      9  C   UNL     1      34.584 -15.675 -20.545  0.00  0.00    +0.000 C 
BRANCH   9  10
ATOM     10  C   UNL     1      33.448 -14.653 -20.547  0.00  0.00    +0.000 C 
ATOM     11  C   UNL     1      32.518 -14.862 -21.734  0.00  0.00    +0.000 C 
ENDBRANCH   9  10
ENDBRANCH   8   9
ENDBRANCH   7   8
ENDBRANCH   6   7
ENDBRANCH   5   6
ENDBRANCH   4   5
ENDBRANCH   3   4
ENDBRANCH   2   3
BRANCH   2  12
ATOM     12  C   UNL     1      34.946 -22.478 -17.599  0.00  0.00    +0.149 C 
BRANCH  12  15
ATOM     13  O   UNL     1      34.683 -24.284 -16.029  0.00  0.00    -0.275 OA
ATOM     14  N   UNL     1      32.835 -22.982 -16.570  0.00  0.00    -0.296 N 
ATOM     15  C   UNL     1      34.165 -23.361 -16.651  0.00  0.00    +0.230 C 
ATOM     16  H   UNL     1      32.529 -22.222 -17.116  0.00  0.00    +0.150 HD
BRANCH  14  19
ATOM     17  O   UNL     1      29.881 -22.977 -14.702  0.00  0.00    -0.447 OA
ATOM     18  O   UNL     1      30.017 -22.688 -16.972  0.00  0.00    -0.248 OA
ATOM     19  C   UNL     1      31.884 -23.641 -15.728  0.00  0.00    +0.175 C 
ATOM     20  C   UNL     1      32.129 -23.409 -14.256  0.00  0.00    +0.078 C 
ATOM     21  C   UNL     1      30.738 -23.505 -13.682  0.00  0.00    +0.211 C 
ATOM     22  C   UNL     1      30.517 -23.038 -15.914  0.00  0.00    +0.335 C 
ENDBRANCH  14  19
ENDBRANCH  12  15
ENDBRANCH   2  12
TORSDOF 11
ENDMDL
MODEL 9
REMARK VINA RESULT:      -7.5      2.301      3.483
REMARK  Name = 3246941
REMARK  11 active torsions:
REMARK  status: ('A' for Active; 'I' for Inactive)
REMARK    1  A    between atoms: C_2  and  C_3
REMARK    2  A    between atoms: C_2  and  C_12
REMARK    3  A    between atoms: C_3  and  C_4
REMARK    4  A    between atoms: C_4  and  C_5
REMARK    5  A    between atoms: C_5  and  C_6
REMARK    6  A    between atoms: C_6  and  C_7
REMARK    7  A    between atoms: C_7  and  C_8
REMARK    8  A    between atoms: C_8  and  C_9
REMARK    9  A    between atoms: C_9  and  C_10
REMARK   10  A    between atoms: C_12  and  C_15
REMARK   11  A    between atoms: N_14  and  C_19
REMARK                            x       y       z     vdW  Elec       q    Type
REMARK                         _______ _______ _______ _____ _____    ______ ____
ROOT
ATOM      1  O   UNL     1      34.118 -23.837 -19.550  0.00  0.00    -0.296 OA
ATOM      2  C   UNL     1      33.807 -22.799 -18.965  0.00  0.00    +0.160 C 
ENDROOT
BRANCH   2   3
ATOM      3  C   UNL     1      34.290 -21.432 -19.419  0.00  0.00    +0.065 C 
BRANCH   3   4
ATOM      4  C   UNL     1      33.242 -20.652 -20.211  0.00  0.00    +0.008 C 
BRANCH   4   5
ATOM      5  C   UNL     1      33.814 -19.551 -21.114  0.00  0.00    +0.000 C 
BRANCH   5   6
ATOM      6  C   UNL     1      35.330 -19.383 -20.979  0.00  0.00    +0.000 C 
BRANCH   6   7
ATOM      7  C   UNL     1      35.894 -18.514 -22.107  0.00  0.00    +0.000 C 
BRANCH   7   8
ATOM      8  C   UNL     1      34.815 -17.794 -22.919  0.00  0.00    +0.000 C 
BRANCH   8   9
ATOM      9  C   UNL     1      34.906 -16.265 -22.949  0.00  0.00    +0.000 C 
BRANCH   9  10
ATOM     10  C   UNL     1      33.912 -15.578 -22.014  0.00  0.00    +0.000 C 
ATOM     11  C   UNL     1      34.496 -15.399 -20.620  0.00  0.00    +0.000 C 
ENDBRANCH   9  10
ENDBRANCH   8   9
ENDBRANCH   7   8
ENDBRANCH   6   7
ENDBRANCH   5   6
ENDBRANCH   4   5
ENDBRANCH   3   4
ENDBRANCH   2   3
BRANCH   2  12
ATOM     12  C   UNL     1      32.919 -22.833 -17.742  0.00  0.00    +0.149 C 
BRANCH  12  15
ATOM     13  O   UNL     1      33.086 -23.630 -15.477  0.00  0.00    -0.275 OA
ATOM     14  N   UNL     1      35.011 -22.915 -16.565  0.00  0.00    -0.296 N 
ATOM     15  C   UNL     1      33.653 -23.170 -16.464  0.00  0.00    +0.230 C 
ATOM     16  H   UNL     1      35.357 -22.544 -17.409  0.00  0.00    +0.150 HD
BRANCH  14  19
ATOM     17  O   UNL     1      38.261 -23.458 -15.400  0.00  0.00    -0.447 OA
ATOM     18  O   UNL     1      37.511 -21.533 -16.394  0.00  0.00    -0.248 OA
ATOM     19  C   UNL     1      35.936 -23.164 -15.502  0.00  0.00    +0.175 C 
ATOM     20  C   UNL     1      36.247 -24.631 -15.315  0.00  0.00    +0.078 C 
ATOM     21  C   UNL     1      37.652 -24.590 -14.769  0.00  0.00    +0.211 C 
ATOM     22  C   UNL     1      37.289 -22.601 -15.845  0.00  0.00    +0.335 C 
ENDBRANCH  14  19
ENDBRANCH  12  15
ENDBRANCH   2  12
TORSDOF 11
ENDMDL
