MODEL 1
REMARK VINA RESULT:      -4.4      0.000      0.000
REMARK  Name = 16402
REMARK  7 active torsions:
REMARK  status: ('A' for Active; 'I' for Inactive)
REMARK    1  A    between atoms: C_1  and  C_2
REMARK    2  A    between atoms: C_1  and  C_9
REMARK    3  A    between atoms: C_2  and  C_3
REMARK    4  A    between atoms: C_3  and  C_4
REMARK    5  A    between atoms: C_4  and  N_5
REMARK    6  A    between atoms: C_9  and  C_10
REMARK    7  A    between atoms: C_10  and  N_11
REMARK                            x       y       z     vdW  Elec       q    Type
REMARK                         _______ _______ _______ _____ _____    ______ ____
ROOT
ATOM      1  C   UNL     1      33.887 -19.624 -21.107  0.00  0.00    -0.002 C 
ENDROOT
BRANCH   1   2
ATOM      2  C   UNL     1      35.376 -19.857 -20.837  0.00  0.00    -0.002 C 
BRANCH   2   3
ATOM      3  C   UNL     1      36.219 -18.675 -21.324  0.00  0.00    -0.024 C 
BRANCH   3   4
ATOM      4  C   UNL     1      35.334 -17.537 -21.828  0.00  0.00    -0.086 C 
BRANCH   4   5
ATOM      5  N   UNL     1      35.732 -17.145 -23.176  0.00  0.00    +0.380 N 
ATOM      6  H   UNL     1      36.160 -16.220 -23.148  0.00  0.00    -0.089 HD
ATOM      7  H   UNL     1      34.910 -17.121 -23.778  0.00  0.00    -0.089 HD
ATOM      8  H   UNL     1      36.402 -17.820 -23.542  0.00  0.00    -0.089 HD
ENDBRANCH   4   5
ENDBRANCH   3   4
ENDBRANCH   2   3
ENDBRANCH   1   2
BRANCH   1   9
ATOM      9  C   UNL     1      32.969 -20.435 -20.187  0.00  0.00    -0.024 C 
BRANCH   9  10
ATOM     10  C   UNL     1      33.695 -21.565 -19.455  0.00  0.00    -0.086 C 
BRANCH  10  11
ATOM     11  N   UNL     1      32.757 -22.303 -18.616  0.00  0.00    +0.380 N 
ATOM     12  H   UNL     1      32.283 -21.657 -17.985  0.00  0.00    -0.089 HD
ATOM     13  H   UNL     1      33.264 -23.000 -18.071  0.00  0.00    -0.089 HD
ATOM     14  H   UNL     1      32.067 -22.769 -19.206  0.00  0.00    -0.089 HD
ENDBRANCH  10  11
ENDBRANCH   9  10
ENDBRANCH   1   9
TORSDOF 7
ENDMDL
MODEL 2
REMARK VINA RESULT:      -4.4      0.600      4.978
REMARK  Name = 16402
REMARK  7 active torsions:
REMARK  status: ('A' for Active; 'I' for Inactive)
REMARK    1  A    between atoms: C_1  and  C_2
REMARK    2  A    between atoms: C_1  and  C_9
REMARK    3  A    between atoms: C_2  and  C_3
REMARK    4  A    between atoms: C_3  and  C_4
REMARK    5  A    between atoms: C_4  and  N_5
REMARK    6  A    between atoms: C_9  and  C_10
REMARK    7  A    between atoms: C_10  and  N_11
REMARK                            x       y       z     vdW  Elec       q    Type
REMARK                         _______ _______ _______ _____ _____    ______ ____
ROOT
ATOM      1  C   UNL     1      35.199 -19.658 -20.971  0.00  0.00    -0.002 C 
ENDROOT
BRANCH   1   2
ATOM      2  C   UNL     1      33.707 -19.326 -21.066  0.00  0.00    -0.002 C 
BRANCH   2   3
ATOM      3  C   UNL     1      32.864 -20.336 -20.283  0.00  0.00    -0.024 C 
BRANCH   3   4
ATOM      4  C   UNL     1      33.747 -21.365 -19.580  0.00  0.00    -0.086 C 
BRANCH   4   5
ATOM      5  N   UNL     1      32.925 -22.334 -18.865  0.00  0.00    +0.380 N 
ATOM      6  H   UNL     1      32.094 -22.547 -19.416  0.00  0.00    -0.089 HD
ATOM      7  H   UNL     1      32.645 -21.944 -17.966  0.00  0.00    -0.089 HD
ATOM      8  H   UNL     1      33.461 -23.188 -18.713  0.00  0.00    -0.089 HD
ENDBRANCH   4   5
ENDBRANCH   3   4
ENDBRANCH   2   3
ENDBRANCH   1   2
BRANCH   1   9
ATOM      9  C   UNL     1      36.096 -18.624 -21.659  0.00  0.00    -0.024 C 
BRANCH   9  10
ATOM     10  C   UNL     1      35.652 -18.293 -23.084  0.00  0.00    -0.086 C 
BRANCH  10  11
ATOM     11  N   UNL     1      35.633 -16.848 -23.282  0.00  0.00    +0.380 N 
ATOM     12  H   UNL     1      34.940 -16.429 -22.661  0.00  0.00    -0.089 HD
ATOM     13  H   UNL     1      35.392 -16.640 -24.250  0.00  0.00    -0.089 HD
ATOM     14  H   UNL     1      36.554 -16.464 -23.071  0.00  0.00    -0.089 HD
ENDBRANCH  10  11
ENDBRANCH   9  10
ENDBRANCH   1   9
TORSDOF 7
ENDMDL
MODEL 3
REMARK VINA RESULT:      -4.4      1.090      4.907
REMARK  Name = 16402
REMARK  7 active torsions:
REMARK  status: ('A' for Active; 'I' for Inactive)
REMARK    1  A    between atoms: C_1  and  C_2
REMARK    2  A    between atoms: C_1  and  C_9
REMARK    3  A    between atoms: C_2  and  C_3
REMARK    4  A    between atoms: C_3  and  C_4
REMARK    5  A    between atoms: C_4  and  N_5
REMARK    6  A    between atoms: C_9  and  C_10
REMARK    7  A    between atoms: C_10  and  N_11
REMARK                            x       y       z     vdW  Elec       q    Type
REMARK                         _______ _______ _______ _____ _____    ______ ____
ROOT
ATOM      1  C   UNL     1      33.594 -19.297 -20.974  0.00  0.00    -0.002 C 
ENDROOT
BRANCH   1   2
ATOM      2  C   UNL     1      33.214 -20.547 -20.176  0.00  0.00    -0.002 C 
BRANCH   2   3
ATOM      3  C   UNL     1      34.458 -21.310 -19.715  0.00  0.00    -0.024 C 
BRANCH   3   4
ATOM      4  C   UNL     1      34.088 -22.448 -18.767  0.00  0.00    -0.086 C 
BRANCH   4   5
ATOM      5  N   UNL     1      32.667 -22.394 -18.440  0.00  0.00    +0.380 N 
ATOM      6  H   UNL     1      32.165 -21.918 -19.189  0.00  0.00    -0.089 HD
ATOM      7  H   UNL     1      32.539 -21.884 -17.567  0.00  0.00    -0.089 HD
ATOM      8  H   UNL     1      32.306 -23.342 -18.337  0.00  0.00    -0.089 HD
ENDBRANCH   4   5
ENDBRANCH   3   4
ENDBRANCH   2   3
ENDBRANCH   1   2
BRANCH   1   9
ATOM      9  C   UNL     1      34.928 -19.432 -21.715  0.00  0.00    -0.024 C 
BRANCH   9  10
ATOM     10  C   UNL     1      34.815 -19.163 -23.215  0.00  0.00    -0.086 C 
BRANCH  10  11
ATOM     11  N   UNL     1      35.714 -18.082 -23.602  0.00  0.00    +0.380 N 
ATOM     12  H   UNL     1      35.618 -17.900 -24.601  0.00  0.00    -0.089 HD
ATOM     13  H   UNL     1      36.676 -18.349 -23.396  0.00  0.00    -0.089 HD
ATOM     14  H   UNL     1      35.476 -17.238 -23.079  0.00  0.00    -0.089 HD
ENDBRANCH  10  11
ENDBRANCH   9  10
ENDBRANCH   1   9
TORSDOF 7
ENDMDL
MODEL 4
REMARK VINA RESULT:      -4.4      1.720      5.031
REMARK  Name = 16402
REMARK  7 active torsions:
REMARK  status: ('A' for Active; 'I' for Inactive)
REMARK    1  A    between atoms: C_1  and  C_2
REMARK    2  A    between atoms: C_1  and  C_9
REMARK    3  A    between atoms: C_2  and  C_3
REMARK    4  A    between atoms: C_3  and  C_4
REMARK    5  A    between atoms: C_4  and  N_5
REMARK    6  A    between atoms: C_9  and  C_10
REMARK    7  A    between atoms: C_10  and  N_11
REMARK                            x       y       z     vdW  Elec       q    Type
REMARK                         _______ _______ _______ _____ _____    ______ ____
ROOT
ATOM      1  C   UNL     1      35.484 -18.561 -22.507  0.00  0.00    -0.002 C 
ENDROOT
BRANCH   1   2
ATOM      2  C   UNL     1      34.468 -18.600 -21.362  0.00  0.00    -0.002 C 
BRANCH   2   3
ATOM      3  C   UNL     1      34.396 -19.994 -20.733  0.00  0.00    -0.024 C 
BRANCH   3   4
ATOM      4  C   UNL     1      32.973 -20.324 -20.285  0.00  0.00    -0.086 C 
BRANCH   4   5
ATOM      5  N   UNL     1      32.895 -21.706 -19.825  0.00  0.00    +0.380 N 
ATOM      6  H   UNL     1      32.791 -22.326 -20.628  0.00  0.00    -0.089 HD
ATOM      7  H   UNL     1      32.091 -21.813 -19.208  0.00  0.00    -0.089 HD
ATOM      8  H   UNL     1      33.747 -21.944 -19.319  0.00  0.00    -0.089 HD
ENDBRANCH   4   5
ENDBRANCH   3   4
ENDBRANCH   2   3
ENDBRANCH   1   2
BRANCH   1   9
ATOM      9  C   UNL     1      34.923 -19.080 -23.834  0.00  0.00    -0.024 C 
BRANCH   9  10
ATOM     10  C   UNL     1      34.569 -17.964 -24.817  0.00  0.00    -0.086 C 
BRANCH  10  11
ATOM     11  N   UNL     1      35.280 -16.740 -24.465  0.00  0.00    +0.380 N 
ATOM     12  H   UNL     1      34.786 -16.265 -23.708  0.00  0.00    -0.089 HD
ATOM     13  H   UNL     1      35.325 -16.126 -25.278  0.00  0.00    -0.089 HD
ATOM     14  H   UNL     1      36.226 -16.971 -24.160  0.00  0.00    -0.089 HD
ENDBRANCH  10  11
ENDBRANCH   9  10
ENDBRANCH   1   9
TORSDOF 7
ENDMDL
MODEL 5
REMARK VINA RESULT:      -4.3      1.310      1.453
REMARK  Name = 16402
REMARK  7 active torsions:
REMARK  status: ('A' for Active; 'I' for Inactive)
REMARK    1  A    between atoms: C_1  and  C_2
REMARK    2  A    between atoms: C_1  and  C_9
REMARK    3  A    between atoms: C_2  and  C_3
REMARK    4  A    between atoms: C_3  and  C_4
REMARK    5  A    between atoms: C_4  and  N_5
REMARK    6  A    between atoms: C_9  and  C_10
REMARK    7  A    between atoms: C_10  and  N_11
REMARK                            x       y       z     vdW  Elec       q    Type
REMARK                         _______ _______ _______ _____ _____    ______ ____
ROOT
ATOM      1  C   UNL     1      34.772 -19.793 -20.892  0.00  0.00    -0.002 C 
ENDROOT
BRANCH   1   2
ATOM      2  C   UNL     1      34.445 -18.664 -21.872  0.00  0.00    -0.002 C 
BRANCH   2   3
ATOM      3  C   UNL     1      34.991 -18.968 -23.270  0.00  0.00    -0.024 C 
BRANCH   3   4
ATOM      4  C   UNL     1      34.742 -17.803 -24.225  0.00  0.00    -0.086 C 
BRANCH   4   5
ATOM      5  N   UNL     1      35.541 -16.646 -23.833  0.00  0.00    +0.380 N 
ATOM      6  H   UNL     1      35.669 -16.034 -24.638  0.00  0.00    -0.089 HD
ATOM      7  H   UNL     1      36.450 -16.961 -23.497  0.00  0.00    -0.089 HD
ATOM      8  H   UNL     1      35.061 -16.139 -23.091  0.00  0.00    -0.089 HD
ENDBRANCH   4   5
ENDBRANCH   3   4
ENDBRANCH   2   3
ENDBRANCH   1   2
BRANCH   1   9
ATOM      9  C   UNL     1      33.528 -20.452 -20.287  0.00  0.00    -0.024 C 
BRANCH   9  10
ATOM     10  C   UNL     1      33.846 -21.700 -19.465  0.00  0.00    -0.086 C 
BRANCH  10  11
ATOM     11  N   UNL     1      32.654 -22.152 -18.756  0.00  0.00    +0.380 N 
ATOM     12  H   UNL     1      32.215 -22.912 -19.278  0.00  0.00    -0.089 HD
ATOM     13  H   UNL     1      31.997 -21.378 -18.667  0.00  0.00    -0.089 HD
ATOM     14  H   UNL     1      32.915 -22.485 -17.827  0.00  0.00    -0.089 HD
ENDBRANCH  10  11
ENDBRANCH   9  10
ENDBRANCH   1   9
TORSDOF 7
ENDMDL
MODEL 6
REMARK VINA RESULT:      -4.2      1.224      4.943
REMARK  Name = 16402
REMARK  7 active torsions:
REMARK  status: ('A' for Active; 'I' for Inactive)
REMARK    1  A    between atoms: C_1  and  C_2
REMARK    2  A    between atoms: C_1  and  C_9
REMARK    3  A    between atoms: C_2  and  C_3
REMARK    4  A    between atoms: C_3  and  C_4
REMARK    5  A    between atoms: C_4  and  N_5
REMARK    6  A    between atoms: C_9  and  C_10
REMARK    7  A    between atoms: C_10  and  N_11
REMARK                            x       y       z     vdW  Elec       q    Type
REMARK                         _______ _______ _______ _____ _____    ______ ____
ROOT
ATOM      1  C   UNL     1      34.244 -17.925 -21.324  0.00  0.00    -0.002 C 
ENDROOT
BRANCH   1   2
ATOM      2  C   UNL     1      35.266 -19.063 -21.258  0.00  0.00    -0.002 C 
BRANCH   2   3
ATOM      3  C   UNL     1      34.710 -20.264 -20.488  0.00  0.00    -0.024 C 
BRANCH   3   4
ATOM      4  C   UNL     1      33.184 -20.225 -20.433  0.00  0.00    -0.086 C 
BRANCH   4   5
ATOM      5  N   UNL     1      32.692 -21.104 -19.377  0.00  0.00    +0.380 N 
ATOM      6  H   UNL     1      32.048 -21.786 -19.776  0.00  0.00    -0.089 HD
ATOM      7  H   UNL     1      32.207 -20.549 -18.673  0.00  0.00    -0.089 HD
ATOM      8  H   UNL     1      33.478 -21.588 -18.946  0.00  0.00    -0.089 HD
ENDBRANCH   4   5
ENDBRANCH   3   4
ENDBRANCH   2   3
ENDBRANCH   1   2
BRANCH   1   9
ATOM      9  C   UNL     1      34.883 -16.533 -21.310  0.00  0.00    -0.024 C 
BRANCH   9  10
ATOM     10  C   UNL     1      34.667 -15.757 -22.610  0.00  0.00    -0.086 C 
BRANCH  10  11
ATOM     11  N   UNL     1      35.436 -16.365 -23.691  0.00  0.00    +0.380 N 
ATOM     12  H   UNL     1      36.429 -16.335 -23.460  0.00  0.00    -0.089 HD
ATOM     13  H   UNL     1      35.272 -15.850 -24.555  0.00  0.00    -0.089 HD
ATOM     14  H   UNL     1      35.144 -17.335 -23.812  0.00  0.00    -0.089 HD
ENDBRANCH  10  11
ENDBRANCH   9  10
ENDBRANCH   1   9
TORSDOF 7
ENDMDL
MODEL 7
REMARK VINA RESULT:      -4.1      3.375      5.141
REMARK  Name = 16402
REMARK  7 active torsions:
REMARK  status: ('A' for Active; 'I' for Inactive)
REMARK    1  A    between atoms: C_1  and  C_2
REMARK    2  A    between atoms: C_1  and  C_9
REMARK    3  A    between atoms: C_2  and  C_3
REMARK    4  A    between atoms: C_3  and  C_4
REMARK    5  A    between atoms: C_4  and  N_5
REMARK    6  A    between atoms: C_9  and  C_10
REMARK    7  A    between atoms: C_10  and  N_11
REMARK                            x       y       z     vdW  Elec       q    Type
REMARK                         _______ _______ _______ _____ _____    ______ ____
ROOT
ATOM      1  C   UNL     1      36.283 -21.022 -19.708  0.00  0.00    -0.002 C 
ENDROOT
BRANCH   1   2
ATOM      2  C   UNL     1      35.955 -21.837 -18.454  0.00  0.00    -0.002 C 
BRANCH   2   3
ATOM      3  C   UNL     1      36.988 -21.595 -17.350  0.00  0.00    -0.024 C 
BRANCH   3   4
ATOM      4  C   UNL     1      36.818 -22.594 -16.207  0.00  0.00    -0.086 C 
BRANCH   4   5
ATOM      5  N   UNL     1      38.078 -23.281 -15.944  0.00  0.00    +0.380 N 
ATOM      6  H   UNL     1      38.807 -22.593 -15.757  0.00  0.00    -0.089 HD
ATOM      7  H   UNL     1      38.336 -23.839 -16.757  0.00  0.00    -0.089 HD
ATOM      8  H   UNL     1      37.969 -23.891 -15.134  0.00  0.00    -0.089 HD
ENDBRANCH   4   5
ENDBRANCH   3   4
ENDBRANCH   2   3
ENDBRANCH   1   2
BRANCH   1   9
ATOM      9  C   UNL     1      35.044 -20.447 -20.400  0.00  0.00    -0.024 C 
BRANCH   9  10
ATOM     10  C   UNL     1      33.732 -21.008 -19.851  0.00  0.00    -0.086 C 
BRANCH  10  11
ATOM     11  N   UNL     1      32.599 -20.412 -20.551  0.00  0.00    +0.380 N 
ATOM     12  H   UNL     1      32.834 -19.458 -20.828  0.00  0.00    -0.089 HD
ATOM     13  H   UNL     1      31.788 -20.396 -19.933  0.00  0.00    -0.089 HD
ATOM     14  H   UNL     1      32.383 -20.964 -21.381  0.00  0.00    -0.089 HD
ENDBRANCH  10  11
ENDBRANCH   9  10
ENDBRANCH   1   9
TORSDOF 7
ENDMDL
MODEL 8
REMARK VINA RESULT:      -4.1      1.995      2.567
REMARK  Name = 16402
REMARK  7 active torsions:
REMARK  status: ('A' for Active; 'I' for Inactive)
REMARK    1  A    between atoms: C_1  and  C_2
REMARK    2  A    between atoms: C_1  and  C_9
REMARK    3  A    between atoms: C_2  and  C_3
REMARK    4  A    between atoms: C_3  and  C_4
REMARK    5  A    between atoms: C_4  and  N_5
REMARK    6  A    between atoms: C_9  and  C_10
REMARK    7  A    between atoms: C_10  and  N_11
REMARK                            x       y       z     vdW  Elec       q    Type
REMARK                         _______ _______ _______ _____ _____    ______ ____
ROOT
ATOM      1  C   UNL     1      33.412 -21.221 -19.479  0.00  0.00    -0.002 C 
ENDROOT
BRANCH   1   2
ATOM      2  C   UNL     1      32.963 -20.407 -20.695  0.00  0.00    -0.002 C 
BRANCH   2   3
ATOM      3  C   UNL     1      33.893 -19.216 -20.939  0.00  0.00    -0.024 C 
BRANCH   3   4
ATOM      4  C   UNL     1      34.602 -19.337 -22.287  0.00  0.00    -0.086 C 
BRANCH   4   5
ATOM      5  N   UNL     1      35.825 -18.542 -22.290  0.00  0.00    +0.380 N 
ATOM      6  H   UNL     1      36.633 -19.163 -22.327  0.00  0.00    -0.089 HD
ATOM      7  H   UNL     1      35.866 -17.981 -21.440  0.00  0.00    -0.089 HD
ATOM      8  H   UNL     1      35.829 -17.928 -23.103  0.00  0.00    -0.089 HD
ENDBRANCH   4   5
ENDBRANCH   3   4
ENDBRANCH   2   3
ENDBRANCH   1   2
BRANCH   1   9
ATOM      9  C   UNL     1      34.677 -22.046 -19.733  0.00  0.00    -0.024 C 
BRANCH   9  10
ATOM     10  C   UNL     1      35.793 -21.764 -18.727  0.00  0.00    -0.086 C 
BRANCH  10  11
ATOM     11  N   UNL     1      36.600 -20.635 -19.174  0.00  0.00    +0.380 N 
ATOM     12  H   UNL     1      36.494 -19.860 -18.518  0.00  0.00    -0.089 HD
ATOM     13  H   UNL     1      36.291 -20.341 -20.100  0.00  0.00    -0.089 HD
ATOM     14  H   UNL     1      37.581 -20.912 -19.216  0.00  0.00    -0.089 HD
ENDBRANCH  10  11
ENDBRANCH   9  10
ENDBRANCH   1   9
TORSDOF 7
ENDMDL
MODEL 9
REMARK VINA RESULT:      -4.1      2.941      5.139
REMARK  Name = 16402
REMARK  7 active torsions:
REMARK  status: ('A' for Active; 'I' for Inactive)
REMARK    1  A    between atoms: C_1  and  C_2
REMARK    2  A    between atoms: C_1  and  C_9
REMARK    3  A    between atoms: C_2  and  C_3
REMARK    4  A    between atoms: C_3  and  C_4
REMARK    5  A    between atoms: C_4  and  N_5
REMARK    6  A    between atoms: C_9  and  C_10
REMARK    7  A    between atoms: C_10  and  N_11
REMARK                            x       y       z     vdW  Elec       q    Type
REMARK                         _______ _______ _______ _____ _____    ______ ____
ROOT
ATOM      1  C   UNL     1      34.557 -18.381 -24.727  0.00  0.00    -0.002 C 
ENDROOT
BRANCH   1   2
ATOM      2  C   UNL     1      35.381 -18.634 -23.461  0.00  0.00    -0.002 C 
BRANCH   2   3
ATOM      3  C   UNL     1      34.566 -19.399 -22.415  0.00  0.00    -0.024 C 
BRANCH   3   4
ATOM      4  C   UNL     1      34.216 -18.506 -21.227  0.00  0.00    -0.086 C 
BRANCH   4   5
ATOM      5  N   UNL     1      35.374 -17.713 -20.830  0.00  0.00    +0.380 N 
ATOM      6  H   UNL     1      36.228 -18.201 -21.099  0.00  0.00    -0.089 HD
ATOM      7  H   UNL     1      35.363 -17.578 -19.820  0.00  0.00    -0.089 HD
ATOM      8  H   UNL     1      35.340 -16.806 -21.294  0.00  0.00    -0.089 HD
ENDBRANCH   4   5
ENDBRANCH   3   4
ENDBRANCH   2   3
ENDBRANCH   1   2
BRANCH   1   9
ATOM      9  C   UNL     1      34.496 -16.903 -25.126  0.00  0.00    -0.024 C 
BRANCH   9  10
ATOM     10  C   UNL     1      34.686 -15.951 -23.945  0.00  0.00    -0.086 C 
BRANCH  10  11
ATOM     11  N   UNL     1      33.619 -14.955 -23.927  0.00  0.00    +0.380 N 
ATOM     12  H   UNL     1      33.937 -14.127 -23.422  0.00  0.00    -0.089 HD
ATOM     13  H   UNL     1      32.800 -15.343 -23.461  0.00  0.00    -0.089 HD
ATOM     14  H   UNL     1      33.377 -14.698 -24.884  0.00  0.00    -0.089 HD
ENDBRANCH  10  11
ENDBRANCH   9  10
ENDBRANCH   1   9
TORSDOF 7
ENDMDL
