MODEL 1
REMARK VINA RESULT:     -11.2      0.000      0.000
REMARK  Name = 135435181
REMARK  5 active torsions:
REMARK  status: ('A' for Active; 'I' for Inactive)
REMARK    1  A    between atoms: N_3  and  C_28
REMARK    2  A    between atoms: C_7  and  C_18
REMARK    3  A    between atoms: C_8  and  O_26
REMARK    4  A    between atoms: C_28  and  C_29
REMARK    5  A    between atoms: C_29  and  C_30
REMARK                            x       y       z     vdW  Elec       q    Type
REMARK                         _______ _______ _______ _____ _____    ______ ____
ROOT
ATOM      1  F   UNL     1      30.582 -10.430 -18.401  0.00  0.00    -0.204 F 
ATOM      2  O   UNL     1      33.979 -12.594 -24.898  0.00  0.00    -0.267 OA
ATOM      3  N   UNL     1      33.025 -11.137 -23.367  0.00  0.00    -0.295 N 
ATOM      4  C   UNL     1      32.399 -10.944 -22.099  0.00  0.00    +0.065 A 
ATOM      5  C   UNL     1      33.436 -12.395 -23.810  0.00  0.00    +0.267 A 
ATOM      6  C   UNL     1      32.184 -12.052 -21.264  0.00  0.00    +0.052 A 
ATOM      7  C   UNL     1      33.199 -13.567 -22.902  0.00  0.00    +0.123 A 
ATOM      8  C   UNL     1      32.606 -13.393 -21.706  0.00  0.00    +0.142 A 
ATOM      9  C   UNL     1      31.990  -9.670 -21.662  0.00  0.00    +0.020 C 
ATOM     10  C   UNL     1      31.566 -11.859 -20.013  0.00  0.00    +0.034 C 
ATOM     11  C   UNL     1      31.380  -9.495 -20.419  0.00  0.00    +0.031 C 
ATOM     12  C   UNL     1      31.168 -10.590 -19.595  0.00  0.00    +0.140 C 
ENDROOT
BRANCH   7  18
ATOM     13  S   UNL     1      34.112 -16.499 -25.316  0.00  0.00    +0.103 S 
ATOM     14  O   UNL     1      35.362 -16.304 -26.029  0.00  0.00    -0.146 OA
ATOM     15  O   UNL     1      32.965 -17.084 -25.987  0.00  0.00    -0.146 OA
ATOM     16  N   UNL     1      33.949 -15.849 -22.385  0.00  0.00    -0.295 N 
ATOM     17  N   UNL     1      33.664 -15.087 -24.643  0.00  0.00    -0.112 NA
ATOM     18  C   UNL     1      33.627 -14.908 -23.347  0.00  0.00    +0.161 C 
ATOM     19  C   UNL     1      34.368 -17.150 -22.679  0.00  0.00    +0.069 C 
ATOM     20  C   UNL     1      34.492 -17.599 -23.992  0.00  0.00    +0.143 C 
ATOM     21  C   UNL     1      34.679 -18.048 -21.649  0.00  0.00    +0.016 C 
ATOM     22  C   UNL     1      34.911 -18.893 -24.300  0.00  0.00    +0.022 C 
ATOM     23  C   UNL     1      35.100 -19.348 -21.939  0.00  0.00    +0.001 C 
ATOM     24  C   UNL     1      35.215 -19.771 -23.263  0.00  0.00    +0.001 C 
ATOM     25  H   UNL     1      33.877 -15.589 -21.439  0.00  0.00    +0.154 HD
ENDBRANCH   7  18
BRANCH   8  26
ATOM     26  O   UNL     1      32.335 -14.396 -20.799  0.00  0.00    -0.505 OA
ATOM     27  H   UNL     1      31.458 -14.534 -20.499  0.00  0.00    +0.292 HD
ENDBRANCH   8  26
BRANCH   3  28
ATOM     28  C   UNL     1      33.244  -9.979 -24.232  0.00  0.00    +0.109 C 
BRANCH  28  29
ATOM     29  C   UNL     1      34.641  -9.392 -24.071  0.00  0.00    +0.025 C 
BRANCH  29  30
ATOM     30  C   UNL     1      34.624  -7.962 -23.621  0.00  0.00    +0.002 C 
ATOM     31  C   UNL     1      34.685  -6.850 -24.631  0.00  0.00    +0.000 C 
ATOM     32  C   UNL     1      33.414  -7.105 -23.870  0.00  0.00    +0.000 C 
ENDBRANCH  29  30
ENDBRANCH  28  29
ENDBRANCH   3  28
TORSDOF 5
ENDMDL
MODEL 2
REMARK VINA RESULT:     -11.1     10.294     13.845
REMARK  Name = 135435181
REMARK  5 active torsions:
REMARK  status: ('A' for Active; 'I' for Inactive)
REMARK    1  A    between atoms: N_3  and  C_28
REMARK    2  A    between atoms: C_7  and  C_18
REMARK    3  A    between atoms: C_8  and  O_26
REMARK    4  A    between atoms: C_28  and  C_29
REMARK    5  A    between atoms: C_29  and  C_30
REMARK                            x       y       z     vdW  Elec       q    Type
REMARK                         _______ _______ _______ _____ _____    ______ ____
ROOT
ATOM      1  F   UNL     1      28.273 -24.990 -14.242  0.00  0.00    -0.204 F 
ATOM      2  O   UNL     1      35.172 -22.810 -16.711  0.00  0.00    -0.267 OA
ATOM      3  N   UNL     1      32.867 -23.062 -16.755  0.00  0.00    -0.295 N 
ATOM      4  C   UNL     1      31.685 -23.551 -16.122  0.00  0.00    +0.065 A 
ATOM      5  C   UNL     1      34.133 -23.221 -16.190  0.00  0.00    +0.267 A 
ATOM      6  C   UNL     1      31.791 -24.217 -14.890  0.00  0.00    +0.052 A 
ATOM      7  C   UNL     1      34.225 -23.934 -14.873  0.00  0.00    +0.123 A 
ATOM      8  C   UNL     1      33.116 -24.401 -14.270  0.00  0.00    +0.142 A 
ATOM      9  C   UNL     1      30.412 -23.384 -16.699  0.00  0.00    +0.020 C 
ATOM     10  C   UNL     1      30.623 -24.699 -14.267  0.00  0.00    +0.034 C 
ATOM     11  C   UNL     1      29.265 -23.866 -16.069  0.00  0.00    +0.031 C 
ATOM     12  C   UNL     1      29.370 -24.524 -14.853  0.00  0.00    +0.140 C 
ENDROOT
BRANCH   7  18
ATOM     13  S   UNL     1      37.089 -23.687 -12.227  0.00  0.00    +0.103 S 
ATOM     14  O   UNL     1      36.877 -24.516 -11.054  0.00  0.00    -0.146 OA
ATOM     15  O   UNL     1      37.653 -22.356 -12.097  0.00  0.00    -0.146 OA
ATOM     16  N   UNL     1      36.523 -24.801 -14.962  0.00  0.00    -0.295 N 
ATOM     17  N   UNL     1      35.696 -23.589 -13.062  0.00  0.00    -0.112 NA
ATOM     18  C   UNL     1      35.554 -24.112 -14.254  0.00  0.00    +0.161 C 
ATOM     19  C   UNL     1      37.816 -25.037 -14.485  0.00  0.00    +0.069 C 
ATOM     20  C   UNL     1      38.227 -24.582 -13.234  0.00  0.00    +0.143 C 
ATOM     21  C   UNL     1      38.743 -25.746 -15.260  0.00  0.00    +0.016 C 
ATOM     22  C   UNL     1      39.513 -24.811 -12.744  0.00  0.00    +0.022 C 
ATOM     23  C   UNL     1      40.036 -25.984 -14.785  0.00  0.00    +0.001 C 
ATOM     24  C   UNL     1      40.420 -25.517 -13.530  0.00  0.00    +0.001 C 
ATOM     25  H   UNL     1      36.290 -25.144 -15.854  0.00  0.00    +0.154 HD
ENDBRANCH   7  18
BRANCH   8  26
ATOM     26  O   UNL     1      33.086 -25.073 -13.067  0.00  0.00    -0.505 OA
ATOM     27  H   UNL     1      32.400 -24.903 -12.451  0.00  0.00    +0.292 HD
ENDBRANCH   8  26
BRANCH   3  28
ATOM     28  C   UNL     1      32.748 -22.372 -18.038  0.00  0.00    +0.109 C 
BRANCH  28  29
ATOM     29  C   UNL     1      33.960 -22.601 -18.933  0.00  0.00    +0.025 C 
BRANCH  29  30
ATOM     30  C   UNL     1      34.706 -21.337 -19.238  0.00  0.00    +0.002 C 
ATOM     31  C   UNL     1      35.810 -21.336 -20.258  0.00  0.00    +0.000 C 
ATOM     32  C   UNL     1      34.511 -20.643 -20.557  0.00  0.00    +0.000 C 
ENDBRANCH  29  30
ENDBRANCH  28  29
ENDBRANCH   3  28
TORSDOF 5
ENDMDL
MODEL 3
REMARK VINA RESULT:     -10.6      2.208      4.197
REMARK  Name = 135435181
REMARK  5 active torsions:
REMARK  status: ('A' for Active; 'I' for Inactive)
REMARK    1  A    between atoms: N_3  and  C_28
REMARK    2  A    between atoms: C_7  and  C_18
REMARK    3  A    between atoms: C_8  and  O_26
REMARK    4  A    between atoms: C_28  and  C_29
REMARK    5  A    between atoms: C_29  and  C_30
REMARK                            x       y       z     vdW  Elec       q    Type
REMARK                         _______ _______ _______ _____ _____    ______ ____
ROOT
ATOM      1  F   UNL     1      35.074  -5.994 -24.996  0.00  0.00    -0.204 F 
ATOM      2  O   UNL     1      31.827 -12.370 -22.305  0.00  0.00    -0.267 OA
ATOM      3  N   UNL     1      32.241 -10.096 -22.490  0.00  0.00    -0.295 N 
ATOM      4  C   UNL     1      32.960  -9.038 -23.124  0.00  0.00    +0.065 A 
ATOM      5  C   UNL     1      32.432 -11.435 -22.833  0.00  0.00    +0.267 A 
ATOM      6  C   UNL     1      33.894  -9.348 -24.126  0.00  0.00    +0.052 A 
ATOM      7  C   UNL     1      33.434 -11.745 -23.907  0.00  0.00    +0.123 A 
ATOM      8  C   UNL     1      34.118 -10.753 -24.507  0.00  0.00    +0.142 A 
ATOM      9  C   UNL     1      32.757  -7.691 -22.772  0.00  0.00    +0.020 C 
ATOM     10  C   UNL     1      34.602  -8.302 -24.749  0.00  0.00    +0.034 C 
ATOM     11  C   UNL     1      33.466  -6.666 -23.400  0.00  0.00    +0.031 C 
ATOM     12  C   UNL     1      34.389  -6.972 -24.389  0.00  0.00    +0.140 C 
ENDROOT
BRANCH   7  18
ATOM     13  S   UNL     1      33.433 -14.983 -26.092  0.00  0.00    +0.103 S 
ATOM     14  O   UNL     1      34.399 -14.959 -27.176  0.00  0.00    -0.146 OA
ATOM     15  O   UNL     1      32.113 -15.553 -26.294  0.00  0.00    -0.146 OA
ATOM     16  N   UNL     1      34.230 -14.006 -23.363  0.00  0.00    -0.295 N 
ATOM     17  N   UNL     1      33.271 -13.477 -25.498  0.00  0.00    -0.112 NA
ATOM     18  C   UNL     1      33.652 -13.154 -24.288  0.00  0.00    +0.161 C 
ATOM     19  C   UNL     1      34.490 -15.357 -23.604  0.00  0.00    +0.069 C 
ATOM     20  C   UNL     1      34.176 -15.955 -24.823  0.00  0.00    +0.143 C 
ATOM     21  C   UNL     1      35.080 -16.157 -22.617  0.00  0.00    +0.016 C 
ATOM     22  C   UNL     1      34.431 -17.303 -25.078  0.00  0.00    +0.022 C 
ATOM     23  C   UNL     1      35.343 -17.509 -22.855  0.00  0.00    +0.001 C 
ATOM     24  C   UNL     1      35.017 -18.081 -24.084  0.00  0.00    +0.001 C 
ATOM     25  H   UNL     1      34.471 -13.638 -22.482  0.00  0.00    +0.154 HD
ENDBRANCH   7  18
BRANCH   8  26
ATOM     26  O   UNL     1      35.062 -10.924 -25.498  0.00  0.00    -0.505 OA
ATOM     27  H   UNL     1      35.239 -11.780 -25.837  0.00  0.00    +0.292 HD
ENDBRANCH   8  26
BRANCH   3  28
ATOM     28  C   UNL     1      31.271  -9.766 -21.447  0.00  0.00    +0.109 C 
BRANCH  28  29
ATOM     29  C   UNL     1      31.938  -9.229 -20.187  0.00  0.00    +0.025 C 
BRANCH  29  30
ATOM     30  C   UNL     1      32.264 -10.306 -19.196  0.00  0.00    +0.002 C 
ATOM     31  C   UNL     1      31.241 -10.734 -18.180  0.00  0.00    +0.000 C 
ATOM     32  C   UNL     1      31.614 -11.657 -19.306  0.00  0.00    +0.000 C 
ENDBRANCH  29  30
ENDBRANCH  28  29
ENDBRANCH   3  28
TORSDOF 5
ENDMDL
MODEL 4
REMARK VINA RESULT:     -10.0      8.400     12.808
REMARK  Name = 135435181
REMARK  5 active torsions:
REMARK  status: ('A' for Active; 'I' for Inactive)
REMARK    1  A    between atoms: N_3  and  C_28
REMARK    2  A    between atoms: C_7  and  C_18
REMARK    3  A    between atoms: C_8  and  O_26
REMARK    4  A    between atoms: C_28  and  C_29
REMARK    5  A    between atoms: C_29  and  C_30
REMARK                            x       y       z     vdW  Elec       q    Type
REMARK                         _______ _______ _______ _____ _____    ______ ____
ROOT
ATOM      1  F   UNL     1      28.565 -24.721 -14.563  0.00  0.00    -0.204 F 
ATOM      2  O   UNL     1      35.894 -23.332 -16.234  0.00  0.00    -0.267 OA
ATOM      3  N   UNL     1      34.099 -24.207 -15.055  0.00  0.00    -0.295 N 
ATOM      4  C   UNL     1      32.685 -24.345 -14.919  0.00  0.00    +0.065 A 
ATOM      5  C   UNL     1      34.678 -23.470 -16.089  0.00  0.00    +0.267 A 
ATOM      6  C   UNL     1      31.841 -23.721 -15.852  0.00  0.00    +0.052 A 
ATOM      7  C   UNL     1      33.759 -22.811 -17.077  0.00  0.00    +0.123 A 
ATOM      8  C   UNL     1      32.425 -22.935 -16.954  0.00  0.00    +0.142 A 
ATOM      9  C   UNL     1      32.112 -25.092 -13.873  0.00  0.00    +0.020 C 
ATOM     10  C   UNL     1      30.446 -23.859 -15.715  0.00  0.00    +0.034 C 
ATOM     11  C   UNL     1      30.728 -25.220 -13.751  0.00  0.00    +0.031 C 
ATOM     12  C   UNL     1      29.895 -24.603 -14.673  0.00  0.00    +0.140 C 
ENDROOT
BRANCH   7  18
ATOM     13  S   UNL     1      36.479 -21.210 -19.379  0.00  0.00    +0.103 S 
ATOM     14  O   UNL     1      37.169 -22.168 -20.225  0.00  0.00    -0.146 OA
ATOM     15  O   UNL     1      37.207 -20.120 -18.755  0.00  0.00    -0.146 OA
ATOM     16  N   UNL     1      33.495 -21.382 -19.058  0.00  0.00    -0.295 N 
ATOM     17  N   UNL     1      35.656 -22.019 -18.232  0.00  0.00    -0.112 NA
ATOM     18  C   UNL     1      34.348 -22.029 -18.181  0.00  0.00    +0.161 C 
ATOM     19  C   UNL     1      33.928 -20.613 -20.142  0.00  0.00    +0.069 C 
ATOM     20  C   UNL     1      35.283 -20.440 -20.420  0.00  0.00    +0.143 C 
ATOM     21  C   UNL     1      33.003 -19.989 -20.989  0.00  0.00    +0.016 C 
ATOM     22  C   UNL     1      35.730 -19.677 -21.499  0.00  0.00    +0.022 C 
ATOM     23  C   UNL     1      33.433 -19.221 -22.074  0.00  0.00    +0.001 C 
ATOM     24  C   UNL     1      34.795 -19.065 -22.328  0.00  0.00    +0.001 C 
ATOM     25  H   UNL     1      32.526 -21.467 -18.909  0.00  0.00    +0.154 HD
ENDBRANCH   7  18
BRANCH   8  26
ATOM     26  O   UNL     1      31.492 -22.370 -17.797  0.00  0.00    -0.505 OA
ATOM     27  H   UNL     1      30.762 -22.876 -18.098  0.00  0.00    +0.292 HD
ENDBRANCH   8  26
BRANCH   3  28
ATOM     28  C   UNL     1      34.971 -24.858 -14.078  0.00  0.00    +0.109 C 
BRANCH  28  29
ATOM     29  C   UNL     1      35.257 -23.968 -12.875  0.00  0.00    +0.025 C 
BRANCH  29  30
ATOM     30  C   UNL     1      36.673 -23.476 -12.838  0.00  0.00    +0.002 C 
ATOM     31  C   UNL     1      37.236 -22.882 -11.576  0.00  0.00    +0.000 C 
ATOM     32  C   UNL     1      37.714 -24.224 -12.054  0.00  0.00    +0.000 C 
ENDBRANCH  29  30
ENDBRANCH  28  29
ENDBRANCH   3  28
TORSDOF 5
ENDMDL
MODEL 5
REMARK VINA RESULT:     -10.0      3.757      5.888
REMARK  Name = 135435181
REMARK  5 active torsions:
REMARK  status: ('A' for Active; 'I' for Inactive)
REMARK    1  A    between atoms: N_3  and  C_28
REMARK    2  A    between atoms: C_7  and  C_18
REMARK    3  A    between atoms: C_8  and  O_26
REMARK    4  A    between atoms: C_28  and  C_29
REMARK    5  A    between atoms: C_29  and  C_30
REMARK                            x       y       z     vdW  Elec       q    Type
REMARK                         _______ _______ _______ _____ _____    ______ ____
ROOT
ATOM      1  F   UNL     1      33.355 -14.887 -27.402  0.00  0.00    -0.204 F 
ATOM      2  O   UNL     1      34.466 -15.951 -19.913  0.00  0.00    -0.267 OA
ATOM      3  N   UNL     1      33.995 -14.781 -21.859  0.00  0.00    -0.295 N 
ATOM      4  C   UNL     1      33.829 -14.796 -23.277  0.00  0.00    +0.065 A 
ATOM      5  C   UNL     1      34.316 -15.930 -21.136  0.00  0.00    +0.267 A 
ATOM      6  C   UNL     1      33.994 -16.003 -23.975  0.00  0.00    +0.052 A 
ATOM      7  C   UNL     1      34.487 -17.211 -21.900  0.00  0.00    +0.123 A 
ATOM      8  C   UNL     1      34.335 -17.233 -23.238  0.00  0.00    +0.142 A 
ATOM      9  C   UNL     1      33.503 -13.631 -23.997  0.00  0.00    +0.020 C 
ATOM     10  C   UNL     1      33.829 -16.015 -25.374  0.00  0.00    +0.034 C 
ATOM     11  C   UNL     1      33.343 -13.659 -25.382  0.00  0.00    +0.031 C 
ATOM     12  C   UNL     1      33.506 -14.851 -26.071  0.00  0.00    +0.140 C 
ENDROOT
BRANCH   7  18
ATOM     13  S   UNL     1      36.662 -19.984 -20.215  0.00  0.00    +0.103 S 
ATOM     14  O   UNL     1      37.330 -19.549 -19.002  0.00  0.00    -0.146 OA
ATOM     15  O   UNL     1      37.342 -20.851 -21.161  0.00  0.00    -0.146 OA
ATOM     16  N   UNL     1      33.790 -19.232 -20.687  0.00  0.00    -0.295 N 
ATOM     17  N   UNL     1      36.103 -18.677 -21.006  0.00  0.00    -0.112 NA
ATOM     18  C   UNL     1      34.824 -18.441 -21.157  0.00  0.00    +0.161 C 
ATOM     19  C   UNL     1      33.979 -20.416 -19.970  0.00  0.00    +0.069 C 
ATOM     20  C   UNL     1      35.253 -20.895 -19.674  0.00  0.00    +0.143 C 
ATOM     21  C   UNL     1      32.880 -21.163 -19.525  0.00  0.00    +0.016 C 
ATOM     22  C   UNL     1      35.457 -22.075 -18.958  0.00  0.00    +0.022 C 
ATOM     23  C   UNL     1      33.065 -22.347 -18.806  0.00  0.00    +0.001 C 
ATOM     24  C   UNL     1      34.352 -22.803 -18.524  0.00  0.00    +0.001 C 
ATOM     25  H   UNL     1      32.867 -18.943 -20.869  0.00  0.00    +0.154 HD
ENDBRANCH   7  18
BRANCH   8  26
ATOM     26  O   UNL     1      34.474 -18.348 -24.037  0.00  0.00    -0.505 OA
ATOM     27  H   UNL     1      34.585 -19.194 -23.648  0.00  0.00    +0.292 HD
ENDBRANCH   8  26
BRANCH   3  28
ATOM     28  C   UNL     1      33.824 -13.520 -21.140  0.00  0.00    +0.109 C 
BRANCH  28  29
ATOM     29  C   UNL     1      32.366 -13.247 -20.790  0.00  0.00    +0.025 C 
BRANCH  29  30
ATOM     30  C   UNL     1      32.015 -11.791 -20.852  0.00  0.00    +0.002 C 
ATOM     31  C   UNL     1      30.578 -11.362 -20.967  0.00  0.00    +0.000 C 
ATOM     32  C   UNL     1      31.332 -11.127 -19.688  0.00  0.00    +0.000 C 
ENDBRANCH  29  30
ENDBRANCH  28  29
ENDBRANCH   3  28
TORSDOF 5
ENDMDL
MODEL 6
REMARK VINA RESULT:      -9.8      8.740     13.101
REMARK  Name = 135435181
REMARK  5 active torsions:
REMARK  status: ('A' for Active; 'I' for Inactive)
REMARK    1  A    between atoms: N_3  and  C_28
REMARK    2  A    between atoms: C_7  and  C_18
REMARK    3  A    between atoms: C_8  and  O_26
REMARK    4  A    between atoms: C_28  and  C_29
REMARK    5  A    between atoms: C_29  and  C_30
REMARK                            x       y       z     vdW  Elec       q    Type
REMARK                         _______ _______ _______ _____ _____    ______ ____
ROOT
ATOM      1  F   UNL     1      38.670 -24.587 -11.741  0.00  0.00    -0.204 F 
ATOM      2  O   UNL     1      33.018 -23.214 -16.703  0.00  0.00    -0.267 OA
ATOM      3  N   UNL     1      34.025 -24.044 -14.786  0.00  0.00    -0.295 N 
ATOM      4  C   UNL     1      35.207 -24.189 -13.999  0.00  0.00    +0.065 A 
ATOM      5  C   UNL     1      34.021 -23.357 -16.000  0.00  0.00    +0.267 A 
ATOM      6  C   UNL     1      36.410 -23.627 -14.456  0.00  0.00    +0.052 A 
ATOM      7  C   UNL     1      35.316 -22.762 -16.471  0.00  0.00    +0.123 A 
ATOM      8  C   UNL     1      36.435 -22.897 -15.736  0.00  0.00    +0.142 A 
ATOM      9  C   UNL     1      35.200 -24.883 -12.774  0.00  0.00    +0.020 C 
ATOM     10  C   UNL     1      37.574 -23.772 -13.677  0.00  0.00    +0.034 C 
ATOM     11  C   UNL     1      36.362 -25.017 -12.013  0.00  0.00    +0.031 C 
ATOM     12  C   UNL     1      37.549 -24.462 -12.465  0.00  0.00    +0.140 C 
ENDROOT
BRANCH   7  18
ATOM     13  S   UNL     1      36.741 -20.971 -19.636  0.00  0.00    +0.103 S 
ATOM     14  O   UNL     1      37.330 -21.876 -20.607  0.00  0.00    -0.146 OA
ATOM     15  O   UNL     1      37.361 -19.688 -19.355  0.00  0.00    -0.146 OA
ATOM     16  N   UNL     1      34.128 -21.680 -18.331  0.00  0.00    -0.295 N 
ATOM     17  N   UNL     1      36.525 -21.770 -18.236  0.00  0.00    -0.112 NA
ATOM     18  C   UNL     1      35.336 -22.028 -17.752  0.00  0.00    +0.161 C 
ATOM     19  C   UNL     1      34.015 -20.987 -19.539  0.00  0.00    +0.069 C 
ATOM     20  C   UNL     1      35.138 -20.590 -20.262  0.00  0.00    +0.143 C 
ATOM     21  C   UNL     1      32.755 -20.671 -20.064  0.00  0.00    +0.016 C 
ATOM     22  C   UNL     1      35.040 -19.901 -21.471  0.00  0.00    +0.022 C 
ATOM     23  C   UNL     1      32.638 -19.980 -21.273  0.00  0.00    +0.001 C 
ATOM     24  C   UNL     1      33.779 -19.595 -21.975  0.00  0.00    +0.001 C 
ATOM     25  H   UNL     1      33.300 -21.933 -17.863  0.00  0.00    +0.154 HD
ENDBRANCH   7  18
BRANCH   8  26
ATOM     26  O   UNL     1      37.676 -22.398 -16.074  0.00  0.00    -0.505 OA
ATOM     27  H   UNL     1      38.450 -22.766 -15.695  0.00  0.00    +0.292 HD
ENDBRANCH   8  26
BRANCH   3  28
ATOM     28  C   UNL     1      32.777 -24.634 -14.304  0.00  0.00    +0.109 C 
BRANCH  28  29
ATOM     29  C   UNL     1      31.865 -23.604 -13.649  0.00  0.00    +0.025 C 
BRANCH  29  30
ATOM     30  C   UNL     1      30.427 -23.768 -14.039  0.00  0.00    +0.002 C 
ATOM     31  C   UNL     1      29.798 -22.828 -15.030  0.00  0.00    +0.000 C 
ATOM     32  C   UNL     1      30.066 -24.256 -15.414  0.00  0.00    +0.000 C 
ENDBRANCH  29  30
ENDBRANCH  28  29
ENDBRANCH   3  28
TORSDOF 5
ENDMDL
MODEL 7
REMARK VINA RESULT:      -9.8      9.827     13.351
REMARK  Name = 135435181
REMARK  5 active torsions:
REMARK  status: ('A' for Active; 'I' for Inactive)
REMARK    1  A    between atoms: N_3  and  C_28
REMARK    2  A    between atoms: C_7  and  C_18
REMARK    3  A    between atoms: C_8  and  O_26
REMARK    4  A    between atoms: C_28  and  C_29
REMARK    5  A    between atoms: C_29  and  C_30
REMARK                            x       y       z     vdW  Elec       q    Type
REMARK                         _______ _______ _______ _____ _____    ______ ____
ROOT
ATOM      1  F   UNL     1      35.054 -19.738 -21.497  0.00  0.00    -0.204 F 
ATOM      2  O   UNL     1      33.409 -24.017 -15.379  0.00  0.00    -0.267 OA
ATOM      3  N   UNL     1      32.999 -22.805 -17.313  0.00  0.00    -0.295 N 
ATOM      4  C   UNL     1      33.513 -22.019 -18.388  0.00  0.00    +0.065 A 
ATOM      5  C   UNL     1      33.822 -23.334 -16.319  0.00  0.00    +0.267 A 
ATOM      6  C   UNL     1      34.892 -21.764 -18.453  0.00  0.00    +0.052 A 
ATOM      7  C   UNL     1      35.294 -23.052 -16.407  0.00  0.00    +0.123 A 
ATOM      8  C   UNL     1      35.786 -22.309 -17.416  0.00  0.00    +0.142 A 
ATOM      9  C   UNL     1      32.673 -21.491 -19.387  0.00  0.00    +0.020 C 
ATOM     10  C   UNL     1      35.397 -20.988 -19.515  0.00  0.00    +0.034 C 
ATOM     11  C   UNL     1      33.189 -20.725 -20.433  0.00  0.00    +0.031 C 
ATOM     12  C   UNL     1      34.551 -20.473 -20.497  0.00  0.00    +0.140 C 
ENDROOT
BRANCH   7  18
ATOM     13  S   UNL     1      36.594 -24.063 -12.865  0.00  0.00    +0.103 S 
ATOM     14  O   UNL     1      35.878 -25.180 -12.274  0.00  0.00    -0.146 OA
ATOM     15  O   UNL     1      37.002 -22.935 -12.047  0.00  0.00    -0.146 OA
ATOM     16  N   UNL     1      37.388 -24.165 -15.762  0.00  0.00    -0.295 N 
ATOM     17  N   UNL     1      35.746 -23.510 -14.139  0.00  0.00    -0.112 NA
ATOM     18  C   UNL     1      36.186 -23.603 -15.368  0.00  0.00    +0.161 C 
ATOM     19  C   UNL     1      38.316 -24.720 -14.877  0.00  0.00    +0.069 C 
ATOM     20  C   UNL     1      38.088 -24.746 -13.502  0.00  0.00    +0.143 C 
ATOM     21  C   UNL     1      39.512 -25.272 -15.352  0.00  0.00    +0.016 C 
ATOM     22  C   UNL     1      39.004 -25.299 -12.607  0.00  0.00    +0.022 C 
ATOM     23  C   UNL     1      40.441 -25.830 -14.469  0.00  0.00    +0.001 C 
ATOM     24  C   UNL     1      40.188 -25.842 -13.098  0.00  0.00    +0.001 C 
ATOM     25  H   UNL     1      37.603 -24.172 -16.723  0.00  0.00    +0.154 HD
ENDBRANCH   7  18
BRANCH   8  26
ATOM     26  O   UNL     1      37.115 -21.984 -17.591  0.00  0.00    -0.505 OA
ATOM     27  H   UNL     1      37.450 -21.823 -18.452  0.00  0.00    +0.292 HD
ENDBRANCH   8  26
BRANCH   3  28
ATOM     28  C   UNL     1      31.561 -23.064 -17.251  0.00  0.00    +0.109 C 
BRANCH  28  29
ATOM     29  C   UNL     1      30.970 -22.721 -15.889  0.00  0.00    +0.025 C 
BRANCH  29  30
ATOM     30  C   UNL     1      29.594 -23.284 -15.693  0.00  0.00    +0.002 C 
ATOM     31  C   UNL     1      28.408 -22.366 -15.587  0.00  0.00    +0.000 C 
ATOM     32  C   UNL     1      28.587 -23.226 -16.807  0.00  0.00    +0.000 C 
ENDBRANCH  29  30
ENDBRANCH  28  29
ENDBRANCH   3  28
TORSDOF 5
ENDMDL
MODEL 8
REMARK VINA RESULT:      -9.4      5.875     10.780
REMARK  Name = 135435181
REMARK  5 active torsions:
REMARK  status: ('A' for Active; 'I' for Inactive)
REMARK    1  A    between atoms: N_3  and  C_28
REMARK    2  A    between atoms: C_7  and  C_18
REMARK    3  A    between atoms: C_8  and  O_26
REMARK    4  A    between atoms: C_28  and  C_29
REMARK    5  A    between atoms: C_29  and  C_30
REMARK                            x       y       z     vdW  Elec       q    Type
REMARK                         _______ _______ _______ _____ _____    ______ ____
ROOT
ATOM      1  F   UNL     1      38.411 -22.992 -15.468  0.00  0.00    -0.204 F 
ATOM      2  O   UNL     1      32.673 -21.175 -20.182  0.00  0.00    -0.267 OA
ATOM      3  N   UNL     1      33.752 -22.289 -18.458  0.00  0.00    -0.295 N 
ATOM      4  C   UNL     1      34.939 -22.478 -17.687  0.00  0.00    +0.065 A 
ATOM      5  C   UNL     1      33.682 -21.362 -19.498  0.00  0.00    +0.267 A 
ATOM      6  C   UNL     1      36.077 -21.709 -17.979  0.00  0.00    +0.052 A 
ATOM      7  C   UNL     1      34.909 -20.549 -19.794  0.00  0.00    +0.123 A 
ATOM      8  C   UNL     1      36.032 -20.723 -19.073  0.00  0.00    +0.142 A 
ATOM      9  C   UNL     1      34.998 -23.415 -16.638  0.00  0.00    +0.020 C 
ATOM     10  C   UNL     1      37.246 -21.898 -17.216  0.00  0.00    +0.034 C 
ATOM     11  C   UNL     1      36.164 -23.589 -15.891  0.00  0.00    +0.031 C 
ATOM     12  C   UNL     1      37.288 -22.830 -16.180  0.00  0.00    +0.140 C 
ENDROOT
BRANCH   7  18
ATOM     13  S   UNL     1      34.914 -19.111 -23.426  0.00  0.00    +0.103 S 
ATOM     14  O   UNL     1      33.704 -19.403 -24.174  0.00  0.00    -0.146 OA
ATOM     15  O   UNL     1      36.212 -19.162 -24.075  0.00  0.00    -0.146 OA
ATOM     16  N   UNL     1      34.717 -18.222 -20.561  0.00  0.00    -0.295 N 
ATOM     17  N   UNL     1      34.951 -20.050 -22.098  0.00  0.00    -0.112 NA
ATOM     18  C   UNL     1      34.858 -19.559 -20.888  0.00  0.00    +0.161 C 
ATOM     19  C   UNL     1      34.654 -17.192 -21.503  0.00  0.00    +0.069 C 
ATOM     20  C   UNL     1      34.732 -17.447 -22.871  0.00  0.00    +0.143 C 
ATOM     21  C   UNL     1      34.509 -15.860 -21.094  0.00  0.00    +0.016 C 
ATOM     22  C   UNL     1      34.670 -16.430 -23.823  0.00  0.00    +0.022 C 
ATOM     23  C   UNL     1      34.444 -14.827 -22.034  0.00  0.00    +0.001 C 
ATOM     24  C   UNL     1      34.526 -15.112 -23.397  0.00  0.00    +0.001 C 
ATOM     25  H   UNL     1      34.659 -17.982 -19.608  0.00  0.00    +0.154 HD
ENDBRANCH   7  18
BRANCH   8  26
ATOM     26  O   UNL     1      37.213 -20.037 -19.261  0.00  0.00    -0.505 OA
ATOM     27  H   UNL     1      37.833 -20.335 -19.899  0.00  0.00    +0.292 HD
ENDBRANCH   8  26
BRANCH   3  28
ATOM     28  C   UNL     1      32.572 -23.095 -18.149  0.00  0.00    +0.109 C 
BRANCH  28  29
ATOM     29  C   UNL     1      31.717 -22.471 -17.053  0.00  0.00    +0.025 C 
BRANCH  29  30
ATOM     30  C   UNL     1      31.464 -23.407 -15.909  0.00  0.00    +0.002 C 
ATOM     31  C   UNL     1      31.818 -23.001 -14.505  0.00  0.00    +0.000 C 
ATOM     32  C   UNL     1      30.376 -23.110 -14.915  0.00  0.00    +0.000 C 
ENDBRANCH  29  30
ENDBRANCH  28  29
ENDBRANCH   3  28
TORSDOF 5
ENDMDL
MODEL 9
REMARK VINA RESULT:      -9.3      6.509     10.956
REMARK  Name = 135435181
REMARK  5 active torsions:
REMARK  status: ('A' for Active; 'I' for Inactive)
REMARK    1  A    between atoms: N_3  and  C_28
REMARK    2  A    between atoms: C_7  and  C_18
REMARK    3  A    between atoms: C_8  and  O_26
REMARK    4  A    between atoms: C_28  and  C_29
REMARK    5  A    between atoms: C_29  and  C_30
REMARK                            x       y       z     vdW  Elec       q    Type
REMARK                         _______ _______ _______ _____ _____    ______ ____
ROOT
ATOM      1  F   UNL     1      38.540 -23.091 -15.386  0.00  0.00    -0.204 F 
ATOM      2  O   UNL     1      32.621 -21.404 -19.921  0.00  0.00    -0.267 OA
ATOM      3  N   UNL     1      33.780 -22.500 -18.237  0.00  0.00    -0.295 N 
ATOM      4  C   UNL     1      34.992 -22.660 -17.501  0.00  0.00    +0.065 A 
ATOM      5  C   UNL     1      33.653 -21.567 -19.267  0.00  0.00    +0.267 A 
ATOM      6  C   UNL     1      36.100 -21.857 -17.819  0.00  0.00    +0.052 A 
ATOM      7  C   UNL     1      34.848 -20.718 -19.591  0.00  0.00    +0.123 A 
ATOM      8  C   UNL     1      35.995 -20.864 -18.903  0.00  0.00    +0.142 A 
ATOM      9  C   UNL     1      35.109 -23.603 -16.462  0.00  0.00    +0.020 C 
ATOM     10  C   UNL     1      37.295 -22.017 -17.091  0.00  0.00    +0.034 C 
ATOM     11  C   UNL     1      36.299 -23.749 -15.750  0.00  0.00    +0.031 C 
ATOM     12  C   UNL     1      37.393 -22.956 -16.065  0.00  0.00    +0.140 C 
ENDROOT
BRANCH   7  18
ATOM     13  S   UNL     1      34.438 -17.250 -21.342  0.00  0.00    +0.103 S 
ATOM     14  O   UNL     1      35.598 -16.386 -21.213  0.00  0.00    -0.146 OA
ATOM     15  O   UNL     1      33.097 -16.701 -21.248  0.00  0.00    -0.146 OA
ATOM     16  N   UNL     1      34.811 -20.163 -21.985  0.00  0.00    -0.295 N 
ATOM     17  N   UNL     1      34.577 -18.481 -20.288  0.00  0.00    -0.112 NA
ATOM     18  C   UNL     1      34.737 -19.722 -20.675  0.00  0.00    +0.161 C 
ATOM     19  C   UNL     1      34.722 -19.320 -23.096  0.00  0.00    +0.069 C 
ATOM     20  C   UNL     1      34.548 -17.945 -22.958  0.00  0.00    +0.143 C 
ATOM     21  C   UNL     1      34.807 -19.841 -24.394  0.00  0.00    +0.016 C 
ATOM     22  C   UNL     1      34.459 -17.092 -24.059  0.00  0.00    +0.022 C 
ATOM     23  C   UNL     1      34.720 -19.001 -25.508  0.00  0.00    +0.001 C 
ATOM     24  C   UNL     1      34.545 -17.629 -25.340  0.00  0.00    +0.001 C 
ATOM     25  H   UNL     1      34.931 -21.126 -22.143  0.00  0.00    +0.154 HD
ENDBRANCH   7  18
BRANCH   8  26
ATOM     26  O   UNL     1      37.151 -20.144 -19.119  0.00  0.00    -0.505 OA
ATOM     27  H   UNL     1      37.760 -20.419 -19.777  0.00  0.00    +0.292 HD
ENDBRANCH   8  26
BRANCH   3  28
ATOM     28  C   UNL     1      32.632 -23.341 -17.902  0.00  0.00    +0.109 C 
BRANCH  28  29
ATOM     29  C   UNL     1      31.713 -22.684 -16.879  0.00  0.00    +0.025 C 
BRANCH  29  30
ATOM     30  C   UNL     1      31.501 -23.529 -15.659  0.00  0.00    +0.002 C 
ATOM     31  C   UNL     1      31.794 -22.974 -14.293  0.00  0.00    +0.000 C 
ATOM     32  C   UNL     1      30.373 -23.224 -14.713  0.00  0.00    +0.000 C 
ENDBRANCH  29  30
ENDBRANCH  28  29
ENDBRANCH   3  28
TORSDOF 5
ENDMDL
