MODEL 1
REMARK VINA RESULT:     -11.1      0.000      0.000
REMARK  Name = 16744441
REMARK  9 active torsions:
REMARK  status: ('A' for Active; 'I' for Inactive)
REMARK    1  A    between atoms: N_1  and  C_26
REMARK    2  A    between atoms: C_9  and  O_21
REMARK    3  A    between atoms: N_10  and  C_12
REMARK    4  A    between atoms: C_12  and  C_13
REMARK    5  A    between atoms: C_13  and  N_15
REMARK    6  A    between atoms: O_21  and  C_22
REMARK    7  A    between atoms: C_22  and  C_23
REMARK    8  A    between atoms: C_23  and  C_24
REMARK    9  A    between atoms: C_26  and  C_29
REMARK                            x       y       z     vdW  Elec       q    Type
REMARK                         _______ _______ _______ _____ _____    ______ ____
ROOT
ATOM      1  N   UNL     1      34.866 -19.569 -21.214  0.00  0.00    -0.256 N 
ATOM      2  N   UNL     1      34.862 -22.209 -18.182  0.00  0.00    -0.294 NA
ATOM      3  N   UNL     1      32.854 -20.371 -20.687  0.00  0.00    -0.240 NA
ATOM      4  N   UNL     1      36.227 -20.752 -19.588  0.00  0.00    -0.294 NA
ATOM      5  C   UNL     1      33.726 -21.843 -18.826  0.00  0.00    +0.217 C 
ATOM      6  C   UNL     1      33.805 -20.923 -19.866  0.00  0.00    +0.167 C 
ATOM      7  C   UNL     1      35.065 -20.436 -20.178  0.00  0.00    +0.222 C 
ATOM      8  C   UNL     1      33.522 -19.563 -21.484  0.00  0.00    +0.222 C 
ATOM      9  C   UNL     1      36.024 -21.649 -18.597  0.00  0.00    +0.313 C 
ATOM     10  N   UNL     1      32.507 -22.380 -18.446  0.00  0.00    -0.308 N 
ATOM     11  H   UNL     1      31.701 -22.092 -18.934  0.00  0.00    +0.149 HD
ENDROOT
BRANCH  10  12
ATOM     12  C   UNL     1      32.350 -23.337 -17.377  0.00  0.00    +0.066 C 
BRANCH  12  13
ATOM     13  C   UNL     1      31.157 -22.949 -16.515  0.00  0.00    -0.056 C 
BRANCH  13  15
ATOM     14  O   UNL     1      32.037 -25.196 -13.080  0.00  0.00    -0.358 OA
ATOM     15  N   UNL     1      31.396 -23.318 -15.120  0.00  0.00    +0.391 N 
ATOM     16  C   UNL     1      30.427 -24.330 -14.675  0.00  0.00    -0.045 C 
ATOM     17  C   UNL     1      32.765 -23.818 -14.940  0.00  0.00    -0.045 C 
ATOM     18  C   UNL     1      30.704 -24.706 -13.222  0.00  0.00    +0.119 C 
ATOM     19  C   UNL     1      32.987 -24.207 -13.481  0.00  0.00    +0.119 C 
ATOM     20  H   UNL     1      31.277 -22.479 -14.551  0.00  0.00    -0.079 HD
ENDBRANCH  13  15
ENDBRANCH  12  13
ENDBRANCH  10  12
BRANCH   9  21
ATOM     21  O   UNL     1      37.153 -22.052 -17.919  0.00  0.00    -0.400 OA
BRANCH  21  22
ATOM     22  C   UNL     1      37.216 -21.719 -16.541  0.00  0.00    +0.223 C 
BRANCH  22  23
ATOM     23  C   UNL     1      37.610 -22.960 -15.752  0.00  0.00    +0.049 C 
BRANCH  23  24
ATOM     24  C   UNL     1      36.396 -23.643 -15.131  0.00  0.00    +0.004 C 
ATOM     25  C   UNL     1      36.620 -25.138 -14.967  0.00  0.00    +0.000 C 
ENDBRANCH  23  24
ENDBRANCH  22  23
ENDBRANCH  21  22
ENDBRANCH   9  21
BRANCH   1  26
ATOM     26  C   UNL     1      35.872 -18.793 -21.898  0.00  0.00    +0.126 C 
BRANCH  26  29
ATOM     27  F   UNL     1      35.241 -16.079 -21.403  0.00  0.00    -0.204 F 
ATOM     28  F   UNL     1      35.247 -19.661 -24.517  0.00  0.00    -0.204 F 
ATOM     29  C   UNL     1      35.259 -17.891 -22.935  0.00  0.00    +0.053 C 
ATOM     30  C   UNL     1      34.973 -16.562 -22.623  0.00  0.00    +0.140 C 
ATOM     31  C   UNL     1      34.975 -18.385 -24.209  0.00  0.00    +0.140 C 
ATOM     32  C   UNL     1      34.404 -15.727 -23.585  0.00  0.00    +0.030 C 
ATOM     33  C   UNL     1      34.406 -17.551 -25.170  0.00  0.00    +0.030 C 
ATOM     34  C   UNL     1      34.121 -16.222 -24.858  0.00  0.00    +0.005 C 
ENDBRANCH  26  29
ENDBRANCH   1  26
TORSDOF 9
ENDMDL
MODEL 2
REMARK VINA RESULT:     -11.0      1.161      2.090
REMARK  Name = 16744441
REMARK  9 active torsions:
REMARK  status: ('A' for Active; 'I' for Inactive)
REMARK    1  A    between atoms: N_1  and  C_26
REMARK    2  A    between atoms: C_9  and  O_21
REMARK    3  A    between atoms: N_10  and  C_12
REMARK    4  A    between atoms: C_12  and  C_13
REMARK    5  A    between atoms: C_13  and  N_15
REMARK    6  A    between atoms: O_21  and  C_22
REMARK    7  A    between atoms: C_22  and  C_23
REMARK    8  A    between atoms: C_23  and  C_24
REMARK    9  A    between atoms: C_26  and  C_29
REMARK                            x       y       z     vdW  Elec       q    Type
REMARK                         _______ _______ _______ _____ _____    ______ ____
ROOT
ATOM      1  N   UNL     1      34.818 -19.727 -21.059  0.00  0.00    -0.256 N 
ATOM      2  N   UNL     1      34.828 -22.390 -18.047  0.00  0.00    -0.294 NA
ATOM      3  N   UNL     1      32.804 -20.508 -20.506  0.00  0.00    -0.240 NA
ATOM      4  N   UNL     1      36.189 -20.940 -19.463  0.00  0.00    -0.294 NA
ATOM      5  C   UNL     1      33.687 -22.005 -18.670  0.00  0.00    +0.217 C 
ATOM      6  C   UNL     1      33.761 -21.078 -19.704  0.00  0.00    +0.167 C 
ATOM      7  C   UNL     1      35.022 -20.605 -20.033  0.00  0.00    +0.222 C 
ATOM      8  C   UNL     1      33.470 -19.702 -21.307  0.00  0.00    +0.222 C 
ATOM      9  C   UNL     1      35.990 -21.842 -18.476  0.00  0.00    +0.313 C 
ATOM     10  N   UNL     1      32.467 -22.530 -18.275  0.00  0.00    -0.308 N 
ATOM     11  H   UNL     1      31.657 -22.229 -18.748  0.00  0.00    +0.149 HD
ENDROOT
BRANCH  10  12
ATOM     12  C   UNL     1      32.315 -23.494 -17.212  0.00  0.00    +0.066 C 
BRANCH  12  13
ATOM     13  C   UNL     1      31.987 -22.773 -15.911  0.00  0.00    -0.056 C 
BRANCH  13  15
ATOM     14  O   UNL     1      28.196 -24.560 -15.688  0.00  0.00    -0.358 OA
ATOM     15  N   UNL     1      30.665 -23.168 -15.429  0.00  0.00    +0.391 N 
ATOM     16  C   UNL     1      29.616 -22.707 -16.349  0.00  0.00    -0.045 C 
ATOM     17  C   UNL     1      30.584 -24.626 -15.263  0.00  0.00    -0.045 C 
ATOM     18  C   UNL     1      28.247 -23.141 -15.831  0.00  0.00    +0.119 C 
ATOM     19  C   UNL     1      29.193 -25.015 -14.771  0.00  0.00    +0.119 C 
ATOM     20  H   UNL     1      30.519 -22.727 -14.521  0.00  0.00    -0.079 HD
ENDBRANCH  13  15
ENDBRANCH  12  13
ENDBRANCH  10  12
BRANCH   9  21
ATOM     21  O   UNL     1      37.125 -22.265 -17.819  0.00  0.00    -0.400 OA
BRANCH  21  22
ATOM     22  C   UNL     1      37.258 -21.861 -16.466  0.00  0.00    +0.223 C 
BRANCH  22  23
ATOM     23  C   UNL     1      37.305 -23.102 -15.585  0.00  0.00    +0.049 C 
BRANCH  23  24
ATOM     24  C   UNL     1      36.045 -23.239 -14.736  0.00  0.00    +0.004 C 
ATOM     25  C   UNL     1      35.303 -24.530 -15.043  0.00  0.00    +0.000 C 
ENDBRANCH  23  24
ENDBRANCH  22  23
ENDBRANCH  21  22
ENDBRANCH   9  21
BRANCH   1  26
ATOM     26  C   UNL     1      35.822 -18.958 -21.752  0.00  0.00    +0.126 C 
BRANCH  26  29
ATOM     27  F   UNL     1      35.187 -20.010 -24.302  0.00  0.00    -0.204 F 
ATOM     28  F   UNL     1      35.218 -16.210 -21.458  0.00  0.00    -0.204 F 
ATOM     29  C   UNL     1      35.217 -18.130 -22.853  0.00  0.00    +0.053 C 
ATOM     30  C   UNL     1      34.929 -18.713 -24.087  0.00  0.00    +0.140 C 
ATOM     31  C   UNL     1      34.945 -16.778 -22.641  0.00  0.00    +0.140 C 
ATOM     32  C   UNL     1      34.369 -17.945 -25.108  0.00  0.00    +0.030 C 
ATOM     33  C   UNL     1      34.385 -16.010 -23.661  0.00  0.00    +0.030 C 
ATOM     34  C   UNL     1      34.097 -16.594 -24.895  0.00  0.00    +0.005 C 
ENDBRANCH  26  29
ENDBRANCH   1  26
TORSDOF 9
ENDMDL
MODEL 3
REMARK VINA RESULT:     -10.6      5.452     11.023
REMARK  Name = 16744441
REMARK  9 active torsions:
REMARK  status: ('A' for Active; 'I' for Inactive)
REMARK    1  A    between atoms: N_1  and  C_26
REMARK    2  A    between atoms: C_9  and  O_21
REMARK    3  A    between atoms: N_10  and  C_12
REMARK    4  A    between atoms: C_12  and  C_13
REMARK    5  A    between atoms: C_13  and  N_15
REMARK    6  A    between atoms: O_21  and  C_22
REMARK    7  A    between atoms: C_22  and  C_23
REMARK    8  A    between atoms: C_23  and  C_24
REMARK    9  A    between atoms: C_26  and  C_29
REMARK                            x       y       z     vdW  Elec       q    Type
REMARK                         _______ _______ _______ _____ _____    ______ ____
ROOT
ATOM      1  N   UNL     1      35.147 -17.357 -21.881  0.00  0.00    -0.256 N 
ATOM      2  N   UNL     1      33.288 -14.530 -24.051  0.00  0.00    -0.294 NA
ATOM      3  N   UNL     1      34.324 -15.664 -20.687  0.00  0.00    -0.240 NA
ATOM      4  N   UNL     1      34.489 -16.654 -24.110  0.00  0.00    -0.294 NA
ATOM      5  C   UNL     1      33.400 -14.451 -22.703  0.00  0.00    +0.217 C 
ATOM      6  C   UNL     1      34.057 -15.468 -22.018  0.00  0.00    +0.167 C 
ATOM      7  C   UNL     1      34.562 -16.511 -22.779  0.00  0.00    +0.222 C 
ATOM      8  C   UNL     1      34.978 -16.807 -20.637  0.00  0.00    +0.222 C 
ATOM      9  C   UNL     1      33.832 -15.610 -24.662  0.00  0.00    +0.313 C 
ATOM     10  N   UNL     1      32.863 -13.370 -22.022  0.00  0.00    -0.308 N 
ATOM     11  H   UNL     1      32.962 -13.344 -21.042  0.00  0.00    +0.149 HD
ENDROOT
BRANCH  10  12
ATOM     12  C   UNL     1      32.170 -12.280 -22.665  0.00  0.00    +0.066 C 
BRANCH  12  13
ATOM     13  C   UNL     1      31.278 -11.574 -21.654  0.00  0.00    -0.056 C 
BRANCH  13  15
ATOM     14  O   UNL     1      33.212  -7.855 -21.440  0.00  0.00    -0.358 OA
ATOM     15  N   UNL     1      31.522 -10.133 -21.678  0.00  0.00    +0.391 N 
ATOM     16  C   UNL     1      31.998  -9.663 -20.370  0.00  0.00    -0.045 C 
ATOM     17  C   UNL     1      32.497  -9.787 -22.722  0.00  0.00    -0.045 C 
ATOM     18  C   UNL     1      32.257  -8.159 -20.424  0.00  0.00    +0.119 C 
ATOM     19  C   UNL     1      32.744  -8.281 -22.721  0.00  0.00    +0.119 C 
ATOM     20  H   UNL     1      30.638  -9.670 -21.890  0.00  0.00    -0.079 HD
ENDBRANCH  13  15
ENDBRANCH  12  13
ENDBRANCH  10  12
BRANCH   9  21
ATOM     21  O   UNL     1      33.699 -15.648 -26.033  0.00  0.00    -0.400 OA
BRANCH  21  22
ATOM     22  C   UNL     1      32.792 -14.719 -26.605  0.00  0.00    +0.223 C 
BRANCH  22  23
ATOM     23  C   UNL     1      33.587 -13.635 -27.322  0.00  0.00    +0.049 C 
BRANCH  23  24
ATOM     24  C   UNL     1      33.185 -12.239 -26.854  0.00  0.00    +0.004 C 
ATOM     25  C   UNL     1      34.173 -11.685 -25.839  0.00  0.00    +0.000 C 
ENDBRANCH  23  24
ENDBRANCH  22  23
ENDBRANCH  21  22
ENDBRANCH   9  21
BRANCH   1  26
ATOM     26  C   UNL     1      35.813 -18.603 -22.174  0.00  0.00    +0.126 C 
BRANCH  26  29
ATOM     27  F   UNL     1      33.209 -19.592 -21.676  0.00  0.00    -0.204 F 
ATOM     28  F   UNL     1      37.812 -19.743 -20.527  0.00  0.00    -0.204 F 
ATOM     29  C   UNL     1      35.518 -19.643 -21.127  0.00  0.00    +0.053 C 
ATOM     30  C   UNL     1      34.209 -20.086 -20.933  0.00  0.00    +0.140 C 
ATOM     31  C   UNL     1      36.552 -20.163 -20.348  0.00  0.00    +0.140 C 
ATOM     32  C   UNL     1      33.935 -21.049 -19.963  0.00  0.00    +0.030 C 
ATOM     33  C   UNL     1      36.278 -21.126 -19.377  0.00  0.00    +0.030 C 
ATOM     34  C   UNL     1      34.970 -21.569 -19.184  0.00  0.00    +0.005 C 
ENDBRANCH  26  29
ENDBRANCH   1  26
TORSDOF 9
ENDMDL
MODEL 4
REMARK VINA RESULT:     -10.6      5.456     11.019
REMARK  Name = 16744441
REMARK  9 active torsions:
REMARK  status: ('A' for Active; 'I' for Inactive)
REMARK    1  A    between atoms: N_1  and  C_26
REMARK    2  A    between atoms: C_9  and  O_21
REMARK    3  A    between atoms: N_10  and  C_12
REMARK    4  A    between atoms: C_12  and  C_13
REMARK    5  A    between atoms: C_13  and  N_15
REMARK    6  A    between atoms: O_21  and  C_22
REMARK    7  A    between atoms: C_22  and  C_23
REMARK    8  A    between atoms: C_23  and  C_24
REMARK    9  A    between atoms: C_26  and  C_29
REMARK                            x       y       z     vdW  Elec       q    Type
REMARK                         _______ _______ _______ _____ _____    ______ ____
ROOT
ATOM      1  N   UNL     1      35.139 -17.356 -21.860  0.00  0.00    -0.256 N 
ATOM      2  N   UNL     1      33.299 -14.526 -24.043  0.00  0.00    -0.294 NA
ATOM      3  N   UNL     1      34.315 -15.659 -20.672  0.00  0.00    -0.240 NA
ATOM      4  N   UNL     1      34.493 -16.654 -24.093  0.00  0.00    -0.294 NA
ATOM      5  C   UNL     1      33.405 -14.445 -22.694  0.00  0.00    +0.217 C 
ATOM      6  C   UNL     1      34.055 -15.463 -22.005  0.00  0.00    +0.167 C 
ATOM      7  C   UNL     1      34.560 -16.509 -22.761  0.00  0.00    +0.222 C 
ATOM      8  C   UNL     1      34.965 -16.803 -20.618  0.00  0.00    +0.222 C 
ATOM      9  C   UNL     1      33.841 -15.609 -24.649  0.00  0.00    +0.313 C 
ATOM     10  N   UNL     1      32.868 -13.362 -22.017  0.00  0.00    -0.308 N 
ATOM     11  H   UNL     1      32.962 -13.335 -21.036  0.00  0.00    +0.149 HD
ENDROOT
BRANCH  10  12
ATOM     12  C   UNL     1      32.181 -12.271 -22.664  0.00  0.00    +0.066 C 
BRANCH  12  13
ATOM     13  C   UNL     1      31.287 -11.560 -21.658  0.00  0.00    -0.056 C 
BRANCH  13  15
ATOM     14  O   UNL     1      33.214  -7.836 -21.461  0.00  0.00    -0.358 OA
ATOM     15  N   UNL     1      31.529 -10.118 -21.691  0.00  0.00    +0.391 N 
ATOM     16  C   UNL     1      31.999  -9.639 -20.384  0.00  0.00    -0.045 C 
ATOM     17  C   UNL     1      32.506  -9.777 -22.734  0.00  0.00    -0.045 C 
ATOM     18  C   UNL     1      32.256  -8.136 -20.446  0.00  0.00    +0.119 C 
ATOM     19  C   UNL     1      32.751  -8.271 -22.741  0.00  0.00    +0.119 C 
ATOM     20  H   UNL     1      30.645  -9.659 -21.908  0.00  0.00    -0.079 HD
ENDBRANCH  13  15
ENDBRANCH  12  13
ENDBRANCH  10  12
BRANCH   9  21
ATOM     21  O   UNL     1      33.715 -15.647 -26.021  0.00  0.00    -0.400 OA
BRANCH  21  22
ATOM     22  C   UNL     1      32.797 -14.732 -26.597  0.00  0.00    +0.223 C 
BRANCH  22  23
ATOM     23  C   UNL     1      33.576 -13.661 -27.348  0.00  0.00    +0.049 C 
BRANCH  23  24
ATOM     24  C   UNL     1      33.176 -12.257 -26.905  0.00  0.00    +0.004 C 
ATOM     25  C   UNL     1      34.148 -11.700 -25.876  0.00  0.00    +0.000 C 
ENDBRANCH  23  24
ENDBRANCH  22  23
ENDBRANCH  21  22
ENDBRANCH   9  21
BRANCH   1  26
ATOM     26  C   UNL     1      35.802 -18.604 -22.148  0.00  0.00    +0.126 C 
BRANCH  26  29
ATOM     27  F   UNL     1      37.769 -19.787 -20.492  0.00  0.00    -0.204 F 
ATOM     28  F   UNL     1      33.179 -19.559 -21.682  0.00  0.00    -0.204 F 
ATOM     29  C   UNL     1      35.482 -19.648 -21.112  0.00  0.00    +0.053 C 
ATOM     30  C   UNL     1      36.501 -20.190 -20.329  0.00  0.00    +0.140 C 
ATOM     31  C   UNL     1      34.166 -20.074 -20.934  0.00  0.00    +0.140 C 
ATOM     32  C   UNL     1      36.205 -21.157 -19.370  0.00  0.00    +0.030 C 
ATOM     33  C   UNL     1      33.869 -21.042 -19.975  0.00  0.00    +0.030 C 
ATOM     34  C   UNL     1      34.888 -21.584 -19.193  0.00  0.00    +0.005 C 
ENDBRANCH  26  29
ENDBRANCH   1  26
TORSDOF 9
ENDMDL
MODEL 5
REMARK VINA RESULT:     -10.3      2.629      5.263
REMARK  Name = 16744441
REMARK  9 active torsions:
REMARK  status: ('A' for Active; 'I' for Inactive)
REMARK    1  A    between atoms: N_1  and  C_26
REMARK    2  A    between atoms: C_9  and  O_21
REMARK    3  A    between atoms: N_10  and  C_12
REMARK    4  A    between atoms: C_12  and  C_13
REMARK    5  A    between atoms: C_13  and  N_15
REMARK    6  A    between atoms: O_21  and  C_22
REMARK    7  A    between atoms: C_22  and  C_23
REMARK    8  A    between atoms: C_23  and  C_24
REMARK    9  A    between atoms: C_26  and  C_29
REMARK                            x       y       z     vdW  Elec       q    Type
REMARK                         _______ _______ _______ _____ _____    ______ ____
ROOT
ATOM      1  N   UNL     1      35.709 -21.990 -18.828  0.00  0.00    -0.256 N 
ATOM      2  N   UNL     1      33.720 -23.353 -15.612  0.00  0.00    -0.294 NA
ATOM      3  N   UNL     1      36.886 -21.973 -16.935  0.00  0.00    -0.240 NA
ATOM      4  N   UNL     1      33.610 -22.893 -18.006  0.00  0.00    -0.294 NA
ATOM      5  C   UNL     1      35.002 -22.920 -15.540  0.00  0.00    +0.217 C 
ATOM      6  C   UNL     1      35.627 -22.462 -16.696  0.00  0.00    +0.167 C 
ATOM      7  C   UNL     1      34.878 -22.481 -17.862  0.00  0.00    +0.222 C 
ATOM      8  C   UNL     1      36.905 -21.700 -18.223  0.00  0.00    +0.222 C 
ATOM      9  C   UNL     1      33.113 -23.313 -16.822  0.00  0.00    +0.313 C 
ATOM     10  N   UNL     1      35.677 -22.937 -14.330  0.00  0.00    -0.308 N 
ATOM     11  H   UNL     1      36.608 -22.616 -14.313  0.00  0.00    +0.149 HD
ENDROOT
BRANCH  10  12
ATOM     12  C   UNL     1      35.094 -23.397 -13.093  0.00  0.00    +0.066 C 
BRANCH  12  13
ATOM     13  C   UNL     1      35.980 -24.471 -12.478  0.00  0.00    -0.056 C 
BRANCH  13  15
ATOM     14  O   UNL     1      38.985 -26.718 -14.359  0.00  0.00    -0.358 OA
ATOM     15  N   UNL     1      36.996 -24.903 -13.436  0.00  0.00    +0.391 N 
ATOM     16  C   UNL     1      38.315 -24.991 -12.793  0.00  0.00    -0.045 C 
ATOM     17  C   UNL     1      36.638 -26.200 -14.027  0.00  0.00    -0.045 C 
ATOM     18  C   UNL     1      39.355 -25.454 -13.809  0.00  0.00    +0.119 C 
ATOM     19  C   UNL     1      37.718 -26.635 -15.013  0.00  0.00    +0.119 C 
ATOM     20  H   UNL     1      37.041 -24.206 -14.179  0.00  0.00    -0.079 HD
ENDBRANCH  13  15
ENDBRANCH  12  13
ENDBRANCH  10  12
BRANCH   9  21
ATOM     21  O   UNL     1      31.809 -23.758 -16.848  0.00  0.00    -0.400 OA
BRANCH  21  22
ATOM     22  C   UNL     1      30.909 -23.129 -15.950  0.00  0.00    +0.223 C 
BRANCH  22  23
ATOM     23  C   UNL     1      29.785 -24.102 -15.619  0.00  0.00    +0.049 C 
BRANCH  23  24
ATOM     24  C   UNL     1      30.295 -25.307 -14.835  0.00  0.00    +0.004 C 
ATOM     25  C   UNL     1      31.057 -24.880 -13.590  0.00  0.00    +0.000 C 
ENDBRANCH  23  24
ENDBRANCH  22  23
ENDBRANCH  21  22
ENDBRANCH   9  21
BRANCH   1  26
ATOM     26  C   UNL     1      35.402 -21.815 -20.226  0.00  0.00    +0.126 C 
BRANCH  26  29
ATOM     27  F   UNL     1      37.304 -19.774 -20.701  0.00  0.00    -0.204 F 
ATOM     28  F   UNL     1      32.715 -20.940 -20.373  0.00  0.00    -0.204 F 
ATOM     29  C   UNL     1      35.019 -20.391 -20.530  0.00  0.00    +0.053 C 
ATOM     30  C   UNL     1      36.009 -19.435 -20.754  0.00  0.00    +0.140 C 
ATOM     31  C   UNL     1      33.673 -20.027 -20.587  0.00  0.00    +0.140 C 
ATOM     32  C   UNL     1      35.654 -18.116 -21.034  0.00  0.00    +0.030 C 
ATOM     33  C   UNL     1      33.318 -18.709 -20.867  0.00  0.00    +0.030 C 
ATOM     34  C   UNL     1      34.308 -17.752 -21.090  0.00  0.00    +0.005 C 
ENDBRANCH  26  29
ENDBRANCH   1  26
TORSDOF 9
ENDMDL
MODEL 6
REMARK VINA RESULT:     -10.3      1.981      4.141
REMARK  Name = 16744441
REMARK  9 active torsions:
REMARK  status: ('A' for Active; 'I' for Inactive)
REMARK    1  A    between atoms: N_1  and  C_26
REMARK    2  A    between atoms: C_9  and  O_21
REMARK    3  A    between atoms: N_10  and  C_12
REMARK    4  A    between atoms: C_12  and  C_13
REMARK    5  A    between atoms: C_13  and  N_15
REMARK    6  A    between atoms: O_21  and  C_22
REMARK    7  A    between atoms: C_22  and  C_23
REMARK    8  A    between atoms: C_23  and  C_24
REMARK    9  A    between atoms: C_26  and  C_29
REMARK                            x       y       z     vdW  Elec       q    Type
REMARK                         _______ _______ _______ _____ _____    ______ ____
ROOT
ATOM      1  N   UNL     1      34.911 -20.205 -20.610  0.00  0.00    -0.256 N 
ATOM      2  N   UNL     1      35.043 -22.817 -17.557  0.00  0.00    -0.294 NA
ATOM      3  N   UNL     1      36.872 -20.295 -19.552  0.00  0.00    -0.240 NA
ATOM      4  N   UNL     1      33.670 -21.853 -19.330  0.00  0.00    -0.294 NA
ATOM      5  C   UNL     1      36.110 -22.057 -17.907  0.00  0.00    +0.217 C 
ATOM      6  C   UNL     1      35.990 -21.175 -18.975  0.00  0.00    +0.167 C 
ATOM      7  C   UNL     1      34.764 -21.134 -19.620  0.00  0.00    +0.222 C 
ATOM      8  C   UNL     1      36.195 -19.730 -20.530  0.00  0.00    +0.222 C 
ATOM      9  C   UNL     1      33.907 -22.670 -18.280  0.00  0.00    +0.313 C 
ATOM     10  N   UNL     1      37.301 -22.164 -17.206  0.00  0.00    -0.308 N 
ATOM     11  H   UNL     1      38.056 -21.597 -17.486  0.00  0.00    +0.149 HD
ENDROOT
BRANCH  10  12
ATOM     12  C   UNL     1      37.497 -23.056 -16.089  0.00  0.00    +0.066 C 
BRANCH  12  13
ATOM     13  C   UNL     1      36.897 -22.441 -14.832  0.00  0.00    -0.056 C 
BRANCH  13  15
ATOM     14  O   UNL     1      36.650 -25.857 -12.405  0.00  0.00    -0.358 OA
ATOM     15  N   UNL     1      37.046 -23.353 -13.698  0.00  0.00    +0.391 N 
ATOM     16  C   UNL     1      35.732 -23.746 -13.170  0.00  0.00    -0.045 C 
ATOM     17  C   UNL     1      37.810 -24.547 -14.086  0.00  0.00    -0.045 C 
ATOM     18  C   UNL     1      35.913 -24.705 -11.997  0.00  0.00    +0.119 C 
ATOM     19  C   UNL     1      37.941 -25.487 -12.892  0.00  0.00    +0.119 C 
ATOM     20  H   UNL     1      37.558 -22.860 -12.967  0.00  0.00    -0.079 HD
ENDBRANCH  13  15
ENDBRANCH  12  13
ENDBRANCH  10  12
BRANCH   9  21
ATOM     21  O   UNL     1      32.847 -23.459 -17.888  0.00  0.00    -0.400 OA
BRANCH  21  22
ATOM     22  C   UNL     1      32.480 -23.389 -16.519  0.00  0.00    +0.223 C 
BRANCH  22  23
ATOM     23  C   UNL     1      31.044 -22.895 -16.420  0.00  0.00    +0.049 C 
BRANCH  23  24
ATOM     24  C   UNL     1      30.539 -22.915 -14.980  0.00  0.00    +0.004 C 
ATOM     25  C   UNL     1      31.686 -23.032 -13.989  0.00  0.00    +0.000 C 
ENDBRANCH  23  24
ENDBRANCH  22  23
ENDBRANCH  21  22
ENDBRANCH   9  21
BRANCH   1  26
ATOM     26  C   UNL     1      33.915 -19.800 -21.571  0.00  0.00    +0.126 C 
BRANCH  26  29
ATOM     27  F   UNL     1      34.897 -19.888 -24.224  0.00  0.00    -0.204 F 
ATOM     28  F   UNL     1      33.820 -17.197 -20.465  0.00  0.00    -0.204 F 
ATOM     29  C   UNL     1      34.348 -18.572 -22.327  0.00  0.00    +0.053 C 
ATOM     30  C   UNL     1      34.823 -18.688 -23.633  0.00  0.00    +0.140 C 
ATOM     31  C   UNL     1      34.276 -17.318 -21.720  0.00  0.00    +0.140 C 
ATOM     32  C   UNL     1      35.225 -17.550 -24.332  0.00  0.00    +0.030 C 
ATOM     33  C   UNL     1      34.678 -16.180 -22.419  0.00  0.00    +0.030 C 
ATOM     34  C   UNL     1      35.153 -16.296 -23.725  0.00  0.00    +0.005 C 
ENDBRANCH  26  29
ENDBRANCH   1  26
TORSDOF 9
ENDMDL
MODEL 7
REMARK VINA RESULT:     -10.1      7.396     11.693
REMARK  Name = 16744441
REMARK  9 active torsions:
REMARK  status: ('A' for Active; 'I' for Inactive)
REMARK    1  A    between atoms: N_1  and  C_26
REMARK    2  A    between atoms: C_9  and  O_21
REMARK    3  A    between atoms: N_10  and  C_12
REMARK    4  A    between atoms: C_12  and  C_13
REMARK    5  A    between atoms: C_13  and  N_15
REMARK    6  A    between atoms: O_21  and  C_22
REMARK    7  A    between atoms: C_22  and  C_23
REMARK    8  A    between atoms: C_23  and  C_24
REMARK    9  A    between atoms: C_26  and  C_29
REMARK                            x       y       z     vdW  Elec       q    Type
REMARK                         _______ _______ _______ _____ _____    ______ ____
ROOT
ATOM      1  N   UNL     1      34.279  -9.496 -24.017  0.00  0.00    -0.256 N 
ATOM      2  N   UNL     1      32.619 -13.133 -23.605  0.00  0.00    -0.294 NA
ATOM      3  N   UNL     1      34.835 -10.953 -25.609  0.00  0.00    -0.240 NA
ATOM      4  N   UNL     1      32.816 -10.888 -22.668  0.00  0.00    -0.294 NA
ATOM      5  C   UNL     1      33.449 -12.828 -24.632  0.00  0.00    +0.217 C 
ATOM      6  C   UNL     1      33.986 -11.547 -24.710  0.00  0.00    +0.167 C 
ATOM      7  C   UNL     1      33.628 -10.656 -23.711  0.00  0.00    +0.222 C 
ATOM      8  C   UNL     1      34.991  -9.723 -25.166  0.00  0.00    +0.222 C 
ATOM      9  C   UNL     1      32.358 -12.159 -22.700  0.00  0.00    +0.313 C 
ATOM     10  N   UNL     1      33.752 -13.783 -25.589  0.00  0.00    -0.308 N 
ATOM     11  H   UNL     1      34.358 -13.528 -26.323  0.00  0.00    +0.149 HD
ENDROOT
BRANCH  10  12
ATOM     12  C   UNL     1      33.233 -15.129 -25.573  0.00  0.00    +0.066 C 
BRANCH  12  13
ATOM     13  C   UNL     1      34.379 -16.117 -25.408  0.00  0.00    -0.056 C 
BRANCH  13  15
ATOM     14  O   UNL     1      35.464 -18.012 -21.823  0.00  0.00    -0.358 OA
ATOM     15  N   UNL     1      34.295 -16.782 -24.108  0.00  0.00    +0.391 N 
ATOM     16  C   UNL     1      34.877 -18.130 -24.174  0.00  0.00    -0.045 C 
ATOM     17  C   UNL     1      34.976 -15.990 -23.074  0.00  0.00    -0.045 C 
ATOM     18  C   UNL     1      34.789 -18.798 -22.805  0.00  0.00    +0.119 C 
ATOM     19  C   UNL     1      34.886 -16.708 -21.731  0.00  0.00    +0.119 C 
ATOM     20  H   UNL     1      33.309 -16.863 -23.862  0.00  0.00    -0.079 HD
ENDBRANCH  13  15
ENDBRANCH  12  13
ENDBRANCH  10  12
BRANCH   9  21
ATOM     21  O   UNL     1      31.514 -12.514 -21.671  0.00  0.00    -0.400 OA
BRANCH  21  22
ATOM     22  C   UNL     1      30.909 -11.449 -20.955  0.00  0.00    +0.223 C 
BRANCH  22  23
ATOM     23  C   UNL     1      31.489 -11.410 -19.548  0.00  0.00    +0.049 C 
BRANCH  23  24
ATOM     24  C   UNL     1      31.448 -10.003 -18.960  0.00  0.00    +0.004 C 
ATOM     25  C   UNL     1      32.213  -9.015 -19.826  0.00  0.00    +0.000 C 
ENDBRANCH  23  24
ENDBRANCH  22  23
ENDBRANCH  21  22
ENDBRANCH   9  21
BRANCH   1  26
ATOM     26  C   UNL     1      34.228  -8.255 -23.282  0.00  0.00    +0.126 C 
BRANCH  26  29
ATOM     27  F   UNL     1      35.105  -6.304 -25.136  0.00  0.00    -0.204 F 
ATOM     28  F   UNL     1      31.447  -8.184 -22.766  0.00  0.00    -0.204 F 
ATOM     29  C   UNL     1      33.298  -7.268 -23.935  0.00  0.00    +0.053 C 
ATOM     30  C   UNL     1      33.798  -6.332 -24.841  0.00  0.00    +0.140 C 
ATOM     31  C   UNL     1      31.936  -7.288 -23.635  0.00  0.00    +0.140 C 
ATOM     32  C   UNL     1      32.937  -5.417 -25.445  0.00  0.00    +0.030 C 
ATOM     33  C   UNL     1      31.075  -6.373 -24.238  0.00  0.00    +0.030 C 
ATOM     34  C   UNL     1      31.575  -5.438 -25.144  0.00  0.00    +0.005 C 
ENDBRANCH  26  29
ENDBRANCH   1  26
TORSDOF 9
ENDMDL
MODEL 8
REMARK VINA RESULT:     -10.1      5.436      9.834
REMARK  Name = 16744441
REMARK  9 active torsions:
REMARK  status: ('A' for Active; 'I' for Inactive)
REMARK    1  A    between atoms: N_1  and  C_26
REMARK    2  A    between atoms: C_9  and  O_21
REMARK    3  A    between atoms: N_10  and  C_12
REMARK    4  A    between atoms: C_12  and  C_13
REMARK    5  A    between atoms: C_13  and  N_15
REMARK    6  A    between atoms: O_21  and  C_22
REMARK    7  A    between atoms: C_22  and  C_23
REMARK    8  A    between atoms: C_23  and  C_24
REMARK    9  A    between atoms: C_26  and  C_29
REMARK                            x       y       z     vdW  Elec       q    Type
REMARK                         _______ _______ _______ _____ _____    ______ ____
ROOT
ATOM      1  N   UNL     1      31.833 -12.598 -21.647  0.00  0.00    -0.256 N 
ATOM      2  N   UNL     1      33.965 -15.294 -23.734  0.00  0.00    -0.294 NA
ATOM      3  N   UNL     1      32.879 -14.120 -20.398  0.00  0.00    -0.240 NA
ATOM      4  N   UNL     1      32.519 -13.331 -23.859  0.00  0.00    -0.294 NA
ATOM      5  C   UNL     1      33.894 -15.317 -22.380  0.00  0.00    +0.217 C 
ATOM      6  C   UNL     1      33.137 -14.351 -21.726  0.00  0.00    +0.167 C 
ATOM      7  C   UNL     1      32.495 -13.414 -22.521  0.00  0.00    +0.222 C 
ATOM      8  C   UNL     1      32.096 -13.061 -20.384  0.00  0.00    +0.222 C 
ATOM      9  C   UNL     1      33.283 -14.317 -24.379  0.00  0.00    +0.313 C 
ATOM     10  N   UNL     1      34.571 -16.291 -21.665  0.00  0.00    -0.308 N 
ATOM     11  H   UNL     1      34.498 -16.279 -20.682  0.00  0.00    +0.149 HD
ENDROOT
BRANCH  10  12
ATOM     12  C   UNL     1      35.374 -17.323 -22.275  0.00  0.00    +0.066 C 
BRANCH  12  13
ATOM     13  C   UNL     1      34.533 -18.576 -22.473  0.00  0.00    -0.056 C 
BRANCH  13  15
ATOM     14  O   UNL     1      35.811 -20.800 -19.150  0.00  0.00    -0.358 OA
ATOM     15  N   UNL     1      35.044 -19.669 -21.647  0.00  0.00    +0.391 N 
ATOM     16  C   UNL     1      36.290 -19.274 -20.974  0.00  0.00    -0.045 C 
ATOM     17  C   UNL     1      34.045 -20.083 -20.652  0.00  0.00    -0.045 C 
ATOM     18  C   UNL     1      36.798 -20.425 -20.110  0.00  0.00    +0.119 C 
ATOM     19  C   UNL     1      34.605 -21.214 -19.795  0.00  0.00    +0.119 C 
ATOM     20  H   UNL     1      35.241 -20.459 -22.261  0.00  0.00    -0.079 HD
ENDBRANCH  13  15
ENDBRANCH  12  13
ENDBRANCH  10  12
BRANCH   9  21
ATOM     21  O   UNL     1      33.379 -14.333 -25.753  0.00  0.00    -0.400 OA
BRANCH  21  22
ATOM     22  C   UNL     1      32.950 -13.163 -26.431  0.00  0.00    +0.223 C 
BRANCH  22  23
ATOM     23  C   UNL     1      34.174 -12.355 -26.842  0.00  0.00    +0.049 C 
BRANCH  23  24
ATOM     24  C   UNL     1      34.507 -11.276 -25.816  0.00  0.00    +0.004 C 
ATOM     25  C   UNL     1      35.653 -10.394 -26.287  0.00  0.00    +0.000 C 
ENDBRANCH  23  24
ENDBRANCH  22  23
ENDBRANCH  21  22
ENDBRANCH   9  21
BRANCH   1  26
ATOM     26  C   UNL     1      31.018 -11.456 -21.980  0.00  0.00    +0.126 C 
BRANCH  26  29
ATOM     27  F   UNL     1      31.000 -10.239 -19.424  0.00  0.00    -0.204 F 
ATOM     28  F   UNL     1      32.499 -10.030 -23.923  0.00  0.00    -0.204 F 
ATOM     29  C   UNL     1      31.732 -10.165 -21.681  0.00  0.00    +0.053 C 
ATOM     30  C   UNL     1      31.682  -9.621 -20.398  0.00  0.00    +0.140 C 
ATOM     31  C   UNL     1      32.445  -9.513 -22.688  0.00  0.00    +0.140 C 
ATOM     32  C   UNL     1      32.344  -8.424 -20.122  0.00  0.00    +0.030 C 
ATOM     33  C   UNL     1      33.106  -8.317 -22.412  0.00  0.00    +0.030 C 
ATOM     34  C   UNL     1      33.056  -7.772 -21.129  0.00  0.00    +0.005 C 
ENDBRANCH  26  29
ENDBRANCH   1  26
TORSDOF 9
ENDMDL
MODEL 9
REMARK VINA RESULT:      -9.9      5.147     10.819
REMARK  Name = 16744441
REMARK  9 active torsions:
REMARK  status: ('A' for Active; 'I' for Inactive)
REMARK    1  A    between atoms: N_1  and  C_26
REMARK    2  A    between atoms: C_9  and  O_21
REMARK    3  A    between atoms: N_10  and  C_12
REMARK    4  A    between atoms: C_12  and  C_13
REMARK    5  A    between atoms: C_13  and  N_15
REMARK    6  A    between atoms: O_21  and  C_22
REMARK    7  A    between atoms: C_22  and  C_23
REMARK    8  A    between atoms: C_23  and  C_24
REMARK    9  A    between atoms: C_26  and  C_29
REMARK                            x       y       z     vdW  Elec       q    Type
REMARK                         _______ _______ _______ _____ _____    ______ ____
ROOT
ATOM      1  N   UNL     1      35.462 -17.916 -22.344  0.00  0.00    -0.256 N 
ATOM      2  N   UNL     1      33.469 -14.546 -23.252  0.00  0.00    -0.294 NA
ATOM      3  N   UNL     1      34.945 -17.699 -24.502  0.00  0.00    -0.240 NA
ATOM      4  N   UNL     1      34.508 -15.859 -21.476  0.00  0.00    -0.294 NA
ATOM      5  C   UNL     1      33.795 -15.469 -24.189  0.00  0.00    +0.217 C 
ATOM      6  C   UNL     1      34.486 -16.612 -23.801  0.00  0.00    +0.167 C 
ATOM      7  C   UNL     1      34.798 -16.728 -22.455  0.00  0.00    +0.222 C 
ATOM      8  C   UNL     1      35.527 -18.462 -23.600  0.00  0.00    +0.222 C 
ATOM      9  C   UNL     1      33.840 -14.794 -21.973  0.00  0.00    +0.313 C 
ATOM     10  N   UNL     1      33.444 -15.270 -25.515  0.00  0.00    -0.308 N 
ATOM     11  H   UNL     1      33.696 -15.960 -26.170  0.00  0.00    +0.149 HD
ENDROOT
BRANCH  10  12
ATOM     12  C   UNL     1      32.727 -14.111 -25.990  0.00  0.00    +0.066 C 
BRANCH  12  13
ATOM     13  C   UNL     1      33.711 -13.103 -26.568  0.00  0.00    -0.056 C 
BRANCH  13  15
ATOM     14  O   UNL     1      34.195  -9.590 -24.322  0.00  0.00    -0.358 OA
ATOM     15  N   UNL     1      34.146 -12.165 -25.534  0.00  0.00    +0.391 N 
ATOM     16  C   UNL     1      34.901 -11.052 -26.125  0.00  0.00    -0.045 C 
ATOM     17  C   UNL     1      32.994 -11.648 -24.781  0.00  0.00    -0.045 C 
ATOM     18  C   UNL     1      35.334 -10.081 -25.029  0.00  0.00    +0.119 C 
ATOM     19  C   UNL     1      33.471 -10.663 -23.718  0.00  0.00    +0.119 C 
ATOM     20  H   UNL     1      34.756 -12.669 -24.892  0.00  0.00    -0.079 HD
ENDBRANCH  13  15
ENDBRANCH  12  13
ENDBRANCH  10  12
BRANCH   9  21
ATOM     21  O   UNL     1      33.484 -13.832 -21.053  0.00  0.00    -0.400 OA
BRANCH  21  22
ATOM     22  C   UNL     1      32.257 -13.159 -21.285  0.00  0.00    +0.223 C 
BRANCH  22  23
ATOM     23  C   UNL     1      31.897 -12.353 -20.045  0.00  0.00    +0.049 C 
BRANCH  23  24
ATOM     24  C   UNL     1      31.151 -11.071 -20.403  0.00  0.00    +0.004 C 
ATOM     25  C   UNL     1      31.508  -9.936 -19.456  0.00  0.00    +0.000 C 
ENDBRANCH  23  24
ENDBRANCH  22  23
ENDBRANCH  21  22
ENDBRANCH   9  21
BRANCH   1  26
ATOM     26  C   UNL     1      36.006 -18.494 -21.139  0.00  0.00    +0.126 C 
BRANCH  26  29
ATOM     27  F   UNL     1      33.181 -18.405 -21.001  0.00  0.00    -0.204 F 
ATOM     28  F   UNL     1      37.123 -20.953 -20.296  0.00  0.00    -0.204 F 
ATOM     29  C   UNL     1      35.172 -19.651 -20.660  0.00  0.00    +0.053 C 
ATOM     30  C   UNL     1      33.782 -19.539 -20.617  0.00  0.00    +0.140 C 
ATOM     31  C   UNL     1      35.788 -20.836 -20.257  0.00  0.00    +0.140 C 
ATOM     32  C   UNL     1      33.009 -20.611 -20.172  0.00  0.00    +0.030 C 
ATOM     33  C   UNL     1      35.016 -21.908 -19.812  0.00  0.00    +0.030 C 
ATOM     34  C   UNL     1      33.626 -21.796 -19.769  0.00  0.00    +0.005 C 
ENDBRANCH  26  29
ENDBRANCH   1  26
TORSDOF 9
ENDMDL
