MODEL 1
REMARK VINA RESULT:     -11.2      0.000      0.000
REMARK  Name = 50902259
REMARK  13 active torsions:
REMARK  status: ('A' for Active; 'I' for Inactive)
REMARK    1  A    between atoms: C_4  and  C_13
REMARK    2  A    between atoms: C_5  and  O_11
REMARK    3  A    between atoms: C_9  and  C_28
REMARK    4  A    between atoms: C_14  and  C_15
REMARK    5  A    between atoms: C_15  and  O_16
REMARK    6  A    between atoms: C_15  and  C_18
REMARK    7  A    between atoms: C_18  and  O_19
REMARK    8  A    between atoms: O_19  and  C_22
REMARK    9  A    between atoms: C_28  and  C_29
REMARK   10  A    between atoms: C_29  and  C_30
REMARK   11  A    between atoms: C_30  and  C_32
REMARK   12  A    between atoms: C_32  and  O_33
REMARK   13  A    between atoms: O_33  and  C_34
REMARK                            x       y       z     vdW  Elec       q    Type
REMARK                         _______ _______ _______ _____ _____    ______ ____
ROOT
ATOM      1  O   UNL     1      34.311 -18.328 -23.821  0.00  0.00    -0.356 OA
ATOM      2  C   UNL     1      34.572 -15.908 -23.221  0.00  0.00    +0.034 C 
ATOM      3  C   UNL     1      34.665 -17.033 -24.277  0.00  0.00    +0.118 C 
ATOM      4  C   UNL     1      33.620 -14.849 -23.835  0.00  0.00    +0.051 C 
ATOM      5  C   UNL     1      33.692 -15.111 -25.339  0.00  0.00    +0.117 C 
ATOM      6  C   UNL     1      33.705 -16.627 -25.393  0.00  0.00    +0.059 C 
ATOM      7  C   UNL     1      34.107 -16.322 -21.821  0.00  0.00    +0.003 C 
ATOM      8  C   UNL     1      35.086 -17.244 -21.096  0.00  0.00    +0.003 C 
ATOM      9  C   UNL     1      34.989 -18.717 -21.516  0.00  0.00    +0.030 C 
ATOM     10  C   UNL     1      35.301 -18.935 -22.998  0.00  0.00    +0.142 C 
ENDROOT
BRANCH   5  11
ATOM     11  O   UNL     1      32.555 -14.613 -26.021  0.00  0.00    -0.384 OA
ATOM     12  H   UNL     1      32.819 -13.874 -26.592  0.00  0.00    +0.210 HD
ENDBRANCH   5  11
BRANCH   4  13
ATOM     13  C   UNL     1      33.983 -13.443 -23.478  0.00  0.00    -0.026 C 
ATOM     14  C   UNL     1      33.807 -12.395 -24.298  0.00  0.00    +0.002 C 
BRANCH  14  15
ATOM     15  C   UNL     1      34.173 -10.983 -23.937  0.00  0.00    +0.176 C 
BRANCH  15  16
ATOM     16  O   UNL     1      35.099 -10.516 -24.914  0.00  0.00    -0.376 OA
ATOM     17  H   UNL     1      35.801 -10.007 -24.477  0.00  0.00    +0.211 HD
ENDBRANCH  15  16
BRANCH  15  18
ATOM     18  C   UNL     1      32.951 -10.069 -23.933  0.00  0.00    +0.239 C 
BRANCH  18  19
ATOM     19  O   UNL     1      31.882 -10.693 -23.235  0.00  0.00    -0.470 OA
BRANCH  19  22
ATOM     20  F   UNL     1      31.493 -12.815 -21.519  0.00  0.00    -0.201 F 
ATOM     21  F   UNL     1      32.050  -7.773 -19.476  0.00  0.00    -0.204 F 
ATOM     22  C   UNL     1      31.827 -10.496 -21.880  0.00  0.00    +0.168 C 
ATOM     23  C   UNL     1      31.630 -11.579 -21.023  0.00  0.00    +0.174 C 
ATOM     24  C   UNL     1      31.969  -9.210 -21.357  0.00  0.00    +0.069 C 
ATOM     25  C   UNL     1      31.913  -9.007 -19.978  0.00  0.00    +0.143 C 
ATOM     26  C   UNL     1      31.573 -11.375 -19.644  0.00  0.00    +0.035 C 
ATOM     27  C   UNL     1      31.715 -10.090 -19.122  0.00  0.00    +0.032 C 
ENDBRANCH  19  22
ENDBRANCH  18  19
ENDBRANCH  15  18
ENDBRANCH  14  15
ENDBRANCH   4  13
BRANCH   9  28
ATOM     28  C   UNL     1      35.929 -19.565 -20.656  0.00  0.00    +0.003 C 
BRANCH  28  29
ATOM     29  C   UNL     1      35.407 -20.991 -20.516  0.00  0.00    +0.012 C 
BRANCH  29  30
ATOM     30  C   UNL     1      34.051 -21.010 -19.812  0.00  0.00    +0.110 C 
BRANCH  30  32
ATOM     31  O   UNL     1      34.173 -23.437 -19.722  0.00  0.00    -0.250 OA
ATOM     32  C   UNL     1      33.691 -22.390 -19.311  0.00  0.00    +0.317 C 
BRANCH  32  33
ATOM     33  O   UNL     1      32.744 -22.273 -18.335  0.00  0.00    -0.452 OA
BRANCH  33  34
ATOM     34  C   UNL     1      32.778 -23.281 -17.320  0.00  0.00    +0.169 C 
ATOM     35  C   UNL     1      31.552 -23.138 -16.430  0.00  0.00    +0.047 C 
ATOM     36  C   UNL     1      34.070 -23.151 -16.528  0.00  0.00    +0.047 C 
ENDBRANCH  33  34
ENDBRANCH  32  33
ENDBRANCH  30  32
ENDBRANCH  29  30
ENDBRANCH  28  29
ENDBRANCH   9  28
TORSDOF 13
ENDMDL
MODEL 2
REMARK VINA RESULT:     -10.9      1.714      2.484
REMARK  Name = 50902259
REMARK  13 active torsions:
REMARK  status: ('A' for Active; 'I' for Inactive)
REMARK    1  A    between atoms: C_4  and  C_13
REMARK    2  A    between atoms: C_5  and  O_11
REMARK    3  A    between atoms: C_9  and  C_28
REMARK    4  A    between atoms: C_14  and  C_15
REMARK    5  A    between atoms: C_15  and  O_16
REMARK    6  A    between atoms: C_15  and  C_18
REMARK    7  A    between atoms: C_18  and  O_19
REMARK    8  A    between atoms: O_19  and  C_22
REMARK    9  A    between atoms: C_28  and  C_29
REMARK   10  A    between atoms: C_29  and  C_30
REMARK   11  A    between atoms: C_30  and  C_32
REMARK   12  A    between atoms: C_32  and  O_33
REMARK   13  A    between atoms: O_33  and  C_34
REMARK                            x       y       z     vdW  Elec       q    Type
REMARK                         _______ _______ _______ _____ _____    ______ ____
ROOT
ATOM      1  O   UNL     1      34.630 -18.079 -24.057  0.00  0.00    -0.356 OA
ATOM      2  C   UNL     1      34.480 -15.706 -23.265  0.00  0.00    +0.034 C 
ATOM      3  C   UNL     1      34.773 -16.712 -24.401  0.00  0.00    +0.118 C 
ATOM      4  C   UNL     1      33.376 -14.770 -23.822  0.00  0.00    +0.051 C 
ATOM      5  C   UNL     1      33.513 -14.895 -25.339  0.00  0.00    +0.117 C 
ATOM      6  C   UNL     1      33.775 -16.380 -25.510  0.00  0.00    +0.059 C 
ATOM      7  C   UNL     1      34.069 -16.301 -21.915  0.00  0.00    +0.003 C 
ATOM      8  C   UNL     1      35.175 -17.107 -21.236  0.00  0.00    +0.003 C 
ATOM      9  C   UNL     1      35.328 -18.537 -21.771  0.00  0.00    +0.030 C 
ATOM     10  C   UNL     1      35.694 -18.581 -23.255  0.00  0.00    +0.142 C 
ENDROOT
BRANCH   5  11
ATOM     11  O   UNL     1      32.320 -14.536 -26.013  0.00  0.00    -0.384 OA
ATOM     12  H   UNL     1      32.339 -14.890 -26.916  0.00  0.00    +0.210 HD
ENDBRANCH   5  11
BRANCH   4  13
ATOM     13  C   UNL     1      33.498 -13.357 -23.348  0.00  0.00    -0.026 C 
ATOM     14  C   UNL     1      33.819 -12.327 -24.146  0.00  0.00    +0.002 C 
BRANCH  14  15
ATOM     15  C   UNL     1      33.941 -10.908 -23.668  0.00  0.00    +0.176 C 
BRANCH  15  16
ATOM     16  O   UNL     1      34.813 -10.225 -24.564  0.00  0.00    -0.376 OA
ATOM     17  H   UNL     1      35.418 -10.862 -24.975  0.00  0.00    +0.211 HD
ENDBRANCH  15  16
BRANCH  15  18
ATOM     18  C   UNL     1      32.588 -10.201 -23.654  0.00  0.00    +0.239 C 
BRANCH  18  19
ATOM     19  O   UNL     1      32.331  -9.673 -22.360  0.00  0.00    -0.470 OA
BRANCH  19  22
ATOM     20  F   UNL     1      32.689  -8.296 -20.000  0.00  0.00    -0.201 F 
ATOM     21  F   UNL     1      30.819  -5.646 -24.403  0.00  0.00    -0.204 F 
ATOM     22  C   UNL     1      32.045  -8.335 -22.281  0.00  0.00    +0.168 C 
ATOM     23  C   UNL     1      32.231  -7.650 -21.081  0.00  0.00    +0.174 C 
ATOM     24  C   UNL     1      31.568  -7.658 -23.404  0.00  0.00    +0.069 C 
ATOM     25  C   UNL     1      31.276  -6.296 -23.325  0.00  0.00    +0.143 C 
ATOM     26  C   UNL     1      31.939  -6.288 -21.002  0.00  0.00    +0.035 C 
ATOM     27  C   UNL     1      31.462  -5.612 -22.124  0.00  0.00    +0.032 C 
ENDBRANCH  19  22
ENDBRANCH  18  19
ENDBRANCH  15  18
ENDBRANCH  14  15
ENDBRANCH   4  13
BRANCH   9  28
ATOM     28  C   UNL     1      36.382 -19.287 -20.952  0.00  0.00    +0.003 C 
BRANCH  28  29
ATOM     29  C   UNL     1      35.888 -20.676 -20.564  0.00  0.00    +0.012 C 
BRANCH  29  30
ATOM     30  C   UNL     1      34.491 -20.608 -19.948  0.00  0.00    +0.110 C 
BRANCH  30  32
ATOM     31  O   UNL     1      32.927 -22.408 -19.470  0.00  0.00    -0.250 OA
ATOM     32  C   UNL     1      34.054 -21.941 -19.383  0.00  0.00    +0.317 C 
BRANCH  32  33
ATOM     33  O   UNL     1      35.120 -22.528 -18.763  0.00  0.00    -0.452 OA
BRANCH  33  34
ATOM     34  C   UNL     1      35.328 -22.143 -17.400  0.00  0.00    +0.169 C 
ATOM     35  C   UNL     1      36.822 -22.028 -17.135  0.00  0.00    +0.047 C 
ATOM     36  C   UNL     1      34.667 -23.163 -16.485  0.00  0.00    +0.047 C 
ENDBRANCH  33  34
ENDBRANCH  32  33
ENDBRANCH  30  32
ENDBRANCH  29  30
ENDBRANCH  28  29
ENDBRANCH   9  28
TORSDOF 13
ENDMDL
MODEL 3
REMARK VINA RESULT:     -10.8      3.677     10.838
REMARK  Name = 50902259
REMARK  13 active torsions:
REMARK  status: ('A' for Active; 'I' for Inactive)
REMARK    1  A    between atoms: C_4  and  C_13
REMARK    2  A    between atoms: C_5  and  O_11
REMARK    3  A    between atoms: C_9  and  C_28
REMARK    4  A    between atoms: C_14  and  C_15
REMARK    5  A    between atoms: C_15  and  O_16
REMARK    6  A    between atoms: C_15  and  C_18
REMARK    7  A    between atoms: C_18  and  O_19
REMARK    8  A    between atoms: O_19  and  C_22
REMARK    9  A    between atoms: C_28  and  C_29
REMARK   10  A    between atoms: C_29  and  C_30
REMARK   11  A    between atoms: C_30  and  C_32
REMARK   12  A    between atoms: C_32  and  O_33
REMARK   13  A    between atoms: O_33  and  C_34
REMARK                            x       y       z     vdW  Elec       q    Type
REMARK                         _______ _______ _______ _____ _____    ______ ____
ROOT
ATOM      1  O   UNL     1      33.870 -14.503 -23.423  0.00  0.00    -0.356 OA
ATOM      2  C   UNL     1      33.819 -16.385 -21.769  0.00  0.00    +0.034 C 
ATOM      3  C   UNL     1      33.755 -15.903 -23.236  0.00  0.00    +0.118 C 
ATOM      4  C   UNL     1      34.979 -17.413 -21.726  0.00  0.00    +0.051 C 
ATOM      5  C   UNL     1      35.113 -17.883 -23.174  0.00  0.00    +0.117 C 
ATOM      6  C   UNL     1      34.922 -16.589 -23.943  0.00  0.00    +0.059 C 
ATOM      7  C   UNL     1      34.002 -15.302 -20.701  0.00  0.00    +0.003 C 
ATOM      8  C   UNL     1      32.815 -14.347 -20.584  0.00  0.00    +0.003 C 
ATOM      9  C   UNL     1      32.794 -13.238 -21.644  0.00  0.00    +0.030 C 
ATOM     10  C   UNL     1      32.695 -13.780 -23.070  0.00  0.00    +0.142 C 
ENDROOT
BRANCH   5  11
ATOM     11  O   UNL     1      36.396 -18.419 -23.443  0.00  0.00    -0.384 OA
ATOM     12  H   UNL     1      37.066 -17.726 -23.332  0.00  0.00    +0.210 HD
ENDBRANCH   5  11
BRANCH   4  13
ATOM     13  C   UNL     1      34.741 -18.541 -20.774  0.00  0.00    -0.026 C 
ATOM     14  C   UNL     1      33.747 -19.433 -20.908  0.00  0.00    +0.002 C 
BRANCH  14  15
ATOM     15  C   UNL     1      33.508 -20.566 -19.950  0.00  0.00    +0.176 C 
BRANCH  15  16
ATOM     16  O   UNL     1      32.581 -21.459 -20.562  0.00  0.00    -0.376 OA
ATOM     17  H   UNL     1      31.965 -21.794 -19.891  0.00  0.00    +0.211 HD
ENDBRANCH  15  16
BRANCH  15  18
ATOM     18  C   UNL     1      34.798 -21.322 -19.642  0.00  0.00    +0.239 C 
BRANCH  18  19
ATOM     19  O   UNL     1      34.494 -22.644 -19.220  0.00  0.00    -0.470 OA
BRANCH  19  22
ATOM     20  F   UNL     1      36.526 -22.418 -17.372  0.00  0.00    -0.201 F 
ATOM     21  F   UNL     1      31.467 -23.612 -15.672  0.00  0.00    -0.204 F 
ATOM     22  C   UNL     1      34.248 -22.828 -17.884  0.00  0.00    +0.168 C 
ATOM     23  C   UNL     1      35.286 -22.710 -16.959  0.00  0.00    +0.174 C 
ATOM     24  C   UNL     1      32.958 -23.133 -17.449  0.00  0.00    +0.069 C 
ATOM     25  C   UNL     1      32.706 -23.320 -16.090  0.00  0.00    +0.143 C 
ATOM     26  C   UNL     1      35.034 -22.898 -15.600  0.00  0.00    +0.035 C 
ATOM     27  C   UNL     1      33.744 -23.202 -15.166  0.00  0.00    +0.032 C 
ENDBRANCH  19  22
ENDBRANCH  18  19
ENDBRANCH  15  18
ENDBRANCH  14  15
ENDBRANCH   4  13
BRANCH   9  28
ATOM     28  C   UNL     1      31.633 -12.279 -21.369  0.00  0.00    +0.003 C 
BRANCH  28  29
ATOM     29  C   UNL     1      31.668 -11.772 -19.932  0.00  0.00    +0.012 C 
BRANCH  29  30
ATOM     30  C   UNL     1      30.963 -10.422 -19.811  0.00  0.00    +0.110 C 
BRANCH  30  32
ATOM     31  O   UNL     1      32.695  -8.775 -19.358  0.00  0.00    -0.250 OA
ATOM     32  C   UNL     1      31.887  -9.269 -20.133  0.00  0.00    +0.317 C 
BRANCH  32  33
ATOM     33  O   UNL     1      31.667  -8.873 -21.421  0.00  0.00    -0.452 OA
BRANCH  33  34
ATOM     34  C   UNL     1      32.839  -8.536 -22.170  0.00  0.00    +0.169 C 
ATOM     35  C   UNL     1      32.720  -7.103 -22.670  0.00  0.00    +0.047 C 
ATOM     36  C   UNL     1      33.003  -9.523 -23.316  0.00  0.00    +0.047 C 
ENDBRANCH  33  34
ENDBRANCH  32  33
ENDBRANCH  30  32
ENDBRANCH  29  30
ENDBRANCH  28  29
ENDBRANCH   9  28
TORSDOF 13
ENDMDL
MODEL 4
REMARK VINA RESULT:     -10.7      3.747     11.067
REMARK  Name = 50902259
REMARK  13 active torsions:
REMARK  status: ('A' for Active; 'I' for Inactive)
REMARK    1  A    between atoms: C_4  and  C_13
REMARK    2  A    between atoms: C_5  and  O_11
REMARK    3  A    between atoms: C_9  and  C_28
REMARK    4  A    between atoms: C_14  and  C_15
REMARK    5  A    between atoms: C_15  and  O_16
REMARK    6  A    between atoms: C_15  and  C_18
REMARK    7  A    between atoms: C_18  and  O_19
REMARK    8  A    between atoms: O_19  and  C_22
REMARK    9  A    between atoms: C_28  and  C_29
REMARK   10  A    between atoms: C_29  and  C_30
REMARK   11  A    between atoms: C_30  and  C_32
REMARK   12  A    between atoms: C_32  and  O_33
REMARK   13  A    between atoms: O_33  and  C_34
REMARK                            x       y       z     vdW  Elec       q    Type
REMARK                         _______ _______ _______ _____ _____    ______ ____
ROOT
ATOM      1  O   UNL     1      33.531 -14.010 -23.422  0.00  0.00    -0.356 OA
ATOM      2  C   UNL     1      33.604 -15.951 -21.839  0.00  0.00    +0.034 C 
ATOM      3  C   UNL     1      33.440 -15.417 -23.280  0.00  0.00    +0.118 C 
ATOM      4  C   UNL     1      34.773 -16.968 -21.910  0.00  0.00    +0.051 C 
ATOM      5  C   UNL     1      34.817 -17.383 -23.380  0.00  0.00    +0.117 C 
ATOM      6  C   UNL     1      34.565 -16.064 -24.086  0.00  0.00    +0.059 C 
ATOM      7  C   UNL     1      33.848 -14.906 -20.745  0.00  0.00    +0.003 C 
ATOM      8  C   UNL     1      32.663 -13.969 -20.516  0.00  0.00    +0.003 C 
ATOM      9  C   UNL     1      32.564 -12.822 -21.531  0.00  0.00    +0.030 C 
ATOM     10  C   UNL     1      32.376 -13.313 -22.967  0.00  0.00    +0.142 C 
ENDROOT
BRANCH   5  11
ATOM     11  O   UNL     1      36.083 -17.896 -23.751  0.00  0.00    -0.384 OA
ATOM     12  H   UNL     1      35.977 -18.788 -24.117  0.00  0.00    +0.210 HD
ENDBRANCH   5  11
BRANCH   4  13
ATOM     13  C   UNL     1      34.607 -18.133 -20.987  0.00  0.00    -0.026 C 
ATOM     14  C   UNL     1      33.602 -19.018 -21.077  0.00  0.00    +0.002 C 
BRANCH  14  15
ATOM     15  C   UNL     1      33.436 -20.188 -20.148  0.00  0.00    +0.176 C 
BRANCH  15  16
ATOM     16  O   UNL     1      32.426 -21.032 -20.695  0.00  0.00    -0.376 OA
ATOM     17  H   UNL     1      32.843 -21.773 -21.161  0.00  0.00    +0.211 HD
ENDBRANCH  15  16
BRANCH  15  18
ATOM     18  C   UNL     1      34.731 -20.985 -20.012  0.00  0.00    +0.239 C 
BRANCH  18  19
ATOM     19  O   UNL     1      34.466 -22.234 -19.388  0.00  0.00    -0.470 OA
BRANCH  19  22
ATOM     20  F   UNL     1      32.942 -23.492 -17.467  0.00  0.00    -0.201 F 
ATOM     21  F   UNL     1      37.932 -21.670 -16.170  0.00  0.00    -0.204 F 
ATOM     22  C   UNL     1      34.946 -22.406 -18.116  0.00  0.00    +0.168 C 
ATOM     23  C   UNL     1      34.165 -23.045 -17.154  0.00  0.00    +0.174 C 
ATOM     24  C   UNL     1      36.219 -21.941 -17.783  0.00  0.00    +0.069 C 
ATOM     25  C   UNL     1      36.710 -22.115 -16.489  0.00  0.00    +0.143 C 
ATOM     26  C   UNL     1      34.655 -23.218 -15.859  0.00  0.00    +0.035 C 
ATOM     27  C   UNL     1      35.927 -22.754 -15.527  0.00  0.00    +0.032 C 
ENDBRANCH  19  22
ENDBRANCH  18  19
ENDBRANCH  15  18
ENDBRANCH  14  15
ENDBRANCH   4  13
BRANCH   9  28
ATOM     28  C   UNL     1      31.415 -11.887 -21.145  0.00  0.00    +0.003 C 
BRANCH  28  29
ATOM     29  C   UNL     1      31.764 -10.435 -21.452  0.00  0.00    +0.012 C 
BRANCH  29  30
ATOM     30  C   UNL     1      31.929  -9.629 -20.164  0.00  0.00    +0.110 C 
BRANCH  30  32
ATOM     31  O   UNL     1      32.732  -7.399 -19.619  0.00  0.00    -0.250 OA
ATOM     32  C   UNL     1      32.277  -8.184 -20.440  0.00  0.00    +0.317 C 
BRANCH  32  33
ATOM     33  O   UNL     1      31.998  -7.904 -21.747  0.00  0.00    -0.452 OA
BRANCH  33  34
ATOM     34  C   UNL     1      32.873  -6.962 -22.375  0.00  0.00    +0.169 C 
ATOM     35  C   UNL     1      32.112  -6.221 -23.465  0.00  0.00    +0.047 C 
ATOM     36  C   UNL     1      34.084  -7.696 -22.931  0.00  0.00    +0.047 C 
ENDBRANCH  33  34
ENDBRANCH  32  33
ENDBRANCH  30  32
ENDBRANCH  29  30
ENDBRANCH  28  29
ENDBRANCH   9  28
TORSDOF 13
ENDMDL
MODEL 5
REMARK VINA RESULT:     -10.7      5.094      9.880
REMARK  Name = 50902259
REMARK  13 active torsions:
REMARK  status: ('A' for Active; 'I' for Inactive)
REMARK    1  A    between atoms: C_4  and  C_13
REMARK    2  A    between atoms: C_5  and  O_11
REMARK    3  A    between atoms: C_9  and  C_28
REMARK    4  A    between atoms: C_14  and  C_15
REMARK    5  A    between atoms: C_15  and  O_16
REMARK    6  A    between atoms: C_15  and  C_18
REMARK    7  A    between atoms: C_18  and  O_19
REMARK    8  A    between atoms: O_19  and  C_22
REMARK    9  A    between atoms: C_28  and  C_29
REMARK   10  A    between atoms: C_29  and  C_30
REMARK   11  A    between atoms: C_30  and  C_32
REMARK   12  A    between atoms: C_32  and  O_33
REMARK   13  A    between atoms: O_33  and  C_34
REMARK                            x       y       z     vdW  Elec       q    Type
REMARK                         _______ _______ _______ _____ _____    ______ ____
ROOT
ATOM      1  O   UNL     1      34.472 -24.401 -13.891  0.00  0.00    -0.356 OA
ATOM      2  C   UNL     1      35.067 -22.809 -15.732  0.00  0.00    +0.034 C 
ATOM      3  C   UNL     1      35.306 -23.330 -14.297  0.00  0.00    +0.118 C 
ATOM      4  C   UNL     1      36.441 -22.921 -16.442  0.00  0.00    +0.051 C 
ATOM      5  C   UNL     1      37.453 -22.929 -15.297  0.00  0.00    +0.117 C 
ATOM      6  C   UNL     1      36.758 -23.803 -14.270  0.00  0.00    +0.059 C 
ATOM      7  C   UNL     1      33.969 -23.508 -16.540  0.00  0.00    +0.003 C 
ATOM      8  C   UNL     1      32.564 -23.300 -15.976  0.00  0.00    +0.003 C 
ATOM      9  C   UNL     1      32.220 -24.217 -14.795  0.00  0.00    +0.030 C 
ATOM     10  C   UNL     1      33.138 -24.004 -13.590  0.00  0.00    +0.142 C 
ENDROOT
BRANCH   5  11
ATOM     11  O   UNL     1      38.684 -23.516 -15.678  0.00  0.00    -0.384 OA
ATOM     12  H   UNL     1      38.783 -23.464 -16.642  0.00  0.00    +0.210 HD
ENDBRANCH   5  11
BRANCH   4  13
ATOM     13  C   UNL     1      36.695 -21.826 -17.427  0.00  0.00    -0.026 C 
ATOM     14  C   UNL     1      36.091 -21.743 -18.623  0.00  0.00    +0.002 C 
BRANCH  14  15
ATOM     15  C   UNL     1      36.347 -20.641 -19.612  0.00  0.00    +0.176 C 
BRANCH  15  16
ATOM     16  O   UNL     1      37.283 -21.130 -20.568  0.00  0.00    -0.376 OA
ATOM     17  H   UNL     1      38.038 -20.523 -20.621  0.00  0.00    +0.211 HD
ENDBRANCH  15  16
BRANCH  15  18
ATOM     18  C   UNL     1      35.068 -20.226 -20.335  0.00  0.00    +0.239 C 
BRANCH  18  19
ATOM     19  O   UNL     1      35.090 -18.829 -20.594  0.00  0.00    -0.470 OA
BRANCH  19  22
ATOM     20  F   UNL     1      35.125 -16.158 -21.273  0.00  0.00    -0.201 F 
ATOM     21  F   UNL     1      34.691 -19.928 -25.211  0.00  0.00    -0.204 F 
ATOM     22  C   UNL     1      35.000 -18.440 -21.905  0.00  0.00    +0.168 C 
ATOM     23  C   UNL     1      35.019 -17.085 -22.235  0.00  0.00    +0.174 C 
ATOM     24  C   UNL     1      34.889 -19.401 -22.911  0.00  0.00    +0.069 C 
ATOM     25  C   UNL     1      34.797 -19.006 -24.246  0.00  0.00    +0.143 C 
ATOM     26  C   UNL     1      34.926 -16.690 -23.570  0.00  0.00    +0.035 C 
ATOM     27  C   UNL     1      34.815 -17.651 -24.575  0.00  0.00    +0.032 C 
ENDBRANCH  19  22
ENDBRANCH  18  19
ENDBRANCH  15  18
ENDBRANCH  14  15
ENDBRANCH   4  13
BRANCH   9  28
ATOM     28  C   UNL     1      30.761 -24.004 -14.382  0.00  0.00    +0.003 C 
BRANCH  28  29
ATOM     29  C   UNL     1      29.812 -24.740 -15.320  0.00  0.00    +0.012 C 
BRANCH  29  30
ATOM     30  C   UNL     1      28.508 -23.963 -15.499  0.00  0.00    +0.110 C 
BRANCH  30  32
ATOM     31  O   UNL     1      29.564 -22.464 -17.097  0.00  0.00    -0.250 OA
ATOM     32  C   UNL     1      28.561 -23.035 -16.692  0.00  0.00    +0.317 C 
BRANCH  32  33
ATOM     33  O   UNL     1      27.311 -22.940 -17.233  0.00  0.00    -0.452 OA
BRANCH  33  34
ATOM     34  C   UNL     1      26.665 -21.673 -17.075  0.00  0.00    +0.169 C 
ATOM     35  C   UNL     1      25.695 -21.746 -15.905  0.00  0.00    +0.047 C 
ATOM     36  C   UNL     1      25.961 -21.304 -18.372  0.00  0.00    +0.047 C 
ENDBRANCH  33  34
ENDBRANCH  32  33
ENDBRANCH  30  32
ENDBRANCH  29  30
ENDBRANCH  28  29
ENDBRANCH   9  28
TORSDOF 13
ENDMDL
MODEL 6
REMARK VINA RESULT:     -10.3      2.773      5.387
REMARK  Name = 50902259
REMARK  13 active torsions:
REMARK  status: ('A' for Active; 'I' for Inactive)
REMARK    1  A    between atoms: C_4  and  C_13
REMARK    2  A    between atoms: C_5  and  O_11
REMARK    3  A    between atoms: C_9  and  C_28
REMARK    4  A    between atoms: C_14  and  C_15
REMARK    5  A    between atoms: C_15  and  O_16
REMARK    6  A    between atoms: C_15  and  C_18
REMARK    7  A    between atoms: C_18  and  O_19
REMARK    8  A    between atoms: O_19  and  C_22
REMARK    9  A    between atoms: C_28  and  C_29
REMARK   10  A    between atoms: C_29  and  C_30
REMARK   11  A    between atoms: C_30  and  C_32
REMARK   12  A    between atoms: C_32  and  O_33
REMARK   13  A    between atoms: O_33  and  C_34
REMARK                            x       y       z     vdW  Elec       q    Type
REMARK                         _______ _______ _______ _____ _____    ______ ____
ROOT
ATOM      1  O   UNL     1      36.008 -21.027 -20.515  0.00  0.00    -0.356 OA
ATOM      2  C   UNL     1      34.312 -19.187 -20.636  0.00  0.00    +0.034 C 
ATOM      3  C   UNL     1      35.787 -19.627 -20.507  0.00  0.00    +0.118 C 
ATOM      4  C   UNL     1      34.271 -18.246 -21.869  0.00  0.00    +0.051 C 
ATOM      5  C   UNL     1      35.711 -17.753 -22.007  0.00  0.00    +0.117 C 
ATOM      6  C   UNL     1      36.505 -19.010 -21.706  0.00  0.00    +0.059 C 
ATOM      7  C   UNL     1      33.272 -20.306 -20.761  0.00  0.00    +0.003 C 
ATOM      8  C   UNL     1      33.151 -21.174 -19.510  0.00  0.00    +0.003 C 
ATOM      9  C   UNL     1      34.235 -22.253 -19.387  0.00  0.00    +0.030 C 
ATOM     10  C   UNL     1      35.646 -21.671 -19.298  0.00  0.00    +0.142 C 
ENDROOT
BRANCH   5  11
ATOM     11  O   UNL     1      35.996 -17.305 -23.320  0.00  0.00    -0.384 OA
ATOM     12  H   UNL     1      35.933 -18.051 -23.937  0.00  0.00    +0.210 HD
ENDBRANCH   5  11
BRANCH   4  13
ATOM     13  C   UNL     1      33.290 -17.127 -21.733  0.00  0.00    -0.026 C 
ATOM     14  C   UNL     1      33.626 -15.879 -21.370  0.00  0.00    +0.002 C 
BRANCH  14  15
ATOM     15  C   UNL     1      32.637 -14.756 -21.234  0.00  0.00    +0.176 C 
BRANCH  15  16
ATOM     16  O   UNL     1      32.454 -14.510 -19.842  0.00  0.00    -0.376 OA
ATOM     17  H   UNL     1      32.364 -15.355 -19.374  0.00  0.00    +0.211 HD
ENDBRANCH  15  16
BRANCH  15  18
ATOM     18  C   UNL     1      33.141 -13.479 -21.902  0.00  0.00    +0.239 C 
BRANCH  18  19
ATOM     19  O   UNL     1      34.139 -13.797 -22.863  0.00  0.00    -0.470 OA
BRANCH  19  22
ATOM     20  F   UNL     1      34.324 -11.362 -24.140  0.00  0.00    -0.201 F 
ATOM     21  F   UNL     1      32.548 -15.725 -26.917  0.00  0.00    -0.204 F 
ATOM     22  C   UNL     1      33.791 -13.672 -24.182  0.00  0.00    +0.168 C 
ATOM     23  C   UNL     1      33.890 -12.433 -24.816  0.00  0.00    +0.174 C 
ATOM     24  C   UNL     1      33.337 -14.784 -24.892  0.00  0.00    +0.069 C 
ATOM     25  C   UNL     1      32.982 -14.657 -26.235  0.00  0.00    +0.143 C 
ATOM     26  C   UNL     1      33.534 -12.307 -26.160  0.00  0.00    +0.035 C 
ATOM     27  C   UNL     1      33.081 -13.419 -26.869  0.00  0.00    +0.032 C 
ENDBRANCH  19  22
ENDBRANCH  18  19
ENDBRANCH  15  18
ENDBRANCH  14  15
ENDBRANCH   4  13
BRANCH   9  28
ATOM     28  C   UNL     1      33.956 -23.131 -18.164  0.00  0.00    +0.003 C 
BRANCH  28  29
ATOM     29  C   UNL     1      32.604 -22.797 -17.546  0.00  0.00    +0.012 C 
BRANCH  29  30
ATOM     30  C   UNL     1      32.445 -23.469 -16.182  0.00  0.00    +0.110 C 
BRANCH  30  32
ATOM     31  O   UNL     1      31.300 -22.647 -14.200  0.00  0.00    -0.250 OA
ATOM     32  C   UNL     1      31.287 -22.894 -15.398  0.00  0.00    +0.317 C 
BRANCH  32  33
ATOM     33  O   UNL     1      30.233 -22.701 -16.245  0.00  0.00    -0.452 OA
BRANCH  33  34
ATOM     34  C   UNL     1      28.956 -23.104 -15.740  0.00  0.00    +0.169 C 
ATOM     35  C   UNL     1      28.941 -24.616 -15.563  0.00  0.00    +0.047 C 
ATOM     36  C   UNL     1      27.869 -22.636 -16.696  0.00  0.00    +0.047 C 
ENDBRANCH  33  34
ENDBRANCH  32  33
ENDBRANCH  30  32
ENDBRANCH  29  30
ENDBRANCH  28  29
ENDBRANCH   9  28
TORSDOF 13
ENDMDL
MODEL 7
REMARK VINA RESULT:     -10.3      2.994      5.788
REMARK  Name = 50902259
REMARK  13 active torsions:
REMARK  status: ('A' for Active; 'I' for Inactive)
REMARK    1  A    between atoms: C_4  and  C_13
REMARK    2  A    between atoms: C_5  and  O_11
REMARK    3  A    between atoms: C_9  and  C_28
REMARK    4  A    between atoms: C_14  and  C_15
REMARK    5  A    between atoms: C_15  and  O_16
REMARK    6  A    between atoms: C_15  and  C_18
REMARK    7  A    between atoms: C_18  and  O_19
REMARK    8  A    between atoms: O_19  and  C_22
REMARK    9  A    between atoms: C_28  and  C_29
REMARK   10  A    between atoms: C_29  and  C_30
REMARK   11  A    between atoms: C_30  and  C_32
REMARK   12  A    between atoms: C_32  and  O_33
REMARK   13  A    between atoms: O_33  and  C_34
REMARK                            x       y       z     vdW  Elec       q    Type
REMARK                         _______ _______ _______ _____ _____    ______ ____
ROOT
ATOM      1  O   UNL     1      35.933 -21.653 -19.676  0.00  0.00    -0.356 OA
ATOM      2  C   UNL     1      34.619 -19.651 -20.417  0.00  0.00    +0.034 C 
ATOM      3  C   UNL     1      35.942 -20.252 -19.889  0.00  0.00    +0.118 C 
ATOM      4  C   UNL     1      34.998 -18.916 -21.729  0.00  0.00    +0.051 C 
ATOM      5  C   UNL     1      36.494 -18.639 -21.582  0.00  0.00    +0.117 C 
ATOM      6  C   UNL     1      36.991 -19.926 -20.951  0.00  0.00    +0.059 C 
ATOM      7  C   UNL     1      33.467 -20.634 -20.648  0.00  0.00    +0.003 C 
ATOM      8  C   UNL     1      32.939 -21.275 -19.365  0.00  0.00    +0.003 C 
ATOM      9  C   UNL     1      33.784 -22.452 -18.859  0.00  0.00    +0.030 C 
ATOM     10  C   UNL     1      35.217 -22.049 -18.510  0.00  0.00    +0.142 C 
ENDROOT
BRANCH   5  11
ATOM     11  O   UNL     1      37.124 -18.439 -22.834  0.00  0.00    -0.384 OA
ATOM     12  H   UNL     1      36.763 -17.643 -23.255  0.00  0.00    +0.210 HD
ENDBRANCH   5  11
BRANCH   4  13
ATOM     13  C   UNL     1      34.203 -17.673 -21.966  0.00  0.00    -0.026 C 
ATOM     14  C   UNL     1      34.282 -16.577 -21.195  0.00  0.00    +0.002 C 
BRANCH  14  15
ATOM     15  C   UNL     1      33.482 -15.328 -21.434  0.00  0.00    +0.176 C 
BRANCH  15  16
ATOM     16  O   UNL     1      33.089 -14.818 -20.163  0.00  0.00    -0.376 OA
ATOM     17  H   UNL     1      32.852 -15.554 -19.578  0.00  0.00    +0.211 HD
ENDBRANCH  15  16
BRANCH  15  18
ATOM     18  C   UNL     1      34.300 -14.267 -22.166  0.00  0.00    +0.239 C 
BRANCH  18  19
ATOM     19  O   UNL     1      33.433 -13.308 -22.755  0.00  0.00    -0.470 OA
BRANCH  19  22
ATOM     20  F   UNL     1      34.234 -11.042 -24.102  0.00  0.00    -0.201 F 
ATOM     21  F   UNL     1      32.499 -15.384 -26.939  0.00  0.00    -0.204 F 
ATOM     22  C   UNL     1      33.400 -13.261 -24.124  0.00  0.00    +0.168 C 
ATOM     23  C   UNL     1      33.808 -12.107 -24.794  0.00  0.00    +0.174 C 
ATOM     24  C   UNL     1      32.957 -14.368 -24.849  0.00  0.00    +0.069 C 
ATOM     25  C   UNL     1      32.923 -14.321 -26.243  0.00  0.00    +0.143 C 
ATOM     26  C   UNL     1      33.774 -12.060 -26.188  0.00  0.00    +0.035 C 
ATOM     27  C   UNL     1      33.331 -13.167 -26.912  0.00  0.00    +0.032 C 
ENDBRANCH  19  22
ENDBRANCH  18  19
ENDBRANCH  15  18
ENDBRANCH  14  15
ENDBRANCH   4  13
BRANCH   9  28
ATOM     28  C   UNL     1      33.110 -23.087 -17.640  0.00  0.00    +0.003 C 
BRANCH  28  29
ATOM     29  C   UNL     1      34.140 -23.485 -16.589  0.00  0.00    +0.012 C 
BRANCH  29  30
ATOM     30  C   UNL     1      33.558 -23.367 -15.181  0.00  0.00    +0.110 C 
BRANCH  30  32
ATOM     31  O   UNL     1      34.084 -24.277 -12.987  0.00  0.00    -0.250 OA
ATOM     32  C   UNL     1      34.267 -24.270 -14.197  0.00  0.00    +0.317 C 
BRANCH  32  33
ATOM     33  O   UNL     1      35.140 -25.068 -14.879  0.00  0.00    -0.452 OA
BRANCH  33  34
ATOM     34  C   UNL     1      36.439 -25.202 -14.294  0.00  0.00    +0.169 C 
ATOM     35  C   UNL     1      37.359 -24.133 -14.865  0.00  0.00    +0.047 C 
ATOM     36  C   UNL     1      36.966 -26.604 -14.560  0.00  0.00    +0.047 C 
ENDBRANCH  33  34
ENDBRANCH  32  33
ENDBRANCH  30  32
ENDBRANCH  29  30
ENDBRANCH  28  29
ENDBRANCH   9  28
TORSDOF 13
ENDMDL
MODEL 8
REMARK VINA RESULT:     -10.1      2.132      3.638
REMARK  Name = 50902259
REMARK  13 active torsions:
REMARK  status: ('A' for Active; 'I' for Inactive)
REMARK    1  A    between atoms: C_4  and  C_13
REMARK    2  A    between atoms: C_5  and  O_11
REMARK    3  A    between atoms: C_9  and  C_28
REMARK    4  A    between atoms: C_14  and  C_15
REMARK    5  A    between atoms: C_15  and  O_16
REMARK    6  A    between atoms: C_15  and  C_18
REMARK    7  A    between atoms: C_18  and  O_19
REMARK    8  A    between atoms: O_19  and  C_22
REMARK    9  A    between atoms: C_28  and  C_29
REMARK   10  A    between atoms: C_29  and  C_30
REMARK   11  A    between atoms: C_30  and  C_32
REMARK   12  A    between atoms: C_32  and  O_33
REMARK   13  A    between atoms: O_33  and  C_34
REMARK                            x       y       z     vdW  Elec       q    Type
REMARK                         _______ _______ _______ _____ _____    ______ ____
ROOT
ATOM      1  O   UNL     1      35.802 -20.405 -21.216  0.00  0.00    -0.356 OA
ATOM      2  C   UNL     1      34.259 -18.462 -20.859  0.00  0.00    +0.034 C 
ATOM      3  C   UNL     1      35.698 -19.008 -21.004  0.00  0.00    +0.118 C 
ATOM      4  C   UNL     1      34.126 -17.366 -21.948  0.00  0.00    +0.051 C 
ATOM      5  C   UNL     1      35.567 -16.950 -22.236  0.00  0.00    +0.117 C 
ATOM      6  C   UNL     1      36.290 -18.284 -22.212  0.00  0.00    +0.059 C 
ATOM      7  C   UNL     1      33.126 -19.487 -20.966  0.00  0.00    +0.003 C 
ATOM      8  C   UNL     1      33.108 -20.505 -19.826  0.00  0.00    +0.003 C 
ATOM      9  C   UNL     1      34.108 -21.656 -19.997  0.00  0.00    +0.030 C 
ATOM     10  C   UNL     1      35.560 -21.180 -20.047  0.00  0.00    +0.142 C 
ENDROOT
BRANCH   5  11
ATOM     11  O   UNL     1      35.704 -16.350 -23.512  0.00  0.00    -0.384 OA
ATOM     12  H   UNL     1      36.641 -16.333 -23.763  0.00  0.00    +0.210 HD
ENDBRANCH   5  11
BRANCH   4  13
ATOM     13  C   UNL     1      33.266 -16.216 -21.533  0.00  0.00    -0.026 C 
ATOM     14  C   UNL     1      33.148 -15.080 -22.239  0.00  0.00    +0.002 C 
BRANCH  14  15
ATOM     15  C   UNL     1      32.284 -13.924 -21.820  0.00  0.00    +0.176 C 
BRANCH  15  16
ATOM     16  O   UNL     1      32.575 -13.642 -20.454  0.00  0.00    -0.376 OA
ATOM     17  H   UNL     1      31.972 -14.145 -19.885  0.00  0.00    +0.211 HD
ENDBRANCH  15  16
BRANCH  15  18
ATOM     18  C   UNL     1      32.567 -12.679 -22.656  0.00  0.00    +0.239 C 
BRANCH  18  19
ATOM     19  O   UNL     1      31.538 -11.719 -22.459  0.00  0.00    -0.470 OA
BRANCH  19  22
ATOM     20  F   UNL     1      31.003 -11.131 -19.820  0.00  0.00    -0.201 F 
ATOM     21  F   UNL     1      33.571  -7.438 -22.929  0.00  0.00    -0.204 F 
ATOM     22  C   UNL     1      31.909 -10.514 -21.922  0.00  0.00    +0.168 C 
ATOM     23  C   UNL     1      31.632 -10.229 -20.585  0.00  0.00    +0.174 C 
ATOM     24  C   UNL     1      32.564  -9.570 -22.714  0.00  0.00    +0.069 C 
ATOM     25  C   UNL     1      32.942  -8.343 -22.169  0.00  0.00    +0.143 C 
ATOM     26  C   UNL     1      32.010  -9.002 -20.040  0.00  0.00    +0.035 C 
ATOM     27  C   UNL     1      32.665  -8.059 -20.832  0.00  0.00    +0.032 C 
ENDBRANCH  19  22
ENDBRANCH  18  19
ENDBRANCH  15  18
ENDBRANCH  14  15
ENDBRANCH   4  13
BRANCH   9  28
ATOM     28  C   UNL     1      33.930 -22.670 -18.863  0.00  0.00    +0.003 C 
BRANCH  28  29
ATOM     29  C   UNL     1      32.652 -22.397 -18.079  0.00  0.00    +0.012 C 
BRANCH  29  30
ATOM     30  C   UNL     1      32.584 -23.268 -16.825  0.00  0.00    +0.110 C 
BRANCH  30  32
ATOM     31  O   UNL     1      31.289 -23.036 -14.779  0.00  0.00    -0.250 OA
ATOM     32  C   UNL     1      31.351 -22.977 -15.999  0.00  0.00    +0.317 C 
BRANCH  32  33
ATOM     33  O   UNL     1      30.327 -22.643 -16.837  0.00  0.00    -0.452 OA
BRANCH  33  34
ATOM     34  C   UNL     1      29.070 -23.267 -16.554  0.00  0.00    +0.169 C 
ATOM     35  C   UNL     1      28.262 -22.371 -15.628  0.00  0.00    +0.047 C 
ATOM     36  C   UNL     1      29.319 -24.637 -15.942  0.00  0.00    +0.047 C 
ENDBRANCH  33  34
ENDBRANCH  32  33
ENDBRANCH  30  32
ENDBRANCH  29  30
ENDBRANCH  28  29
ENDBRANCH   9  28
TORSDOF 13
ENDMDL
MODEL 9
REMARK VINA RESULT:     -10.1      3.125      5.516
REMARK  Name = 50902259
REMARK  13 active torsions:
REMARK  status: ('A' for Active; 'I' for Inactive)
REMARK    1  A    between atoms: C_4  and  C_13
REMARK    2  A    between atoms: C_5  and  O_11
REMARK    3  A    between atoms: C_9  and  C_28
REMARK    4  A    between atoms: C_14  and  C_15
REMARK    5  A    between atoms: C_15  and  O_16
REMARK    6  A    between atoms: C_15  and  C_18
REMARK    7  A    between atoms: C_18  and  O_19
REMARK    8  A    between atoms: O_19  and  C_22
REMARK    9  A    between atoms: C_28  and  C_29
REMARK   10  A    between atoms: C_29  and  C_30
REMARK   11  A    between atoms: C_30  and  C_32
REMARK   12  A    between atoms: C_32  and  O_33
REMARK   13  A    between atoms: O_33  and  C_34
REMARK                            x       y       z     vdW  Elec       q    Type
REMARK                         _______ _______ _______ _____ _____    ______ ____
ROOT
ATOM      1  O   UNL     1      36.066 -21.601 -19.668  0.00  0.00    -0.356 OA
ATOM      2  C   UNL     1      34.487 -19.767 -20.322  0.00  0.00    +0.034 C 
ATOM      3  C   UNL     1      35.897 -20.208 -19.867  0.00  0.00    +0.118 C 
ATOM      4  C   UNL     1      34.709 -18.985 -21.643  0.00  0.00    +0.051 C 
ATOM      5  C   UNL     1      36.166 -18.532 -21.567  0.00  0.00    +0.117 C 
ATOM      6  C   UNL     1      36.845 -19.753 -20.976  0.00  0.00    +0.059 C 
ATOM      7  C   UNL     1      33.450 -20.879 -20.506  0.00  0.00    +0.003 C 
ATOM      8  C   UNL     1      33.068 -21.585 -19.206  0.00  0.00    +0.003 C 
ATOM      9  C   UNL     1      34.071 -22.655 -18.755  0.00  0.00    +0.030 C 
ATOM     10  C   UNL     1      35.462 -22.085 -18.473  0.00  0.00    +0.142 C 
ENDROOT
BRANCH   5  11
ATOM     11  O   UNL     1      36.705 -18.252 -22.846  0.00  0.00    -0.384 OA
ATOM     12  H   UNL     1      36.806 -17.293 -22.952  0.00  0.00    +0.210 HD
ENDBRANCH   5  11
BRANCH   4  13
ATOM     13  C   UNL     1      33.760 -17.845 -21.827  0.00  0.00    -0.026 C 
ATOM     14  C   UNL     1      33.829 -16.697 -21.134  0.00  0.00    +0.002 C 
BRANCH  14  15
ATOM     15  C   UNL     1      32.874 -15.552 -21.319  0.00  0.00    +0.176 C 
BRANCH  15  16
ATOM     16  O   UNL     1      32.656 -14.961 -20.041  0.00  0.00    -0.376 OA
ATOM     17  H   UNL     1      31.811 -15.271 -19.682  0.00  0.00    +0.211 HD
ENDBRANCH  15  16
BRANCH  15  18
ATOM     18  C   UNL     1      33.439 -14.497 -22.266  0.00  0.00    +0.239 C 
BRANCH  18  19
ATOM     19  O   UNL     1      33.443 -14.993 -23.597  0.00  0.00    -0.470 OA
BRANCH  19  22
ATOM     20  F   UNL     1      32.809 -15.695 -26.186  0.00  0.00    -0.201 F 
ATOM     21  F   UNL     1      34.261 -10.541 -25.078  0.00  0.00    -0.204 F 
ATOM     22  C   UNL     1      33.489 -14.065 -24.605  0.00  0.00    +0.168 C 
ATOM     23  C   UNL     1      33.165 -14.434 -25.910  0.00  0.00    +0.174 C 
ATOM     24  C   UNL     1      33.860 -12.749 -24.324  0.00  0.00    +0.069 C 
ATOM     25  C   UNL     1      33.906 -11.804 -25.348  0.00  0.00    +0.143 C 
ATOM     26  C   UNL     1      33.212 -13.488 -26.935  0.00  0.00    +0.035 C 
ATOM     27  C   UNL     1      33.583 -12.173 -26.653  0.00  0.00    +0.032 C 
ENDBRANCH  19  22
ENDBRANCH  18  19
ENDBRANCH  15  18
ENDBRANCH  14  15
ENDBRANCH   4  13
BRANCH   9  28
ATOM     28  C   UNL     1      33.540 -23.373 -17.512  0.00  0.00    +0.003 C 
BRANCH  28  29
ATOM     29  C   UNL     1      34.446 -23.130 -16.310  0.00  0.00    +0.012 C 
BRANCH  29  30
ATOM     30  C   UNL     1      34.336 -24.274 -15.302  0.00  0.00    +0.110 C 
BRANCH  30  32
ATOM     31  O   UNL     1      34.025 -23.996 -12.906  0.00  0.00    -0.250 OA
ATOM     32  C   UNL     1      33.605 -23.855 -14.047  0.00  0.00    +0.317 C 
BRANCH  32  33
ATOM     33  O   UNL     1      32.408 -23.300 -14.397  0.00  0.00    -0.452 OA
BRANCH  33  34
ATOM     34  C   UNL     1      31.351 -24.229 -14.656  0.00  0.00    +0.169 C 
ATOM     35  C   UNL     1      30.432 -23.657 -15.726  0.00  0.00    +0.047 C 
ATOM     36  C   UNL     1      30.604 -24.512 -13.361  0.00  0.00    +0.047 C 
ENDBRANCH  33  34
ENDBRANCH  32  33
ENDBRANCH  30  32
ENDBRANCH  29  30
ENDBRANCH  28  29
ENDBRANCH   9  28
TORSDOF 13
ENDMDL
