MODEL 1
REMARK VINA RESULT:      -7.9      0.000      0.000
REMARK  Name = 24971312
REMARK  3 active torsions:
REMARK  status: ('A' for Active; 'I' for Inactive)
REMARK    1  A    between atoms: C_5  and  N_11
REMARK    2  A    between atoms: C_8  and  C_17
REMARK    3  A    between atoms: N_11  and  C_13
REMARK                            x       y       z     vdW  Elec       q    Type
REMARK                         _______ _______ _______ _____ _____    ______ ____
ROOT
ATOM      1 CL   UNL     1      34.523 -18.714 -25.521  0.00  0.00    -0.048 Cl
ATOM      2  N   UNL     1      34.939 -17.094 -21.447  0.00  0.00    -0.151 N 
ATOM      3  N   UNL     1      34.995 -16.357 -20.302  0.00  0.00    -0.172 NA
ATOM      4  N   UNL     1      34.445 -16.814 -23.789  0.00  0.00    -0.376 NA
ATOM      5  C   UNL     1      35.199 -18.467 -21.598  0.00  0.00    +0.126 C 
ATOM      6  C   UNL     1      34.569 -16.300 -22.535  0.00  0.00    +0.205 C 
ATOM      7  C   UNL     1      35.087 -19.008 -22.822  0.00  0.00    +0.076 C 
ATOM      8  C   UNL     1      34.392 -15.025 -22.048  0.00  0.00    +0.202 C 
ATOM      9  C   UNL     1      34.688 -18.083 -23.919  0.00  0.00    +0.193 C 
ATOM     10  C   UNL     1      34.667 -15.122 -20.678  0.00  0.00    +0.115 C 
ENDROOT
BRANCH   5  11
ATOM     11  N   UNL     1      35.555 -19.169 -20.482  0.00  0.00    -0.321 N 
ATOM     12  H   UNL     1      35.968 -18.680 -19.734  0.00  0.00    +0.148 HD
BRANCH  11  13
ATOM     13  C   UNL     1      35.357 -20.588 -20.345  0.00  0.00    +0.070 C 
ATOM     14  C   UNL     1      33.924 -20.855 -19.904  0.00  0.00    +0.021 C 
ATOM     15  C   UNL     1      36.359 -21.147 -19.343  0.00  0.00    +0.021 C 
ENDBRANCH  11  13
ENDBRANCH   5  11
BRANCH   8  17
ATOM     16  N   UNL     1      33.702 -12.939 -23.403  0.00  0.00    -0.195 NA
ATOM     17  C   UNL     1      34.013 -13.877 -22.793  0.00  0.00    +0.087 C 
ENDBRANCH   8  17
TORSDOF 3
ENDMDL
MODEL 2
REMARK VINA RESULT:      -7.8      2.452      3.249
REMARK  Name = 24971312
REMARK  3 active torsions:
REMARK  status: ('A' for Active; 'I' for Inactive)
REMARK    1  A    between atoms: C_5  and  N_11
REMARK    2  A    between atoms: C_8  and  C_17
REMARK    3  A    between atoms: N_11  and  C_13
REMARK                            x       y       z     vdW  Elec       q    Type
REMARK                         _______ _______ _______ _____ _____    ______ ____
ROOT
ATOM      1 CL   UNL     1      32.870 -13.920 -20.630  0.00  0.00    -0.048 Cl
ATOM      2  N   UNL     1      34.779 -17.232 -22.816  0.00  0.00    -0.151 N 
ATOM      3  N   UNL     1      35.278 -18.128 -23.714  0.00  0.00    -0.172 NA
ATOM      4  N   UNL     1      33.519 -15.178 -22.777  0.00  0.00    -0.376 NA
ATOM      5  C   UNL     1      34.885 -17.271 -21.415  0.00  0.00    +0.126 C 
ATOM      6  C   UNL     1      34.105 -16.196 -23.466  0.00  0.00    +0.205 C 
ATOM      7  C   UNL     1      34.318 -16.284 -20.703  0.00  0.00    +0.076 C 
ATOM      8  C   UNL     1      34.187 -16.459 -24.814  0.00  0.00    +0.202 C 
ATOM      9  C   UNL     1      33.622 -15.223 -21.483  0.00  0.00    +0.193 C 
ATOM     10  C   UNL     1      34.916 -17.652 -24.904  0.00  0.00    +0.115 C 
ENDROOT
BRANCH   5  11
ATOM     11  N   UNL     1      35.561 -18.321 -20.861  0.00  0.00    -0.321 N 
ATOM     12  H   UNL     1      36.360 -18.129 -20.318  0.00  0.00    +0.148 HD
BRANCH  11  13
ATOM     13  C   UNL     1      35.166 -19.694 -21.033  0.00  0.00    +0.070 C 
ATOM     14  C   UNL     1      33.696 -19.843 -20.663  0.00  0.00    +0.021 C 
ATOM     15  C   UNL     1      36.048 -20.589 -20.172  0.00  0.00    +0.021 C 
ENDBRANCH  11  13
ENDBRANCH   5  11
BRANCH   8  17
ATOM     16  N   UNL     1      33.199 -15.034 -26.726  0.00  0.00    -0.195 NA
ATOM     17  C   UNL     1      33.644 -15.675 -25.867  0.00  0.00    +0.087 C 
ENDBRANCH   8  17
TORSDOF 3
ENDMDL
MODEL 3
REMARK VINA RESULT:      -7.4      8.961     11.057
REMARK  Name = 24971312
REMARK  3 active torsions:
REMARK  status: ('A' for Active; 'I' for Inactive)
REMARK    1  A    between atoms: C_5  and  N_11
REMARK    2  A    between atoms: C_8  and  C_17
REMARK    3  A    between atoms: N_11  and  C_13
REMARK                            x       y       z     vdW  Elec       q    Type
REMARK                         _______ _______ _______ _____ _____    ______ ____
ROOT
ATOM      1 CL   UNL     1      37.184 -21.443 -17.120  0.00  0.00    -0.048 Cl
ATOM      2  N   UNL     1      36.320 -24.335 -13.913  0.00  0.00    -0.151 N 
ATOM      3  N   UNL     1      36.315 -25.300 -12.950  0.00  0.00    -0.172 NA
ATOM      4  N   UNL     1      37.834 -23.328 -15.494  0.00  0.00    -0.376 NA
ATOM      5  C   UNL     1      35.250 -23.518 -14.315  0.00  0.00    +0.126 C 
ATOM      6  C   UNL     1      37.581 -24.226 -14.503  0.00  0.00    +0.205 C 
ATOM      7  C   UNL     1      35.464 -22.620 -15.291  0.00  0.00    +0.076 C 
ATOM      8  C   UNL     1      38.385 -25.157 -13.887  0.00  0.00    +0.202 C 
ATOM      9  C   UNL     1      36.839 -22.577 -15.860  0.00  0.00    +0.193 C 
ATOM     10  C   UNL     1      37.557 -25.782 -12.947  0.00  0.00    +0.115 C 
ENDROOT
BRANCH   5  11
ATOM     11  N   UNL     1      34.051 -23.691 -13.685  0.00  0.00    -0.321 N 
ATOM     12  H   UNL     1      34.023 -23.614 -12.703  0.00  0.00    +0.148 HD
BRANCH  11  13
ATOM     13  C   UNL     1      32.826 -23.980 -14.382  0.00  0.00    +0.070 C 
ATOM     14  C   UNL     1      31.951 -22.733 -14.400  0.00  0.00    +0.021 C 
ATOM     15  C   UNL     1      32.117 -25.145 -13.705  0.00  0.00    +0.021 C 
ENDBRANCH  11  13
ENDBRANCH   5  11
BRANCH   8  17
ATOM     16  N   UNL     1      40.875 -25.617 -14.387  0.00  0.00    -0.195 NA
ATOM     17  C   UNL     1      39.756 -25.410 -14.161  0.00  0.00    +0.087 C 
ENDBRANCH   8  17
TORSDOF 3
ENDMDL
MODEL 4
REMARK VINA RESULT:      -7.4      6.559      9.747
REMARK  Name = 24971312
REMARK  3 active torsions:
REMARK  status: ('A' for Active; 'I' for Inactive)
REMARK    1  A    between atoms: C_5  and  N_11
REMARK    2  A    between atoms: C_8  and  C_17
REMARK    3  A    between atoms: N_11  and  C_13
REMARK                            x       y       z     vdW  Elec       q    Type
REMARK                         _______ _______ _______ _____ _____    ______ ____
ROOT
ATOM      1 CL   UNL     1      29.853 -23.247 -14.965  0.00  0.00    -0.048 Cl
ATOM      2  N   UNL     1      34.046 -23.500 -16.288  0.00  0.00    -0.151 N 
ATOM      3  N   UNL     1      35.393 -23.645 -16.437  0.00  0.00    -0.172 NA
ATOM      4  N   UNL     1      32.360 -23.669 -14.574  0.00  0.00    -0.376 NA
ATOM      5  C   UNL     1      33.106 -23.149 -17.271  0.00  0.00    +0.126 C 
ATOM      6  C   UNL     1      33.660 -23.751 -14.969  0.00  0.00    +0.205 C 
ATOM      7  C   UNL     1      31.814 -23.058 -16.917  0.00  0.00    +0.076 C 
ATOM      8  C   UNL     1      34.808 -24.062 -14.277  0.00  0.00    +0.202 C 
ATOM      9  C   UNL     1      31.498 -23.344 -15.490  0.00  0.00    +0.193 C 
ATOM     10  C   UNL     1      35.834 -23.981 -15.226  0.00  0.00    +0.115 C 
ENDROOT
BRANCH   5  11
ATOM     11  N   UNL     1      33.569 -22.920 -18.535  0.00  0.00    -0.321 N 
ATOM     12  H   UNL     1      33.546 -23.661 -19.184  0.00  0.00    +0.148 HD
BRANCH  11  13
ATOM     13  C   UNL     1      34.091 -21.650 -18.967  0.00  0.00    +0.070 C 
ATOM     14  C   UNL     1      33.119 -21.018 -19.956  0.00  0.00    +0.021 C 
ATOM     15  C   UNL     1      35.465 -21.849 -19.592  0.00  0.00    +0.021 C 
ENDBRANCH  11  13
ENDBRANCH   5  11
BRANCH   8  17
ATOM     16  N   UNL     1      34.985 -24.659 -11.772  0.00  0.00    -0.195 NA
ATOM     17  C   UNL     1      34.905 -24.391 -12.898  0.00  0.00    +0.087 C 
ENDBRANCH   8  17
TORSDOF 3
ENDMDL
MODEL 5
REMARK VINA RESULT:      -7.3      8.674     10.531
REMARK  Name = 24971312
REMARK  3 active torsions:
REMARK  status: ('A' for Active; 'I' for Inactive)
REMARK    1  A    between atoms: C_5  and  N_11
REMARK    2  A    between atoms: C_8  and  C_17
REMARK    3  A    between atoms: N_11  and  C_13
REMARK                            x       y       z     vdW  Elec       q    Type
REMARK                         _______ _______ _______ _____ _____    ______ ____
ROOT
ATOM      1 CL   UNL     1      36.824 -22.029 -17.444  0.00  0.00    -0.048 Cl
ATOM      2  N   UNL     1      34.643 -23.717 -14.010  0.00  0.00    -0.151 N 
ATOM      3  N   UNL     1      34.205 -24.208 -12.816  0.00  0.00    -0.172 NA
ATOM      4  N   UNL     1      36.647 -22.818 -15.002  0.00  0.00    -0.376 NA
ATOM      5  C   UNL     1      33.911 -23.577 -15.201  0.00  0.00    +0.126 C 
ATOM      6  C   UNL     1      35.985 -23.338 -13.932  0.00  0.00    +0.205 C 
ATOM      7  C   UNL     1      34.532 -23.068 -16.278  0.00  0.00    +0.076 C 
ATOM      8  C   UNL     1      36.394 -23.604 -12.646  0.00  0.00    +0.202 C 
ATOM      9  C   UNL     1      35.962 -22.692 -16.099  0.00  0.00    +0.193 C 
ATOM     10  C   UNL     1      35.264 -24.134 -12.011  0.00  0.00    +0.115 C 
ENDROOT
BRANCH   5  11
ATOM     11  N   UNL     1      32.604 -23.973 -15.190  0.00  0.00    -0.321 N 
ATOM     12  H   UNL     1      32.403 -24.927 -15.331  0.00  0.00    +0.148 HD
BRANCH  11  13
ATOM     13  C   UNL     1      31.505 -23.067 -14.984  0.00  0.00    +0.070 C 
ATOM     14  C   UNL     1      30.682 -23.538 -13.792  0.00  0.00    +0.021 C 
ATOM     15  C   UNL     1      30.659 -22.996 -16.248  0.00  0.00    +0.021 C 
ENDBRANCH  11  13
ENDBRANCH   5  11
BRANCH   8  17
ATOM     16  N   UNL     1      38.745 -23.197 -11.661  0.00  0.00    -0.195 NA
ATOM     17  C   UNL     1      37.687 -23.380 -12.103  0.00  0.00    +0.087 C 
ENDBRANCH   8  17
TORSDOF 3
ENDMDL
MODEL 6
REMARK VINA RESULT:      -7.2      7.524      9.140
REMARK  Name = 24971312
REMARK  3 active torsions:
REMARK  status: ('A' for Active; 'I' for Inactive)
REMARK    1  A    between atoms: C_5  and  N_11
REMARK    2  A    between atoms: C_8  and  C_17
REMARK    3  A    between atoms: N_11  and  C_13
REMARK                            x       y       z     vdW  Elec       q    Type
REMARK                         _______ _______ _______ _____ _____    ______ ____
ROOT
ATOM      1 CL   UNL     1      33.848 -22.371 -19.370  0.00  0.00    -0.048 Cl
ATOM      2  N   UNL     1      32.280 -23.436 -15.395  0.00  0.00    -0.151 N 
ATOM      3  N   UNL     1      31.552 -23.704 -14.274  0.00  0.00    -0.172 NA
ATOM      4  N   UNL     1      31.951 -22.687 -17.662  0.00  0.00    -0.376 NA
ATOM      5  C   UNL     1      33.671 -23.545 -15.562  0.00  0.00    +0.126 C 
ATOM      6  C   UNL     1      31.452 -23.014 -16.438  0.00  0.00    +0.205 C 
ATOM      7  C   UNL     1      34.198 -23.231 -16.757  0.00  0.00    +0.076 C 
ATOM      8  C   UNL     1      30.167 -23.018 -15.946  0.00  0.00    +0.202 C 
ATOM      9  C   UNL     1      33.238 -22.791 -17.807  0.00  0.00    +0.193 C 
ATOM     10  C   UNL     1      30.291 -23.449 -14.620  0.00  0.00    +0.115 C 
ENDROOT
BRANCH   5  11
ATOM     11  N   UNL     1      34.405 -23.965 -14.490  0.00  0.00    -0.321 N 
ATOM     12  H   UNL     1      33.926 -24.268 -13.685  0.00  0.00    +0.148 HD
BRANCH  11  13
ATOM     13  C   UNL     1      35.844 -23.987 -14.477  0.00  0.00    +0.070 C 
ATOM     14  C   UNL     1      36.326 -25.416 -14.688  0.00  0.00    +0.021 C 
ATOM     15  C   UNL     1      36.350 -23.420 -13.158  0.00  0.00    +0.021 C 
ENDBRANCH  11  13
ENDBRANCH   5  11
BRANCH   8  17
ATOM     16  N   UNL     1      28.024 -22.366 -17.228  0.00  0.00    -0.195 NA
ATOM     17  C   UNL     1      28.987 -22.660 -16.652  0.00  0.00    +0.087 C 
ENDBRANCH   8  17
TORSDOF 3
ENDMDL
MODEL 7
REMARK VINA RESULT:      -7.2      6.107      9.240
REMARK  Name = 24971312
REMARK  3 active torsions:
REMARK  status: ('A' for Active; 'I' for Inactive)
REMARK    1  A    between atoms: C_5  and  N_11
REMARK    2  A    between atoms: C_8  and  C_17
REMARK    3  A    between atoms: N_11  and  C_13
REMARK                            x       y       z     vdW  Elec       q    Type
REMARK                         _______ _______ _______ _____ _____    ______ ____
ROOT
ATOM      1 CL   UNL     1      36.138 -24.099 -15.261  0.00  0.00    -0.048 Cl
ATOM      2  N   UNL     1      32.246 -22.902 -16.937  0.00  0.00    -0.151 N 
ATOM      3  N   UNL     1      30.943 -22.605 -17.212  0.00  0.00    -0.172 NA
ATOM      4  N   UNL     1      33.591 -23.762 -15.133  0.00  0.00    -0.376 NA
ATOM      5  C   UNL     1      33.356 -22.760 -17.786  0.00  0.00    +0.126 C 
ATOM      6  C   UNL     1      32.381 -23.396 -15.638  0.00  0.00    +0.205 C 
ATOM      7  C   UNL     1      34.566 -23.112 -17.321  0.00  0.00    +0.076 C 
ATOM      8  C   UNL     1      31.120 -23.407 -15.088  0.00  0.00    +0.202 C 
ATOM      9  C   UNL     1      34.612 -23.627 -15.925  0.00  0.00    +0.193 C 
ATOM     10  C   UNL     1      30.284 -22.913 -16.096  0.00  0.00    +0.115 C 
ENDROOT
BRANCH   5  11
ATOM     11  N   UNL     1      33.133 -22.270 -19.041  0.00  0.00    -0.321 N 
ATOM     12  H   UNL     1      32.575 -22.797 -19.657  0.00  0.00    +0.148 HD
BRANCH  11  13
ATOM     13  C   UNL     1      33.675 -21.021 -19.510  0.00  0.00    +0.070 C 
ATOM     14  C   UNL     1      32.741 -20.432 -20.559  0.00  0.00    +0.021 C 
ATOM     15  C   UNL     1      35.070 -21.251 -20.076  0.00  0.00    +0.021 C 
ENDBRANCH  11  13
ENDBRANCH   5  11
BRANCH   8  17
ATOM     16  N   UNL     1      30.481 -24.179 -12.710  0.00  0.00    -0.195 NA
ATOM     17  C   UNL     1      30.769 -23.832 -13.779  0.00  0.00    +0.087 C 
ENDBRANCH   8  17
TORSDOF 3
ENDMDL
MODEL 8
REMARK VINA RESULT:      -7.2      2.235      3.331
REMARK  Name = 24971312
REMARK  3 active torsions:
REMARK  status: ('A' for Active; 'I' for Inactive)
REMARK    1  A    between atoms: C_5  and  N_11
REMARK    2  A    between atoms: C_8  and  C_17
REMARK    3  A    between atoms: N_11  and  C_13
REMARK                            x       y       z     vdW  Elec       q    Type
REMARK                         _______ _______ _______ _____ _____    ______ ____
ROOT
ATOM      1 CL   UNL     1      33.046 -14.205 -26.653  0.00  0.00    -0.048 Cl
ATOM      2  N   UNL     1      33.710 -15.253 -22.428  0.00  0.00    -0.151 N 
ATOM      3  N   UNL     1      33.760 -15.359 -21.069  0.00  0.00    -0.172 NA
ATOM      4  N   UNL     1      32.745 -13.840 -24.125  0.00  0.00    -0.376 NA
ATOM      5  C   UNL     1      34.316 -16.093 -23.378  0.00  0.00    +0.126 C 
ATOM      6  C   UNL     1      32.942 -14.153 -22.815  0.00  0.00    +0.205 C 
ATOM      7  C   UNL     1      34.144 -15.814 -24.680  0.00  0.00    +0.076 C 
ATOM      8  C   UNL     1      32.502 -13.554 -21.656  0.00  0.00    +0.202 C 
ATOM      9  C   UNL     1      33.310 -14.622 -24.995  0.00  0.00    +0.193 C 
ATOM     10  C   UNL     1      33.033 -14.336 -20.624  0.00  0.00    +0.115 C 
ENDROOT
BRANCH   5  11
ATOM     11  N   UNL     1      35.051 -17.146 -22.912  0.00  0.00    -0.321 N 
ATOM     12  H   UNL     1      35.989 -16.987 -22.661  0.00  0.00    +0.148 HD
BRANCH  11  13
ATOM     13  C   UNL     1      34.522 -18.477 -22.772  0.00  0.00    +0.070 C 
ATOM     14  C   UNL     1      35.035 -19.087 -21.474  0.00  0.00    +0.021 C 
ATOM     15  C   UNL     1      34.927 -19.316 -23.977  0.00  0.00    +0.021 C 
ENDBRANCH  11  13
ENDBRANCH   5  11
BRANCH   8  17
ATOM     16  N   UNL     1      31.017 -11.450 -21.475  0.00  0.00    -0.195 NA
ATOM     17  C   UNL     1      31.685 -12.396 -21.557  0.00  0.00    +0.087 C 
ENDBRANCH   8  17
TORSDOF 3
ENDMDL
MODEL 9
REMARK VINA RESULT:      -7.2      7.759      9.801
REMARK  Name = 24971312
REMARK  3 active torsions:
REMARK  status: ('A' for Active; 'I' for Inactive)
REMARK    1  A    between atoms: C_5  and  N_11
REMARK    2  A    between atoms: C_8  and  C_17
REMARK    3  A    between atoms: N_11  and  C_13
REMARK                            x       y       z     vdW  Elec       q    Type
REMARK                         _______ _______ _______ _____ _____    ______ ____
ROOT
ATOM      1 CL   UNL     1      33.820 -22.542 -19.207  0.00  0.00    -0.048 Cl
ATOM      2  N   UNL     1      33.493 -23.665 -14.961  0.00  0.00    -0.151 N 
ATOM      3  N   UNL     1      33.665 -24.012 -13.654  0.00  0.00    -0.172 NA
ATOM      4  N   UNL     1      34.811 -23.156 -16.914  0.00  0.00    -0.376 NA
ATOM      5  C   UNL     1      32.282 -23.475 -15.647  0.00  0.00    +0.126 C 
ATOM      6  C   UNL     1      34.725 -23.503 -15.601  0.00  0.00    +0.205 C 
ATOM      7  C   UNL     1      32.329 -23.133 -16.945  0.00  0.00    +0.076 C 
ATOM      8  C   UNL     1      35.693 -23.760 -14.658  0.00  0.00    +0.202 C 
ATOM      9  C   UNL     1      33.686 -22.983 -17.540  0.00  0.00    +0.193 C 
ATOM     10  C   UNL     1      34.986 -24.064 -13.489  0.00  0.00    +0.115 C 
ENDROOT
BRANCH   5  11
ATOM     11  N   UNL     1      31.124 -23.655 -14.946  0.00  0.00    -0.321 N 
ATOM     12  H   UNL     1      31.161 -23.615 -13.963  0.00  0.00    +0.148 HD
BRANCH  11  13
ATOM     13  C   UNL     1      29.851 -23.901 -15.571  0.00  0.00    +0.070 C 
ATOM     14  C   UNL     1      29.009 -22.633 -15.512  0.00  0.00    +0.021 C 
ATOM     15  C   UNL     1      29.156 -25.061 -14.872  0.00  0.00    +0.021 C 
ENDBRANCH  11  13
ENDBRANCH   5  11
BRANCH   8  17
ATOM     16  N   UNL     1      38.249 -23.681 -15.011  0.00  0.00    -0.195 NA
ATOM     17  C   UNL     1      37.100 -23.717 -14.853  0.00  0.00    +0.087 C 
ENDBRANCH   8  17
TORSDOF 3
ENDMDL
