MODEL 1
REMARK VINA RESULT:     -10.1      0.000      0.000
REMARK  Name = 16214776
REMARK  6 active torsions:
REMARK  status: ('A' for Active; 'I' for Inactive)
REMARK    1  A    between atoms: C_1  and  C_2
REMARK    2  A    between atoms: C_1  and  C_10
REMARK    3  A    between atoms: C_1  and  N_18
REMARK    4  A    between atoms: N_9  and  C_13
REMARK    5  A    between atoms: N_18  and  S_20
REMARK    6  A    between atoms: S_20  and  C_26
REMARK                            x       y       z     vdW  Elec       q    Type
REMARK                         _______ _______ _______ _____ _____    ______ ____
ROOT
ATOM      1  C   UNL     1      34.395 -23.841 -16.356  0.00  0.00    +0.173 C 
ENDROOT
BRANCH   1   2
ATOM      2  C   UNL     1      35.527 -24.114 -15.392  0.00  0.00    +0.002 C 
ATOM      3  C   UNL     1      35.787 -25.417 -15.002  0.00  0.00    -0.002 C 
ATOM      4  C   UNL     1      36.283 -23.054 -14.918  0.00  0.00    -0.002 C 
ATOM      5  C   UNL     1      36.832 -25.668 -14.112  0.00  0.00    -0.000 C 
ATOM      6  C   UNL     1      37.328 -23.306 -14.028  0.00  0.00    -0.000 C 
ATOM      7  C   UNL     1      37.602 -24.613 -13.626  0.00  0.00    -0.000 C 
ENDBRANCH   1   2
BRANCH   1  10
ATOM      8  O   UNL     1      33.081 -23.189 -14.449  0.00  0.00    -0.273 OA
ATOM      9  N   UNL     1      31.987 -23.888 -16.404  0.00  0.00    -0.282 N 
ATOM     10  C   UNL     1      33.091 -23.589 -15.611  0.00  0.00    +0.246 C 
ATOM     11  H   UNL     1      32.179 -24.213 -17.313  0.00  0.00    +0.155 HD
BRANCH   9  13
ATOM     12  N   UNL     1      27.939 -23.562 -15.371  0.00  0.00    -0.242 NA
ATOM     13  C   UNL     1      30.619 -23.778 -16.056  0.00  0.00    +0.053 C 
ATOM     14  C   UNL     1      30.005 -24.819 -15.389  0.00  0.00    +0.035 C 
ATOM     15  C   UNL     1      29.926 -22.632 -16.387  0.00  0.00    +0.035 C 
ATOM     16  C   UNL     1      28.665 -24.662 -15.070  0.00  0.00    +0.100 C 
ATOM     17  C   UNL     1      28.590 -22.574 -16.024  0.00  0.00    +0.100 C 
ENDBRANCH   9  13
ENDBRANCH   1  10
BRANCH   1  18
ATOM     18  N   UNL     1      34.630 -22.665 -17.205  0.00  0.00    -0.171 NA
ATOM     19  H   UNL     1      34.317 -21.852 -16.676  0.00  0.00    +0.149 HD
BRANCH  18  20
ATOM     20  S   UNL     1      33.892 -22.566 -18.744  0.00  0.00    +0.049 S 
ATOM     21  O   UNL     1      32.532 -22.067 -18.576  0.00  0.00    -0.157 OA
ATOM     22  O   UNL     1      34.107 -23.826 -19.444  0.00  0.00    -0.157 OA
BRANCH  20  26
ATOM     23  S   UNL     1      32.907 -18.657 -21.421  0.00  0.00    +0.116 S 
ATOM     24  N   UNL     1      32.996 -20.029 -20.489  0.00  0.00    -0.193 NA
ATOM     25  N   UNL     1      34.519 -18.304 -21.610  0.00  0.00    -0.194 NA
ATOM     26  C   UNL     1      34.847 -21.343 -19.543  0.00  0.00    +0.209 C 
ATOM     27  C   UNL     1      34.301 -20.269 -20.286  0.00  0.00    +0.110 A 
ATOM     28  C   UNL     1      36.249 -21.388 -19.469  0.00  0.00    +0.000 C 
ATOM     29  C   UNL     1      35.199 -19.252 -20.947  0.00  0.00    +0.089 A 
ATOM     30  C   UNL     1      37.091 -20.435 -20.089  0.00  0.00    -0.022 C 
ATOM     31  C   UNL     1      36.607 -19.350 -20.839  0.00  0.00    +0.073 C 
ENDBRANCH  20  26
ENDBRANCH  18  20
ENDBRANCH   1  18
TORSDOF 6
ENDMDL
MODEL 2
REMARK VINA RESULT:     -10.0      9.294     13.706
REMARK  Name = 16214776
REMARK  6 active torsions:
REMARK  status: ('A' for Active; 'I' for Inactive)
REMARK    1  A    between atoms: C_1  and  C_2
REMARK    2  A    between atoms: C_1  and  C_10
REMARK    3  A    between atoms: C_1  and  N_18
REMARK    4  A    between atoms: N_9  and  C_13
REMARK    5  A    between atoms: N_18  and  S_20
REMARK    6  A    between atoms: S_20  and  C_26
REMARK                            x       y       z     vdW  Elec       q    Type
REMARK                         _______ _______ _______ _____ _____    ______ ____
ROOT
ATOM      1  C   UNL     1      32.796 -11.898 -23.578  0.00  0.00    +0.173 C 
ENDROOT
BRANCH   1   2
ATOM      2  C   UNL     1      33.792 -11.361 -24.582  0.00  0.00    +0.002 C 
ATOM      3  C   UNL     1      34.558 -10.256 -24.251  0.00  0.00    -0.002 C 
ATOM      4  C   UNL     1      33.919 -11.987 -25.811  0.00  0.00    -0.002 C 
ATOM      5  C   UNL     1      35.477  -9.761 -25.177  0.00  0.00    -0.000 C 
ATOM      6  C   UNL     1      34.838 -11.491 -26.737  0.00  0.00    -0.000 C 
ATOM      7  C   UNL     1      35.617 -10.378 -26.419  0.00  0.00    -0.000 C 
ENDBRANCH   1   2
BRANCH   1  10
ATOM      8  O   UNL     1      32.033 -14.159 -23.881  0.00  0.00    -0.273 OA
ATOM      9  N   UNL     1      34.079 -13.781 -22.797  0.00  0.00    -0.282 N 
ATOM     10  C   UNL     1      32.908 -13.411 -23.453  0.00  0.00    +0.246 C 
ATOM     11  H   UNL     1      34.666 -13.047 -22.507  0.00  0.00    +0.155 HD
BRANCH   9  13
ATOM     12  N   UNL     1      35.397 -17.661 -21.919  0.00  0.00    -0.242 NA
ATOM     13  C   UNL     1      34.524 -15.092 -22.500  0.00  0.00    +0.053 C 
ATOM     14  C   UNL     1      34.941 -15.914 -23.527  0.00  0.00    +0.035 C 
ATOM     15  C   UNL     1      34.534 -15.524 -21.190  0.00  0.00    +0.035 C 
ATOM     16  C   UNL     1      35.368 -17.187 -23.185  0.00  0.00    +0.100 C 
ATOM     17  C   UNL     1      34.977 -16.815 -20.952  0.00  0.00    +0.100 C 
ENDBRANCH   9  13
ENDBRANCH   1  10
BRANCH   1  18
ATOM     18  N   UNL     1      32.984 -11.348 -22.228  0.00  0.00    -0.171 NA
ATOM     19  H   UNL     1      33.477 -12.058 -21.687  0.00  0.00    +0.149 HD
BRANCH  18  20
ATOM     20  S   UNL     1      31.624 -10.879 -21.305  0.00  0.00    +0.049 S 
ATOM     21  O   UNL     1      31.739 -11.467 -19.975  0.00  0.00    -0.157 OA
ATOM     22  O   UNL     1      30.422 -11.125 -22.091  0.00  0.00    -0.157 OA
BRANCH  20  26
ATOM     23  S   UNL     1      31.258  -7.148 -24.364  0.00  0.00    +0.116 S 
ATOM     24  N   UNL     1      31.321  -8.572 -23.511  0.00  0.00    -0.193 NA
ATOM     25  N   UNL     1      31.661  -6.057 -23.179  0.00  0.00    -0.194 NA
ATOM     26  C   UNL     1      31.832  -9.151 -21.176  0.00  0.00    +0.209 C 
ATOM     27  C   UNL     1      31.661  -8.248 -22.253  0.00  0.00    +0.110 A 
ATOM     28  C   UNL     1      32.193  -8.577 -19.945  0.00  0.00    +0.000 C 
ATOM     29  C   UNL     1      31.861  -6.766 -22.057  0.00  0.00    +0.089 A 
ATOM     30  C   UNL     1      32.380  -7.187 -19.762  0.00  0.00    -0.022 C 
ATOM     31  C   UNL     1      32.225  -6.244 -20.793  0.00  0.00    +0.073 C 
ENDBRANCH  20  26
ENDBRANCH  18  20
ENDBRANCH   1  18
TORSDOF 6
ENDMDL
MODEL 3
REMARK VINA RESULT:     -10.0      2.034      5.291
REMARK  Name = 16214776
REMARK  6 active torsions:
REMARK  status: ('A' for Active; 'I' for Inactive)
REMARK    1  A    between atoms: C_1  and  C_2
REMARK    2  A    between atoms: C_1  and  C_10
REMARK    3  A    between atoms: C_1  and  N_18
REMARK    4  A    between atoms: N_9  and  C_13
REMARK    5  A    between atoms: N_18  and  S_20
REMARK    6  A    between atoms: S_20  and  C_26
REMARK                            x       y       z     vdW  Elec       q    Type
REMARK                         _______ _______ _______ _____ _____    ______ ____
ROOT
ATOM      1  C   UNL     1      34.309 -23.059 -15.455  0.00  0.00    +0.173 C 
ENDROOT
BRANCH   1   2
ATOM      2  C   UNL     1      33.014 -23.496 -14.809  0.00  0.00    +0.002 C 
ATOM      3  C   UNL     1      32.895 -24.792 -14.339  0.00  0.00    -0.002 C 
ATOM      4  C   UNL     1      31.973 -22.589 -14.698  0.00  0.00    -0.002 C 
ATOM      5  C   UNL     1      31.700 -25.196 -13.741  0.00  0.00    -0.000 C 
ATOM      6  C   UNL     1      30.778 -22.992 -14.101  0.00  0.00    -0.000 C 
ATOM      7  C   UNL     1      30.642 -24.295 -13.622  0.00  0.00    -0.000 C 
ENDBRANCH   1   2
BRANCH   1  10
ATOM      8  O   UNL     1      35.622 -22.929 -13.443  0.00  0.00    -0.273 OA
ATOM      9  N   UNL     1      36.389 -24.253 -15.222  0.00  0.00    -0.282 N 
ATOM     10  C   UNL     1      35.503 -23.398 -14.572  0.00  0.00    +0.246 C 
ATOM     11  H   UNL     1      36.143 -24.522 -16.136  0.00  0.00    +0.155 HD
BRANCH   9  13
ATOM     12  N   UNL     1      39.981 -25.818 -13.735  0.00  0.00    -0.242 NA
ATOM     13  C   UNL     1      37.602 -24.782 -14.719  0.00  0.00    +0.053 C 
ATOM     14  C   UNL     1      38.775 -24.563 -15.414  0.00  0.00    +0.035 C 
ATOM     15  C   UNL     1      37.590 -25.506 -13.545  0.00  0.00    +0.035 C 
ATOM     16  C   UNL     1      39.935 -25.101 -14.881  0.00  0.00    +0.100 C 
ATOM     17  C   UNL     1      38.804 -26.003 -13.096  0.00  0.00    +0.100 C 
ENDBRANCH   9  13
ENDBRANCH   1  10
BRANCH   1  18
ATOM     18  N   UNL     1      34.551 -23.702 -16.755  0.00  0.00    -0.171 NA
ATOM     19  H   UNL     1      35.524 -23.518 -16.998  0.00  0.00    +0.149 HD
BRANCH  18  20
ATOM     20  S   UNL     1      33.610 -23.257 -18.112  0.00  0.00    +0.049 S 
ATOM     21  O   UNL     1      32.387 -22.619 -17.640  0.00  0.00    -0.157 OA
ATOM     22  O   UNL     1      33.517 -24.403 -19.007  0.00  0.00    -0.157 OA
BRANCH  20  26
ATOM     23  S   UNL     1      32.818 -19.612 -21.194  0.00  0.00    +0.116 S 
ATOM     24  N   UNL     1      32.843 -20.904 -20.151  0.00  0.00    -0.193 NA
ATOM     25  N   UNL     1      34.427 -19.200 -21.217  0.00  0.00    -0.194 NA
ATOM     26  C   UNL     1      34.610 -22.055 -18.886  0.00  0.00    +0.209 C 
ATOM     27  C   UNL     1      34.121 -21.067 -19.774  0.00  0.00    +0.110 A 
ATOM     28  C   UNL     1      35.994 -22.029 -18.642  0.00  0.00    +0.000 C 
ATOM     29  C   UNL     1      35.055 -20.062 -20.402  0.00  0.00    +0.089 A 
ATOM     30  C   UNL     1      36.870 -21.087 -19.231  0.00  0.00    -0.022 C 
ATOM     31  C   UNL     1      36.442 -20.086 -20.119  0.00  0.00    +0.073 C 
ENDBRANCH  20  26
ENDBRANCH  18  20
ENDBRANCH   1  18
TORSDOF 6
ENDMDL
MODEL 4
REMARK VINA RESULT:     -10.0      2.484      5.747
REMARK  Name = 16214776
REMARK  6 active torsions:
REMARK  status: ('A' for Active; 'I' for Inactive)
REMARK    1  A    between atoms: C_1  and  C_2
REMARK    2  A    between atoms: C_1  and  C_10
REMARK    3  A    between atoms: C_1  and  N_18
REMARK    4  A    between atoms: N_9  and  C_13
REMARK    5  A    between atoms: N_18  and  S_20
REMARK    6  A    between atoms: S_20  and  C_26
REMARK                            x       y       z     vdW  Elec       q    Type
REMARK                         _______ _______ _______ _____ _____    ______ ____
ROOT
ATOM      1  C   UNL     1      34.947 -22.917 -16.300  0.00  0.00    +0.173 C 
ENDROOT
BRANCH   1   2
ATOM      2  C   UNL     1      33.507 -23.043 -15.857  0.00  0.00    +0.002 C 
ATOM      3  C   UNL     1      33.216 -23.085 -14.504  0.00  0.00    -0.002 C 
ATOM      4  C   UNL     1      32.508 -23.114 -16.813  0.00  0.00    -0.002 C 
ATOM      5  C   UNL     1      31.887 -23.201 -14.095  0.00  0.00    -0.000 C 
ATOM      6  C   UNL     1      31.179 -23.230 -16.404  0.00  0.00    -0.000 C 
ATOM      7  C   UNL     1      30.869 -23.273 -15.045  0.00  0.00    -0.000 C 
ENDBRANCH   1   2
BRANCH   1  10
ATOM      8  O   UNL     1      35.359 -25.227 -15.765  0.00  0.00    -0.273 OA
ATOM      9  N   UNL     1      37.023 -23.636 -15.309  0.00  0.00    -0.282 N 
ATOM     10  C   UNL     1      35.785 -24.075 -15.772  0.00  0.00    +0.246 C 
ATOM     11  H   UNL     1      37.195 -22.670 -15.378  0.00  0.00    +0.155 HD
BRANCH   9  13
ATOM     12  N   UNL     1      40.101 -25.955 -13.663  0.00  0.00    -0.242 NA
ATOM     13  C   UNL     1      38.062 -24.420 -14.753  0.00  0.00    +0.053 C 
ATOM     14  C   UNL     1      39.221 -24.618 -15.476  0.00  0.00    +0.035 C 
ATOM     15  C   UNL     1      37.899 -24.970 -13.498  0.00  0.00    +0.035 C 
ATOM     16  C   UNL     1      40.209 -25.392 -14.887  0.00  0.00    +0.100 C 
ATOM     17  C   UNL     1      38.945 -25.729 -12.999  0.00  0.00    +0.100 C 
ENDBRANCH   9  13
ENDBRANCH   1  10
BRANCH   1  18
ATOM     18  N   UNL     1      35.104 -22.915 -17.761  0.00  0.00    -0.171 NA
ATOM     19  H   UNL     1      35.488 -23.824 -18.017  0.00  0.00    +0.149 HD
BRANCH  18  20
ATOM     20  S   UNL     1      36.089 -21.734 -18.509  0.00  0.00    +0.049 S 
ATOM     21  O   UNL     1      37.080 -22.412 -19.336  0.00  0.00    -0.157 OA
ATOM     22  O   UNL     1      36.534 -20.790 -17.492  0.00  0.00    -0.157 OA
BRANCH  20  26
ATOM     23  S   UNL     1      36.435 -18.278 -21.877  0.00  0.00    +0.116 S 
ATOM     24  N   UNL     1      36.565 -19.440 -20.698  0.00  0.00    -0.193 NA
ATOM     25  N   UNL     1      34.799 -18.305 -22.162  0.00  0.00    -0.194 NA
ATOM     26  C   UNL     1      34.959 -20.905 -19.549  0.00  0.00    +0.209 C 
ATOM     27  C   UNL     1      35.324 -19.901 -20.478  0.00  0.00    +0.110 A 
ATOM     28  C   UNL     1      33.591 -21.223 -19.495  0.00  0.00    +0.000 C 
ATOM     29  C   UNL     1      34.283 -19.232 -21.341  0.00  0.00    +0.089 A 
ATOM     30  C   UNL     1      32.615 -20.596 -20.304  0.00  0.00    -0.022 C 
ATOM     31  C   UNL     1      32.918 -19.594 -21.242  0.00  0.00    +0.073 C 
ENDBRANCH  20  26
ENDBRANCH  18  20
ENDBRANCH   1  18
TORSDOF 6
ENDMDL
MODEL 5
REMARK VINA RESULT:      -9.9      8.999     13.538
REMARK  Name = 16214776
REMARK  6 active torsions:
REMARK  status: ('A' for Active; 'I' for Inactive)
REMARK    1  A    between atoms: C_1  and  C_2
REMARK    2  A    between atoms: C_1  and  C_10
REMARK    3  A    between atoms: C_1  and  N_18
REMARK    4  A    between atoms: N_9  and  C_13
REMARK    5  A    between atoms: N_18  and  S_20
REMARK    6  A    between atoms: S_20  and  C_26
REMARK                            x       y       z     vdW  Elec       q    Type
REMARK                         _______ _______ _______ _____ _____    ______ ____
ROOT
ATOM      1  C   UNL     1      33.313 -11.736 -23.027  0.00  0.00    +0.173 C 
ENDROOT
BRANCH   1   2
ATOM      2  C   UNL     1      33.998 -11.426 -24.339  0.00  0.00    +0.002 C 
ATOM      3  C   UNL     1      34.944 -10.416 -24.386  0.00  0.00    -0.002 C 
ATOM      4  C   UNL     1      33.667 -12.160 -25.466  0.00  0.00    -0.002 C 
ATOM      5  C   UNL     1      35.577 -10.130 -25.597  0.00  0.00    -0.000 C 
ATOM      6  C   UNL     1      34.300 -11.873 -26.676  0.00  0.00    -0.000 C 
ATOM      7  C   UNL     1      35.255 -10.858 -26.741  0.00  0.00    -0.000 C 
ENDBRANCH   1   2
BRANCH   1  10
ATOM      8  O   UNL     1      31.117 -10.948 -22.439  0.00  0.00    -0.273 OA
ATOM      9  N   UNL     1      32.855  -9.393 -22.701  0.00  0.00    -0.282 N 
ATOM     10  C   UNL     1      32.288 -10.664 -22.680  0.00  0.00    +0.246 C 
ATOM     11  H   UNL     1      33.810  -9.347 -22.929  0.00  0.00    +0.155 HD
BRANCH   9  13
ATOM     12  N   UNL     1      30.964  -5.740 -21.901  0.00  0.00    -0.242 NA
ATOM     13  C   UNL     1      32.216  -8.159 -22.431  0.00  0.00    +0.053 C 
ATOM     14  C   UNL     1      32.436  -7.534 -21.220  0.00  0.00    +0.035 C 
ATOM     15  C   UNL     1      31.385  -7.604 -23.382  0.00  0.00    +0.035 C 
ATOM     16  C   UNL     1      31.788  -6.328 -21.004  0.00  0.00    +0.100 C 
ATOM     17  C   UNL     1      30.783  -6.396 -23.069  0.00  0.00    +0.100 C 
ENDBRANCH   9  13
ENDBRANCH   1  10
BRANCH   1  18
ATOM     18  N   UNL     1      32.595 -13.018 -23.040  0.00  0.00    -0.171 NA
ATOM     19  H   UNL     1      31.623 -12.814 -22.807  0.00  0.00    +0.149 HD
BRANCH  18  20
ATOM     20  S   UNL     1      33.095 -14.283 -22.004  0.00  0.00    +0.049 S 
ATOM     21  O   UNL     1      31.916 -14.852 -21.362  0.00  0.00    -0.157 OA
ATOM     22  O   UNL     1      34.192 -13.798 -21.176  0.00  0.00    -0.157 OA
BRANCH  20  26
ATOM     23  S   UNL     1      35.721 -18.326 -21.592  0.00  0.00    +0.116 S 
ATOM     24  N   UNL     1      34.834 -16.927 -21.482  0.00  0.00    -0.193 NA
ATOM     25  N   UNL     1      35.730 -18.562 -23.235  0.00  0.00    -0.194 NA
ATOM     26  C   UNL     1      33.747 -15.452 -23.123  0.00  0.00    +0.209 C 
ATOM     27  C   UNL     1      34.505 -16.584 -22.738  0.00  0.00    +0.110 A 
ATOM     28  C   UNL     1      33.530 -15.299 -24.503  0.00  0.00    +0.000 C 
ATOM     29  C   UNL     1      35.033 -17.547 -23.771  0.00  0.00    +0.089 A 
ATOM     30  C   UNL     1      34.025 -16.203 -25.472  0.00  0.00    -0.022 C 
ATOM     31  C   UNL     1      34.783 -17.342 -25.150  0.00  0.00    +0.073 C 
ENDBRANCH  20  26
ENDBRANCH  18  20
ENDBRANCH   1  18
TORSDOF 6
ENDMDL
MODEL 6
REMARK VINA RESULT:      -9.8      2.856      6.432
REMARK  Name = 16214776
REMARK  6 active torsions:
REMARK  status: ('A' for Active; 'I' for Inactive)
REMARK    1  A    between atoms: C_1  and  C_2
REMARK    2  A    between atoms: C_1  and  C_10
REMARK    3  A    between atoms: C_1  and  N_18
REMARK    4  A    between atoms: N_9  and  C_13
REMARK    5  A    between atoms: N_18  and  S_20
REMARK    6  A    between atoms: S_20  and  C_26
REMARK                            x       y       z     vdW  Elec       q    Type
REMARK                         _______ _______ _______ _____ _____    ______ ____
ROOT
ATOM      1  C   UNL     1      34.529 -22.118 -17.563  0.00  0.00    +0.173 C 
ENDROOT
BRANCH   1   2
ATOM      2  C   UNL     1      34.464 -21.421 -18.903  0.00  0.00    +0.002 C 
ATOM      3  C   UNL     1      33.229 -21.087 -19.434  0.00  0.00    -0.002 C 
ATOM      4  C   UNL     1      35.641 -21.128 -19.572  0.00  0.00    -0.002 C 
ATOM      5  C   UNL     1      33.169 -20.443 -20.670  0.00  0.00    -0.000 C 
ATOM      6  C   UNL     1      35.581 -20.484 -20.808  0.00  0.00    -0.000 C 
ATOM      7  C   UNL     1      34.344 -20.141 -21.357  0.00  0.00    -0.000 C 
ENDBRANCH   1   2
BRANCH   1  10
ATOM      8  O   UNL     1      33.371 -24.131 -18.194  0.00  0.00    -0.273 OA
ATOM      9  N   UNL     1      32.546 -22.852 -16.408  0.00  0.00    -0.282 N 
ATOM     10  C   UNL     1      33.429 -23.164 -17.438  0.00  0.00    +0.246 C 
ATOM     11  H   UNL     1      32.736 -22.026 -15.908  0.00  0.00    +0.155 HD
BRANCH   9  13
ATOM     12  N   UNL     1      29.179 -25.027 -15.184  0.00  0.00    -0.242 NA
ATOM     13  C   UNL     1      31.408 -23.587 -15.995  0.00  0.00    +0.053 C 
ATOM     14  C   UNL     1      31.554 -24.588 -15.056  0.00  0.00    +0.035 C 
ATOM     15  C   UNL     1      30.176 -23.288 -16.538  0.00  0.00    +0.035 C 
ATOM     16  C   UNL     1      30.410 -25.277 -14.684  0.00  0.00    +0.100 C 
ATOM     17  C   UNL     1      29.094 -24.036 -16.101  0.00  0.00    +0.100 C 
ENDBRANCH   9  13
ENDBRANCH   1  10
BRANCH   1  18
ATOM     18  N   UNL     1      35.802 -22.816 -17.336  0.00  0.00    -0.171 NA
ATOM     19  H   UNL     1      35.615 -23.812 -17.444  0.00  0.00    +0.149 HD
BRANCH  18  20
ATOM     20  S   UNL     1      36.623 -22.625 -15.849  0.00  0.00    +0.049 S 
ATOM     21  O   UNL     1      35.721 -21.986 -14.899  0.00  0.00    -0.157 OA
ATOM     22  O   UNL     1      37.924 -22.023 -16.112  0.00  0.00    -0.157 OA
BRANCH  20  26
ATOM     23  S   UNL     1      40.511 -25.280 -14.731  0.00  0.00    +0.116 S 
ATOM     24  N   UNL     1      39.339 -24.182 -15.154  0.00  0.00    -0.193 NA
ATOM     25  N   UNL     1      39.583 -26.624 -14.430  0.00  0.00    -0.194 NA
ATOM     26  C   UNL     1      36.890 -24.276 -15.351  0.00  0.00    +0.209 C 
ATOM     27  C   UNL     1      38.164 -24.827 -15.075  0.00  0.00    +0.110 A 
ATOM     28  C   UNL     1      35.799 -25.149 -15.200  0.00  0.00    +0.000 C 
ATOM     29  C   UNL     1      38.308 -26.266 -14.649  0.00  0.00    +0.089 A 
ATOM     30  C   UNL     1      35.933 -26.499 -14.800  0.00  0.00    -0.022 C 
ATOM     31  C   UNL     1      37.171 -27.099 -14.514  0.00  0.00    +0.073 C 
ENDBRANCH  20  26
ENDBRANCH  18  20
ENDBRANCH   1  18
TORSDOF 6
ENDMDL
MODEL 7
REMARK VINA RESULT:      -9.8      2.832      6.333
REMARK  Name = 16214776
REMARK  6 active torsions:
REMARK  status: ('A' for Active; 'I' for Inactive)
REMARK    1  A    between atoms: C_1  and  C_2
REMARK    2  A    between atoms: C_1  and  C_10
REMARK    3  A    between atoms: C_1  and  N_18
REMARK    4  A    between atoms: N_9  and  C_13
REMARK    5  A    between atoms: N_18  and  S_20
REMARK    6  A    between atoms: S_20  and  C_26
REMARK                            x       y       z     vdW  Elec       q    Type
REMARK                         _______ _______ _______ _____ _____    ______ ____
ROOT
ATOM      1  C   UNL     1      34.711 -22.755 -16.787  0.00  0.00    +0.173 C 
ENDROOT
BRANCH   1   2
ATOM      2  C   UNL     1      35.135 -22.012 -18.033  0.00  0.00    +0.002 C 
ATOM      3  C   UNL     1      34.176 -21.645 -18.962  0.00  0.00    -0.002 C 
ATOM      4  C   UNL     1      36.475 -21.713 -18.221  0.00  0.00    -0.002 C 
ATOM      5  C   UNL     1      34.567 -20.959 -20.112  0.00  0.00    -0.000 C 
ATOM      6  C   UNL     1      36.866 -21.027 -19.371  0.00  0.00    -0.000 C 
ATOM      7  C   UNL     1      35.911 -20.650 -20.317  0.00  0.00    -0.000 C 
ENDBRANCH   1   2
BRANCH   1  10
ATOM      8  O   UNL     1      33.268 -24.368 -17.838  0.00  0.00    -0.273 OA
ATOM      9  N   UNL     1      32.392 -22.969 -16.170  0.00  0.00    -0.282 N 
ATOM     10  C   UNL     1      33.386 -23.475 -17.003  0.00  0.00    +0.246 C 
ATOM     11  H   UNL     1      32.659 -22.239 -15.568  0.00  0.00    +0.155 HD
BRANCH   9  13
ATOM     12  N   UNL     1      28.395 -24.203 -15.927  0.00  0.00    -0.242 NA
ATOM     13  C   UNL     1      31.042 -23.387 -16.087  0.00  0.00    +0.053 C 
ATOM     14  C   UNL     1      30.069 -22.667 -16.752  0.00  0.00    +0.035 C 
ATOM     15  C   UNL     1      30.722 -24.505 -15.346  0.00  0.00    +0.035 C 
ATOM     16  C   UNL     1      28.763 -23.116 -16.641  0.00  0.00    +0.100 C 
ATOM     17  C   UNL     1      29.387 -24.871 -15.296  0.00  0.00    +0.100 C 
ENDBRANCH   9  13
ENDBRANCH   1  10
BRANCH   1  18
ATOM     18  N   UNL     1      35.681 -23.776 -16.364  0.00  0.00    -0.171 NA
ATOM     19  H   UNL     1      35.832 -24.388 -17.166  0.00  0.00    +0.149 HD
BRANCH  18  20
ATOM     20  S   UNL     1      35.326 -24.786 -15.031  0.00  0.00    +0.049 S 
ATOM     21  O   UNL     1      35.442 -26.175 -15.458  0.00  0.00    -0.157 OA
ATOM     22  O   UNL     1      34.085 -24.329 -14.421  0.00  0.00    -0.157 OA
BRANCH  20  26
ATOM     23  S   UNL     1      40.096 -25.598 -14.978  0.00  0.00    +0.116 S 
ATOM     24  N   UNL     1      38.461 -25.438 -15.218  0.00  0.00    -0.193 NA
ATOM     25  N   UNL     1      40.271 -24.844 -13.509  0.00  0.00    -0.194 NA
ATOM     26  C   UNL     1      36.628 -24.425 -13.928  0.00  0.00    +0.209 C 
ATOM     27  C   UNL     1      37.980 -24.781 -14.150  0.00  0.00    +0.110 A 
ATOM     28  C   UNL     1      36.364 -23.738 -12.730  0.00  0.00    +0.000 C 
ATOM     29  C   UNL     1      39.047 -24.431 -13.142  0.00  0.00    +0.089 A 
ATOM     30  C   UNL     1      37.364 -23.409 -11.786  0.00  0.00    -0.022 C 
ATOM     31  C   UNL     1      38.721 -23.738 -11.952  0.00  0.00    +0.073 C 
ENDBRANCH  20  26
ENDBRANCH  18  20
ENDBRANCH   1  18
TORSDOF 6
ENDMDL
MODEL 8
REMARK VINA RESULT:      -9.8      2.796      7.125
REMARK  Name = 16214776
REMARK  6 active torsions:
REMARK  status: ('A' for Active; 'I' for Inactive)
REMARK    1  A    between atoms: C_1  and  C_2
REMARK    2  A    between atoms: C_1  and  C_10
REMARK    3  A    between atoms: C_1  and  N_18
REMARK    4  A    between atoms: N_9  and  C_13
REMARK    5  A    between atoms: N_18  and  S_20
REMARK    6  A    between atoms: S_20  and  C_26
REMARK                            x       y       z     vdW  Elec       q    Type
REMARK                         _______ _______ _______ _____ _____    ______ ____
ROOT
ATOM      1  C   UNL     1      34.301 -23.530 -16.379  0.00  0.00    +0.173 C 
ENDROOT
BRANCH   1   2
ATOM      2  C   UNL     1      32.974 -23.653 -15.666  0.00  0.00    +0.002 C 
ATOM      3  C   UNL     1      32.937 -24.191 -14.391  0.00  0.00    -0.002 C 
ATOM      4  C   UNL     1      31.821 -23.223 -16.302  0.00  0.00    -0.002 C 
ATOM      5  C   UNL     1      31.713 -24.304 -13.732  0.00  0.00    -0.000 C 
ATOM      6  C   UNL     1      30.596 -23.336 -15.643  0.00  0.00    -0.000 C 
ATOM      7  C   UNL     1      30.542 -23.877 -14.358  0.00  0.00    -0.000 C 
ENDBRANCH   1   2
BRANCH   1  10
ATOM      8  O   UNL     1      33.702 -23.974 -18.666  0.00  0.00    -0.273 OA
ATOM      9  N   UNL     1      34.450 -21.829 -18.078  0.00  0.00    -0.282 N 
ATOM     10  C   UNL     1      34.103 -23.156 -17.842  0.00  0.00    +0.246 C 
ATOM     11  H   UNL     1      34.768 -21.318 -17.300  0.00  0.00    +0.155 HD
BRANCH   9  13
ATOM     12  N   UNL     1      34.292 -19.758 -21.718  0.00  0.00    -0.242 NA
ATOM     13  C   UNL     1      34.398 -21.129 -19.308  0.00  0.00    +0.053 C 
ATOM     14  C   UNL     1      33.173 -20.745 -19.816  0.00  0.00    +0.035 C 
ATOM     15  C   UNL     1      35.570 -20.843 -19.976  0.00  0.00    +0.035 C 
ATOM     16  C   UNL     1      33.174 -20.063 -21.022  0.00  0.00    +0.100 C 
ATOM     17  C   UNL     1      35.464 -20.157 -21.175  0.00  0.00    +0.100 C 
ENDBRANCH   9  13
ENDBRANCH   1  10
BRANCH   1  18
ATOM     18  N   UNL     1      35.177 -22.504 -15.797  0.00  0.00    -0.171 NA
ATOM     19  H   UNL     1      35.037 -21.654 -16.341  0.00  0.00    +0.149 HD
BRANCH  18  20
ATOM     20  S   UNL     1      36.864 -22.770 -15.720  0.00  0.00    +0.049 S 
ATOM     21  O   UNL     1      37.475 -21.669 -14.985  0.00  0.00    -0.157 OA
ATOM     22  O   UNL     1      37.345 -23.086 -17.059  0.00  0.00    -0.157 OA
BRANCH  20  26
ATOM     23  S   UNL     1      35.822 -23.927 -11.139  0.00  0.00    +0.116 S 
ATOM     24  N   UNL     1      36.099 -23.300 -12.651  0.00  0.00    -0.193 NA
ATOM     25  N   UNL     1      36.316 -25.498 -11.358  0.00  0.00    -0.194 NA
ATOM     26  C   UNL     1      36.975 -24.221 -14.757  0.00  0.00    +0.209 C 
ATOM     27  C   UNL     1      36.593 -24.302 -13.396  0.00  0.00    +0.110 A 
ATOM     28  C   UNL     1      37.468 -25.407 -15.327  0.00  0.00    +0.000 C 
ATOM     29  C   UNL     1      36.721 -25.597 -12.634  0.00  0.00    +0.089 A 
ATOM     30  C   UNL     1      37.587 -26.621 -14.613  0.00  0.00    -0.022 C 
ATOM     31  C   UNL     1      37.225 -26.761 -13.262  0.00  0.00    +0.073 C 
ENDBRANCH  20  26
ENDBRANCH  18  20
ENDBRANCH   1  18
TORSDOF 6
ENDMDL
MODEL 9
REMARK VINA RESULT:      -9.6      7.872     12.741
REMARK  Name = 16214776
REMARK  6 active torsions:
REMARK  status: ('A' for Active; 'I' for Inactive)
REMARK    1  A    between atoms: C_1  and  C_2
REMARK    2  A    between atoms: C_1  and  C_10
REMARK    3  A    between atoms: C_1  and  N_18
REMARK    4  A    between atoms: N_9  and  C_13
REMARK    5  A    between atoms: N_18  and  S_20
REMARK    6  A    between atoms: S_20  and  C_26
REMARK                            x       y       z     vdW  Elec       q    Type
REMARK                         _______ _______ _______ _____ _____    ______ ____
ROOT
ATOM      1  C   UNL     1      33.232 -12.876 -23.062  0.00  0.00    +0.173 C 
ENDROOT
BRANCH   1   2
ATOM      2  C   UNL     1      33.343 -12.898 -24.570  0.00  0.00    +0.002 C 
ATOM      3  C   UNL     1      34.025 -11.879 -25.214  0.00  0.00    -0.002 C 
ATOM      4  C   UNL     1      32.762 -13.938 -25.277  0.00  0.00    -0.002 C 
ATOM      5  C   UNL     1      34.128 -11.900 -26.605  0.00  0.00    -0.000 C 
ATOM      6  C   UNL     1      32.865 -13.958 -26.668  0.00  0.00    -0.000 C 
ATOM      7  C   UNL     1      33.548 -12.939 -27.332  0.00  0.00    -0.000 C 
ENDBRANCH   1   2
BRANCH   1  10
ATOM      8  O   UNL     1      31.279 -11.946 -22.008  0.00  0.00    -0.273 OA
ATOM      9  N   UNL     1      32.867 -10.497 -22.948  0.00  0.00    -0.282 N 
ATOM     10  C   UNL     1      32.336 -11.735 -22.597  0.00  0.00    +0.246 C 
ATOM     11  H   UNL     1      33.723 -10.513 -23.434  0.00  0.00    +0.155 HD
BRANCH   9  13
ATOM     12  N   UNL     1      31.249  -6.711 -22.168  0.00  0.00    -0.242 NA
ATOM     13  C   UNL     1      32.320  -9.218 -22.685  0.00  0.00    +0.053 C 
ATOM     14  C   UNL     1      32.596  -8.599 -21.482  0.00  0.00    +0.035 C 
ATOM     15  C   UNL     1      31.523  -8.614 -23.635  0.00  0.00    +0.035 C 
ATOM     16  C   UNL     1      32.037  -7.348 -21.272  0.00  0.00    +0.100 C 
ATOM     17  C   UNL     1      31.012  -7.363 -23.328  0.00  0.00    +0.100 C 
ENDBRANCH   9  13
ENDBRANCH   1  10
BRANCH   1  18
ATOM     18  N   UNL     1      32.663 -14.112 -22.507  0.00  0.00    -0.171 NA
ATOM     19  H   UNL     1      31.821 -13.846 -21.998  0.00  0.00    +0.149 HD
BRANCH  18  20
ATOM     20  S   UNL     1      33.596 -15.077 -21.448  0.00  0.00    +0.049 S 
ATOM     21  O   UNL     1      32.716 -15.629 -20.425  0.00  0.00    -0.157 OA
ATOM     22  O   UNL     1      34.771 -14.316 -21.041  0.00  0.00    -0.157 OA
BRANCH  20  26
ATOM     23  S   UNL     1      34.768 -19.727 -20.807  0.00  0.00    +0.116 S 
ATOM     24  N   UNL     1      34.322 -18.128 -20.779  0.00  0.00    -0.193 NA
ATOM     25  N   UNL     1      35.103 -19.929 -22.421  0.00  0.00    -0.194 NA
ATOM     26  C   UNL     1      34.132 -16.370 -22.489  0.00  0.00    +0.209 C 
ATOM     27  C   UNL     1      34.417 -17.683 -22.043  0.00  0.00    +0.110 A 
ATOM     28  C   UNL     1      34.306 -16.138 -23.864  0.00  0.00    +0.000 C 
ATOM     29  C   UNL     1      34.877 -18.745 -23.010  0.00  0.00    +0.089 A 
ATOM     30  C   UNL     1      34.737 -17.134 -24.772  0.00  0.00    -0.022 C 
ATOM     31  C   UNL     1      35.034 -18.452 -24.387  0.00  0.00    +0.073 C 
ENDBRANCH  20  26
ENDBRANCH  18  20
ENDBRANCH   1  18
TORSDOF 6
ENDMDL
