MODEL 1
REMARK VINA RESULT:     -10.5      0.000      0.000
REMARK  Name = 24771758
REMARK  7 active torsions:
REMARK  status: ('A' for Active; 'I' for Inactive)
REMARK    1  A    between atoms: C_7  and  C_27
REMARK    2  A    between atoms: C_9  and  C_14
REMARK    3  A    between atoms: C_16  and  O_24
REMARK    4  A    between atoms: C_17  and  S_18
REMARK    5  A    between atoms: S_18  and  N_21
REMARK    6  A    between atoms: O_24  and  C_25
REMARK    7  A    between atoms: C_27  and  C_28
REMARK                            x       y       z     vdW  Elec       q    Type
REMARK                         _______ _______ _______ _____ _____    ______ ____
ROOT
ATOM      1  O   UNL     1      31.840 -24.291 -13.538  0.00  0.00    -0.208 OA
ATOM      2  N   UNL     1      31.716 -23.147 -16.316  0.00  0.00    -0.236 N 
ATOM      3  N   UNL     1      35.080 -23.832 -15.980  0.00  0.00    -0.284 N 
ATOM      4  N   UNL     1      32.065 -22.711 -17.546  0.00  0.00    -0.172 NA
ATOM      5  N   UNL     1      34.111 -24.523 -13.878  0.00  0.00    -0.316 NA
ATOM      6  C   UNL     1      33.860 -23.463 -16.398  0.00  0.00    +0.095 A 
ATOM      7  C   UNL     1      33.389 -22.911 -17.588  0.00  0.00    +0.094 A 
ATOM      8  C   UNL     1      32.770 -23.613 -15.586  0.00  0.00    +0.187 A 
ATOM      9  C   UNL     1      35.136 -24.360 -14.686  0.00  0.00    +0.200 C 
ATOM     10  C   UNL     1      32.823 -24.159 -14.258  0.00  0.00    +0.225 C 
ATOM     11  C   UNL     1      30.332 -23.082 -15.911  0.00  0.00    +0.155 C 
ATOM     12  H   UNL     1      35.881 -23.737 -16.545  0.00  0.00    +0.155 HD
ENDROOT
BRANCH   9  14
ATOM     13  S   UNL     1      38.311 -25.596 -12.559  0.00  0.00    -0.031 S 
ATOM     14  C   UNL     1      36.474 -24.786 -14.163  0.00  0.00    +0.087 C 
ATOM     15  C   UNL     1      37.669 -24.857 -14.935  0.00  0.00    +0.034 C 
ATOM     16  C   UNL     1      36.681 -25.161 -12.854  0.00  0.00    +0.174 C 
ATOM     17  C   UNL     1      38.745 -25.282 -14.186  0.00  0.00    +0.154 C 
BRANCH  17  18
ATOM     18  S   UNL     1      40.439 -25.563 -14.562  0.00  0.00    +0.063 S 
ATOM     19  O   UNL     1      41.147 -24.306 -14.399  0.00  0.00    -0.153 OA
ATOM     20  O   UNL     1      40.870 -26.746 -13.841  0.00  0.00    -0.153 OA
BRANCH  18  21
ATOM     21  N   UNL     1      40.333 -25.931 -16.225  0.00  0.00    -0.203 NA
ATOM     22  H   UNL     1      40.269 -26.942 -16.346  0.00  0.00    +0.144 HD
ATOM     23  H   UNL     1      41.163 -25.584 -16.704  0.00  0.00    +0.144 HD
ENDBRANCH  18  21
ENDBRANCH  17  18
BRANCH  16  24
ATOM     24  O   UNL     1      35.793 -25.214 -11.863  0.00  0.00    -0.469 OA
BRANCH  24  25
ATOM     25  C   UNL     1      35.876 -24.221 -10.823  0.00  0.00    +0.206 C 
ATOM     26  C   UNL     1      36.680 -23.043 -11.330  0.00  0.00    +0.051 C 
ENDBRANCH  24  25
ENDBRANCH  16  24
ENDBRANCH   9  14
BRANCH   7  27
ATOM     27  C   UNL     1      34.147 -22.553 -18.799  0.00  0.00    +0.049 C 
BRANCH  27  28
ATOM     28  C   UNL     1      33.530 -21.364 -19.565  0.00  0.00    +0.006 C 
ATOM     29  C   UNL     1      34.572 -20.544 -20.308  0.00  0.00    +0.000 C 
ENDBRANCH  27  28
ENDBRANCH   7  27
TORSDOF 7
ENDMDL
MODEL 2
REMARK VINA RESULT:      -9.5     11.120     14.566
REMARK  Name = 24771758
REMARK  7 active torsions:
REMARK  status: ('A' for Active; 'I' for Inactive)
REMARK    1  A    between atoms: C_7  and  C_27
REMARK    2  A    between atoms: C_9  and  C_14
REMARK    3  A    between atoms: C_16  and  O_24
REMARK    4  A    between atoms: C_17  and  S_18
REMARK    5  A    between atoms: S_18  and  N_21
REMARK    6  A    between atoms: O_24  and  C_25
REMARK    7  A    between atoms: C_27  and  C_28
REMARK                            x       y       z     vdW  Elec       q    Type
REMARK                         _______ _______ _______ _____ _____    ______ ____
ROOT
ATOM      1  O   UNL     1      34.672 -10.276 -25.293  0.00  0.00    -0.208 OA
ATOM      2  N   UNL     1      32.566  -9.443 -23.316  0.00  0.00    -0.236 N 
ATOM      3  N   UNL     1      32.750 -12.845 -22.767  0.00  0.00    -0.284 N 
ATOM      4  N   UNL     1      31.629  -9.473 -22.343  0.00  0.00    -0.172 NA
ATOM      5  N   UNL     1      34.364 -12.428 -24.513  0.00  0.00    -0.316 NA
ATOM      6  C   UNL     1      32.457 -11.535 -22.752  0.00  0.00    +0.095 A 
ATOM      7  C   UNL     1      31.570 -10.767 -22.000  0.00  0.00    +0.094 A 
ATOM      8  C   UNL     1      33.096 -10.669 -23.596  0.00  0.00    +0.187 A 
ATOM      9  C   UNL     1      33.726 -13.230 -23.691  0.00  0.00    +0.200 C 
ATOM     10  C   UNL     1      34.103 -11.061 -24.542  0.00  0.00    +0.225 C 
ATOM     11  C   UNL     1      32.900  -8.183 -23.935  0.00  0.00    +0.155 C 
ATOM     12  H   UNL     1      32.306 -13.490 -22.169  0.00  0.00    +0.155 HD
ENDROOT
BRANCH   9  14
ATOM     13  S   UNL     1      34.575 -17.027 -24.686  0.00  0.00    -0.031 S 
ATOM     14  C   UNL     1      34.092 -14.682 -23.755  0.00  0.00    +0.087 C 
ATOM     15  C   UNL     1      34.445 -15.487 -22.634  0.00  0.00    +0.034 C 
ATOM     16  C   UNL     1      34.122 -15.394 -24.933  0.00  0.00    +0.174 C 
ATOM     17  C   UNL     1      34.731 -16.785 -22.998  0.00  0.00    +0.154 C 
BRANCH  17  18
ATOM     18  S   UNL     1      35.217 -18.211 -22.092  0.00  0.00    +0.063 S 
ATOM     19  O   UNL     1      35.220 -17.865 -20.682  0.00  0.00    -0.153 OA
ATOM     20  O   UNL     1      34.434 -19.336 -22.569  0.00  0.00    -0.153 OA
BRANCH  18  21
ATOM     21  N   UNL     1      36.828 -18.388 -22.627  0.00  0.00    -0.203 NA
ATOM     22  H   UNL     1      37.455 -18.387 -21.823  0.00  0.00    +0.144 HD
ATOM     23  H   UNL     1      37.068 -17.614 -23.246  0.00  0.00    +0.144 HD
ENDBRANCH  18  21
ENDBRANCH  17  18
BRANCH  16  24
ATOM     24  O   UNL     1      33.851 -14.962 -26.163  0.00  0.00    -0.469 OA
BRANCH  24  25
ATOM     25  C   UNL     1      32.512 -14.517 -26.447  0.00  0.00    +0.206 C 
ATOM     26  C   UNL     1      32.576 -13.319 -27.371  0.00  0.00    +0.051 C 
ENDBRANCH  24  25
ENDBRANCH  16  24
ENDBRANCH   9  14
BRANCH   7  27
ATOM     27  C   UNL     1      30.642 -11.204 -20.944  0.00  0.00    +0.049 C 
BRANCH  27  28
ATOM     28  C   UNL     1      31.334 -11.402 -19.580  0.00  0.00    +0.006 C 
ATOM     29  C   UNL     1      31.984 -10.128 -19.064  0.00  0.00    +0.000 C 
ENDBRANCH  27  28
ENDBRANCH   7  27
TORSDOF 7
ENDMDL
MODEL 3
REMARK VINA RESULT:      -9.4      3.798      7.423
REMARK  Name = 24771758
REMARK  7 active torsions:
REMARK  status: ('A' for Active; 'I' for Inactive)
REMARK    1  A    between atoms: C_7  and  C_27
REMARK    2  A    between atoms: C_9  and  C_14
REMARK    3  A    between atoms: C_16  and  O_24
REMARK    4  A    between atoms: C_17  and  S_18
REMARK    5  A    between atoms: S_18  and  N_21
REMARK    6  A    between atoms: O_24  and  C_25
REMARK    7  A    between atoms: C_27  and  C_28
REMARK                            x       y       z     vdW  Elec       q    Type
REMARK                         _______ _______ _______ _____ _____    ______ ____
ROOT
ATOM      1  O   UNL     1      34.778 -24.856 -11.563  0.00  0.00    -0.208 OA
ATOM      2  N   UNL     1      37.331 -24.172 -12.994  0.00  0.00    -0.236 N 
ATOM      3  N   UNL     1      34.951 -23.316 -15.341  0.00  0.00    -0.284 N 
ATOM      4  N   UNL     1      38.211 -23.752 -13.930  0.00  0.00    -0.172 NA
ATOM      5  N   UNL     1      33.677 -24.132 -13.459  0.00  0.00    -0.316 NA
ATOM      6  C   UNL     1      36.079 -23.551 -14.653  0.00  0.00    +0.095 A 
ATOM      7  C   UNL     1      37.429 -23.370 -14.950  0.00  0.00    +0.094 A 
ATOM      8  C   UNL     1      36.029 -24.067 -13.387  0.00  0.00    +0.187 A 
ATOM      9  C   UNL     1      33.765 -23.639 -14.674  0.00  0.00    +0.200 C 
ATOM     10  C   UNL     1      34.812 -24.395 -12.698  0.00  0.00    +0.225 C 
ATOM     11  C   UNL     1      37.827 -24.667 -11.733  0.00  0.00    +0.155 C 
ATOM     12  H   UNL     1      34.959 -22.944 -16.252  0.00  0.00    +0.155 HD
ENDROOT
BRANCH   9  14
ATOM     13  S   UNL     1      30.799 -22.720 -17.221  0.00  0.00    -0.031 S 
ATOM     14  C   UNL     1      32.473 -23.402 -15.395  0.00  0.00    +0.087 C 
ATOM     15  C   UNL     1      31.179 -23.688 -14.872  0.00  0.00    +0.034 C 
ATOM     16  C   UNL     1      32.411 -22.871 -16.664  0.00  0.00    +0.174 C 
ATOM     17  C   UNL     1      30.178 -23.366 -15.761  0.00  0.00    +0.154 C 
BRANCH  17  18
ATOM     18  S   UNL     1      28.425 -23.484 -15.696  0.00  0.00    +0.063 S 
ATOM     19  O   UNL     1      28.083 -24.566 -14.791  0.00  0.00    -0.153 OA
ATOM     20  O   UNL     1      27.891 -22.151 -15.481  0.00  0.00    -0.153 OA
BRANCH  18  21
ATOM     21  N   UNL     1      28.085 -23.967 -17.297  0.00  0.00    -0.203 NA
ATOM     22  H   UNL     1      27.285 -23.441 -17.648  0.00  0.00    +0.144 HD
ATOM     23  H   UNL     1      27.870 -24.963 -17.314  0.00  0.00    +0.144 HD
ENDBRANCH  18  21
ENDBRANCH  17  18
BRANCH  16  24
ATOM     24  O   UNL     1      33.419 -22.491 -17.447  0.00  0.00    -0.469 OA
BRANCH  24  25
ATOM     25  C   UNL     1      33.284 -22.681 -18.868  0.00  0.00    +0.206 C 
ATOM     26  C   UNL     1      33.435 -21.343 -19.561  0.00  0.00    +0.051 C 
ENDBRANCH  24  25
ENDBRANCH  16  24
ENDBRANCH   9  14
BRANCH   7  27
ATOM     27  C   UNL     1      38.037 -22.838 -16.181  0.00  0.00    +0.049 C 
BRANCH  27  28
ATOM     28  C   UNL     1      37.396 -21.514 -16.645  0.00  0.00    +0.006 C 
ATOM     29  C   UNL     1      36.765 -21.622 -18.025  0.00  0.00    +0.000 C 
ENDBRANCH  27  28
ENDBRANCH   7  27
TORSDOF 7
ENDMDL
MODEL 4
REMARK VINA RESULT:      -9.4     10.703     14.137
REMARK  Name = 24771758
REMARK  7 active torsions:
REMARK  status: ('A' for Active; 'I' for Inactive)
REMARK    1  A    between atoms: C_7  and  C_27
REMARK    2  A    between atoms: C_9  and  C_14
REMARK    3  A    between atoms: C_16  and  O_24
REMARK    4  A    between atoms: C_17  and  S_18
REMARK    5  A    between atoms: S_18  and  N_21
REMARK    6  A    between atoms: O_24  and  C_25
REMARK    7  A    between atoms: C_27  and  C_28
REMARK                            x       y       z     vdW  Elec       q    Type
REMARK                         _______ _______ _______ _____ _____    ______ ____
ROOT
ATOM      1  O   UNL     1      30.887 -11.884 -21.309  0.00  0.00    -0.208 OA
ATOM      2  N   UNL     1      32.399  -9.787 -22.844  0.00  0.00    -0.236 N 
ATOM      3  N   UNL     1      34.095 -12.664 -23.712  0.00  0.00    -0.284 N 
ATOM      4  N   UNL     1      33.292  -9.177 -23.653  0.00  0.00    -0.172 NA
ATOM      5  N   UNL     1      32.356 -13.417 -22.216  0.00  0.00    -0.316 NA
ATOM      6  C   UNL     1      33.649 -11.407 -23.564  0.00  0.00    +0.095 A 
ATOM      7  C   UNL     1      34.059 -10.184 -24.094  0.00  0.00    +0.094 A 
ATOM      8  C   UNL     1      32.576 -11.137 -22.761  0.00  0.00    +0.187 A 
ATOM      9  C   UNL     1      33.392 -13.636 -22.993  0.00  0.00    +0.200 C 
ATOM     10  C   UNL     1      31.849 -12.135 -22.026  0.00  0.00    +0.225 C 
ATOM     11  C   UNL     1      31.394  -8.994 -22.177  0.00  0.00    +0.155 C 
ATOM     12  H   UNL     1      34.864 -12.885 -24.285  0.00  0.00    +0.155 HD
ENDROOT
BRANCH   9  14
ATOM     13  S   UNL     1      34.656 -17.271 -24.142  0.00  0.00    -0.031 S 
ATOM     14  C   UNL     1      33.848 -15.059 -23.116  0.00  0.00    +0.087 C 
ATOM     15  C   UNL     1      33.999 -15.967 -22.029  0.00  0.00    +0.034 C 
ATOM     16  C   UNL     1      34.172 -15.639 -24.323  0.00  0.00    +0.174 C 
ATOM     17  C   UNL     1      34.433 -17.206 -22.445  0.00  0.00    +0.154 C 
BRANCH  17  18
ATOM     18  S   UNL     1      34.796 -18.703 -21.598  0.00  0.00    +0.063 S 
ATOM     19  O   UNL     1      35.030 -19.735 -22.593  0.00  0.00    -0.153 OA
ATOM     20  O   UNL     1      35.799 -18.417 -20.589  0.00  0.00    -0.153 OA
BRANCH  18  21
ATOM     21  N   UNL     1      33.301 -18.998 -20.829  0.00  0.00    -0.203 NA
ATOM     22  H   UNL     1      33.465 -19.274 -19.861  0.00  0.00    +0.144 HD
ATOM     23  H   UNL     1      32.809 -19.745 -21.317  0.00  0.00    +0.144 HD
ENDBRANCH  18  21
ENDBRANCH  17  18
BRANCH  16  24
ATOM     24  O   UNL     1      34.146 -15.087 -25.534  0.00  0.00    -0.469 OA
BRANCH  24  25
ATOM     25  C   UNL     1      32.878 -14.991 -26.210  0.00  0.00    +0.206 C 
ATOM     26  C   UNL     1      32.832 -13.695 -26.991  0.00  0.00    +0.051 C 
ENDBRANCH  24  25
ENDBRANCH  16  24
ENDBRANCH   9  14
BRANCH   7  27
ATOM     27  C   UNL     1      35.168  -9.909 -25.023  0.00  0.00    +0.049 C 
BRANCH  27  28
ATOM     28  C   UNL     1      35.211 -10.889 -26.214  0.00  0.00    +0.006 C 
ATOM     29  C   UNL     1      36.158 -10.432 -27.312  0.00  0.00    +0.000 C 
ENDBRANCH  27  28
ENDBRANCH   7  27
TORSDOF 7
ENDMDL
MODEL 5
REMARK VINA RESULT:      -9.3     12.340     15.444
REMARK  Name = 24771758
REMARK  7 active torsions:
REMARK  status: ('A' for Active; 'I' for Inactive)
REMARK    1  A    between atoms: C_7  and  C_27
REMARK    2  A    between atoms: C_9  and  C_14
REMARK    3  A    between atoms: C_16  and  O_24
REMARK    4  A    between atoms: C_17  and  S_18
REMARK    5  A    between atoms: S_18  and  N_21
REMARK    6  A    between atoms: O_24  and  C_25
REMARK    7  A    between atoms: C_27  and  C_28
REMARK                            x       y       z     vdW  Elec       q    Type
REMARK                         _______ _______ _______ _____ _____    ______ ____
ROOT
ATOM      1  O   UNL     1      33.410 -15.192 -26.694  0.00  0.00    -0.208 OA
ATOM      2  N   UNL     1      34.286 -16.942 -24.412  0.00  0.00    -0.236 N 
ATOM      3  N   UNL     1      34.003 -13.864 -22.879  0.00  0.00    -0.284 N 
ATOM      4  N   UNL     1      34.648 -17.371 -23.182  0.00  0.00    -0.172 NA
ATOM      5  N   UNL     1      33.397 -13.450 -25.179  0.00  0.00    -0.316 NA
ATOM      6  C   UNL     1      34.199 -15.156 -23.184  0.00  0.00    +0.095 A 
ATOM      7  C   UNL     1      34.591 -16.262 -22.431  0.00  0.00    +0.094 A 
ATOM      8  C   UNL     1      34.004 -15.608 -24.460  0.00  0.00    +0.187 A 
ATOM      9  C   UNL     1      33.599 -13.052 -23.943  0.00  0.00    +0.200 C 
ATOM     10  C   UNL     1      33.584 -14.777 -25.554  0.00  0.00    +0.225 C 
ATOM     11  C   UNL     1      34.236 -17.886 -25.502  0.00  0.00    +0.155 C 
ATOM     12  H   UNL     1      34.135 -13.512 -21.968  0.00  0.00    +0.155 HD
ENDROOT
BRANCH   9  14
ATOM     13  S   UNL     1      32.332  -9.437 -22.737  0.00  0.00    -0.031 S 
ATOM     14  C   UNL     1      33.368 -11.598 -23.663  0.00  0.00    +0.087 C 
ATOM     15  C   UNL     1      34.165 -10.530 -24.167  0.00  0.00    +0.034 C 
ATOM     16  C   UNL     1      32.337 -11.144 -22.871  0.00  0.00    +0.174 C 
ATOM     17  C   UNL     1      33.713  -9.300 -23.740  0.00  0.00    +0.154 C 
BRANCH  17  18
ATOM     18  S   UNL     1      34.261  -7.653 -24.016  0.00  0.00    +0.063 S 
ATOM     19  O   UNL     1      35.293  -7.356 -23.038  0.00  0.00    -0.153 OA
ATOM     20  O   UNL     1      34.530  -7.500 -25.435  0.00  0.00    -0.153 OA
BRANCH  18  21
ATOM     21  N   UNL     1      32.849  -6.782 -23.620  0.00  0.00    -0.203 NA
ATOM     22  H   UNL     1      32.866  -6.539 -22.629  0.00  0.00    +0.144 HD
ATOM     23  H   UNL     1      32.029  -7.356 -23.814  0.00  0.00    +0.144 HD
ENDBRANCH  18  21
ENDBRANCH  17  18
BRANCH  16  24
ATOM     24  O   UNL     1      31.406 -11.859 -22.242  0.00  0.00    -0.469 OA
BRANCH  24  25
ATOM     25  C   UNL     1      30.818 -11.307 -21.048  0.00  0.00    +0.206 C 
ATOM     26  C   UNL     1      31.667 -11.694 -19.856  0.00  0.00    +0.051 C 
ENDBRANCH  24  25
ENDBRANCH  16  24
ENDBRANCH   9  14
BRANCH   7  27
ATOM     27  C   UNL     1      34.922 -16.329 -20.998  0.00  0.00    +0.049 C 
BRANCH  27  28
ATOM     28  C   UNL     1      34.158 -15.287 -20.155  0.00  0.00    +0.006 C 
ATOM     29  C   UNL     1      32.652 -15.495 -20.193  0.00  0.00    +0.000 C 
ENDBRANCH  27  28
ENDBRANCH   7  27
TORSDOF 7
ENDMDL
MODEL 6
REMARK VINA RESULT:      -9.1      4.727      6.909
REMARK  Name = 24771758
REMARK  7 active torsions:
REMARK  status: ('A' for Active; 'I' for Inactive)
REMARK    1  A    between atoms: C_7  and  C_27
REMARK    2  A    between atoms: C_9  and  C_14
REMARK    3  A    between atoms: C_16  and  O_24
REMARK    4  A    between atoms: C_17  and  S_18
REMARK    5  A    between atoms: S_18  and  N_21
REMARK    6  A    between atoms: O_24  and  C_25
REMARK    7  A    between atoms: C_27  and  C_28
REMARK                            x       y       z     vdW  Elec       q    Type
REMARK                         _______ _______ _______ _____ _____    ______ ____
ROOT
ATOM      1  O   UNL     1      30.098 -22.942 -17.144  0.00  0.00    -0.208 OA
ATOM      2  N   UNL     1      31.526 -24.317 -14.884  0.00  0.00    -0.236 N 
ATOM      3  N   UNL     1      34.154 -22.982 -16.676  0.00  0.00    -0.284 N 
ATOM      4  N   UNL     1      32.495 -24.780 -14.065  0.00  0.00    -0.172 NA
ATOM      5  N   UNL     1      32.185 -22.314 -17.905  0.00  0.00    -0.316 NA
ATOM      6  C   UNL     1      33.364 -23.609 -15.791  0.00  0.00    +0.095 A 
ATOM      7  C   UNL     1      33.626 -24.337 -14.632  0.00  0.00    +0.094 A 
ATOM      8  C   UNL     1      32.005 -23.601 -15.941  0.00  0.00    +0.187 A 
ATOM      9  C   UNL     1      33.487 -22.347 -17.729  0.00  0.00    +0.200 C 
ATOM     10  C   UNL     1      31.317 -22.945 -17.019  0.00  0.00    +0.225 C 
ATOM     11  C   UNL     1      30.146 -24.609 -14.578  0.00  0.00    +0.155 C 
ATOM     12  H   UNL     1      35.135 -22.970 -16.591  0.00  0.00    +0.155 HD
ENDROOT
BRANCH   9  14
ATOM     13  S   UNL     1      36.356 -20.809 -20.080  0.00  0.00    -0.031 S 
ATOM     14  C   UNL     1      34.318 -21.633 -18.751  0.00  0.00    +0.087 C 
ATOM     15  C   UNL     1      33.807 -20.776 -19.768  0.00  0.00    +0.034 C 
ATOM     16  C   UNL     1      35.690 -21.739 -18.806  0.00  0.00    +0.174 C 
ATOM     17  C   UNL     1      34.808 -20.260 -20.562  0.00  0.00    +0.154 C 
BRANCH  17  18
ATOM     18  S   UNL     1      34.809 -19.173 -21.944  0.00  0.00    +0.063 S 
ATOM     19  O   UNL     1      34.706 -19.980 -23.147  0.00  0.00    -0.153 OA
ATOM     20  O   UNL     1      33.850 -18.115 -21.686  0.00  0.00    -0.153 OA
BRANCH  18  21
ATOM     21  N   UNL     1      36.387 -18.533 -21.836  0.00  0.00    -0.203 NA
ATOM     22  H   UNL     1      37.065 -19.253 -22.086  0.00  0.00    +0.144 HD
ATOM     23  H   UNL     1      36.563 -18.218 -20.883  0.00  0.00    +0.144 HD
ENDBRANCH  18  21
ENDBRANCH  17  18
BRANCH  16  24
ATOM     24  O   UNL     1      36.493 -22.448 -18.016  0.00  0.00    -0.469 OA
BRANCH  24  25
ATOM     25  C   UNL     1      37.206 -21.756 -16.974  0.00  0.00    +0.206 C 
ATOM     26  C   UNL     1      37.615 -22.753 -15.910  0.00  0.00    +0.051 C 
ENDBRANCH  24  25
ENDBRANCH  16  24
ENDBRANCH   9  14
BRANCH   7  27
ATOM     27  C   UNL     1      34.926 -24.645 -14.013  0.00  0.00    +0.049 C 
BRANCH  27  28
ATOM     28  C   UNL     1      34.998 -24.233 -12.528  0.00  0.00    +0.006 C 
ATOM     29  C   UNL     1      36.251 -23.436 -12.203  0.00  0.00    +0.000 C 
ENDBRANCH  27  28
ENDBRANCH   7  27
TORSDOF 7
ENDMDL
MODEL 7
REMARK VINA RESULT:      -8.7     12.843     16.277
REMARK  Name = 24771758
REMARK  7 active torsions:
REMARK  status: ('A' for Active; 'I' for Inactive)
REMARK    1  A    between atoms: C_7  and  C_27
REMARK    2  A    between atoms: C_9  and  C_14
REMARK    3  A    between atoms: C_16  and  O_24
REMARK    4  A    between atoms: C_17  and  S_18
REMARK    5  A    between atoms: S_18  and  N_21
REMARK    6  A    between atoms: O_24  and  C_25
REMARK    7  A    between atoms: C_27  and  C_28
REMARK                            x       y       z     vdW  Elec       q    Type
REMARK                         _______ _______ _______ _____ _____    ______ ____
ROOT
ATOM      1  O   UNL     1      33.319 -14.687 -26.892  0.00  0.00    -0.208 OA
ATOM      2  N   UNL     1      34.053 -16.457 -24.576  0.00  0.00    -0.236 N 
ATOM      3  N   UNL     1      34.145 -13.325 -23.132  0.00  0.00    -0.284 N 
ATOM      4  N   UNL     1      34.396 -16.889 -23.342  0.00  0.00    -0.172 NA
ATOM      5  N   UNL     1      33.533 -12.912 -25.431  0.00  0.00    -0.316 NA
ATOM      6  C   UNL     1      34.191 -14.639 -23.402  0.00  0.00    +0.095 A 
ATOM      7  C   UNL     1      34.478 -15.760 -22.624  0.00  0.00    +0.094 A 
ATOM      8  C   UNL     1      33.917 -15.103 -24.659  0.00  0.00    +0.187 A 
ATOM      9  C   UNL     1      33.807 -12.504 -24.213  0.00  0.00    +0.200 C 
ATOM     10  C   UNL     1      33.565 -14.262 -25.769  0.00  0.00    +0.225 C 
ATOM     11  C   UNL     1      33.874 -17.421 -25.635  0.00  0.00    +0.155 C 
ATOM     12  H   UNL     1      34.336 -12.965 -22.236  0.00  0.00    +0.155 HD
ENDROOT
BRANCH   9  14
ATOM     13  S   UNL     1      34.354  -8.531 -23.998  0.00  0.00    -0.031 S 
ATOM     14  C   UNL     1      33.742 -11.026 -23.972  0.00  0.00    +0.087 C 
ATOM     15  C   UNL     1      32.706 -10.358 -23.258  0.00  0.00    +0.034 C 
ATOM     16  C   UNL     1      34.703 -10.151 -24.428  0.00  0.00    +0.174 C 
ATOM     17  C   UNL     1      32.914  -8.997 -23.197  0.00  0.00    +0.154 C 
BRANCH  17  18
ATOM     18  S   UNL     1      32.011  -7.672 -22.476  0.00  0.00    +0.063 S 
ATOM     19  O   UNL     1      31.635  -8.067 -21.130  0.00  0.00    -0.153 OA
ATOM     20  O   UNL     1      32.756  -6.446 -22.699  0.00  0.00    -0.153 OA
BRANCH  18  21
ATOM     21  N   UNL     1      30.621  -7.666 -23.465  0.00  0.00    -0.203 NA
ATOM     22  H   UNL     1      29.789  -7.767 -22.883  0.00  0.00    +0.144 HD
ATOM     23  H   UNL     1      30.670  -8.440 -24.126  0.00  0.00    +0.144 HD
ENDBRANCH  18  21
ENDBRANCH  17  18
BRANCH  16  24
ATOM     24  O   UNL     1      35.803 -10.427 -25.126  0.00  0.00    -0.469 OA
BRANCH  24  25
ATOM     25  C   UNL     1      35.864  -9.992 -26.497  0.00  0.00    +0.206 C 
ATOM     26  C   UNL     1      35.581 -11.171 -27.403  0.00  0.00    +0.051 C 
ENDBRANCH  24  25
ENDBRANCH  16  24
ENDBRANCH   9  14
BRANCH   7  27
ATOM     27  C   UNL     1      34.834 -15.823 -21.197  0.00  0.00    +0.049 C 
BRANCH  27  28
ATOM     28  C   UNL     1      33.739 -15.242 -20.278  0.00  0.00    +0.006 C 
ATOM     29  C   UNL     1      32.344 -15.711 -20.662  0.00  0.00    +0.000 C 
ENDBRANCH  27  28
ENDBRANCH   7  27
TORSDOF 7
ENDMDL
MODEL 8
REMARK VINA RESULT:      -8.6      2.021      3.468
REMARK  Name = 24771758
REMARK  7 active torsions:
REMARK  status: ('A' for Active; 'I' for Inactive)
REMARK    1  A    between atoms: C_7  and  C_27
REMARK    2  A    between atoms: C_9  and  C_14
REMARK    3  A    between atoms: C_16  and  O_24
REMARK    4  A    between atoms: C_17  and  S_18
REMARK    5  A    between atoms: S_18  and  N_21
REMARK    6  A    between atoms: O_24  and  C_25
REMARK    7  A    between atoms: C_27  and  C_28
REMARK                            x       y       z     vdW  Elec       q    Type
REMARK                         _______ _______ _______ _____ _____    ______ ____
ROOT
ATOM      1  O   UNL     1      36.018 -21.190 -19.331  0.00  0.00    -0.208 OA
ATOM      2  N   UNL     1      33.091 -21.712 -18.891  0.00  0.00    -0.236 N 
ATOM      3  N   UNL     1      34.514 -23.331 -16.197  0.00  0.00    -0.284 N 
ATOM      4  N   UNL     1      31.924 -22.143 -18.362  0.00  0.00    -0.172 NA
ATOM      5  N   UNL     1      36.389 -22.403 -17.402  0.00  0.00    -0.316 NA
ATOM      6  C   UNL     1      33.689 -22.807 -17.117  0.00  0.00    +0.095 A 
ATOM      7  C   UNL     1      32.303 -22.817 -17.267  0.00  0.00    +0.094 A 
ATOM      8  C   UNL     1      34.185 -22.090 -18.170  0.00  0.00    +0.187 A 
ATOM      9  C   UNL     1      35.875 -23.090 -16.407  0.00  0.00    +0.200 C 
ATOM     10  C   UNL     1      35.583 -21.836 -18.385  0.00  0.00    +0.225 C 
ATOM     11  C   UNL     1      33.069 -20.935 -20.106  0.00  0.00    +0.155 C 
ATOM     12  H   UNL     1      34.183 -23.851 -15.428  0.00  0.00    +0.155 HD
ENDROOT
BRANCH   9  14
ATOM     13  S   UNL     1      37.880 -24.404 -13.184  0.00  0.00    -0.031 S 
ATOM     14  C   UNL     1      36.844 -23.655 -15.413  0.00  0.00    +0.087 C 
ATOM     15  C   UNL     1      38.123 -24.197 -15.733  0.00  0.00    +0.034 C 
ATOM     16  C   UNL     1      36.586 -23.705 -14.061  0.00  0.00    +0.174 C 
ATOM     17  C   UNL     1      38.792 -24.640 -14.614  0.00  0.00    +0.154 C 
BRANCH  17  18
ATOM     18  S   UNL     1      40.365 -25.387 -14.368  0.00  0.00    +0.063 S 
ATOM     19  O   UNL     1      41.338 -24.327 -14.174  0.00  0.00    -0.153 OA
ATOM     20  O   UNL     1      40.215 -26.435 -13.375  0.00  0.00    -0.153 OA
BRANCH  18  21
ATOM     21  N   UNL     1      40.615 -26.101 -15.898  0.00  0.00    -0.203 NA
ATOM     22  H   UNL     1      41.437 -25.686 -16.336  0.00  0.00    +0.144 HD
ATOM     23  H   UNL     1      39.798 -25.940 -16.486  0.00  0.00    +0.144 HD
ENDBRANCH  18  21
ENDBRANCH  17  18
BRANCH  16  24
ATOM     24  O   UNL     1      35.498 -23.291 -13.415  0.00  0.00    -0.469 OA
BRANCH  24  25
ATOM     25  C   UNL     1      34.691 -24.276 -12.743  0.00  0.00    +0.206 C 
ATOM     26  C   UNL     1      33.319 -24.309 -13.382  0.00  0.00    +0.051 C 
ENDBRANCH  24  25
ENDBRANCH  16  24
ENDBRANCH   9  14
BRANCH   7  27
ATOM     27  C   UNL     1      31.289 -23.446 -16.405  0.00  0.00    +0.049 C 
BRANCH  27  28
ATOM     28  C   UNL     1      29.900 -22.785 -16.529  0.00  0.00    +0.006 C 
ATOM     29  C   UNL     1      28.764 -23.751 -16.235  0.00  0.00    +0.000 C 
ENDBRANCH  27  28
ENDBRANCH   7  27
TORSDOF 7
ENDMDL
MODEL 9
REMARK VINA RESULT:      -8.6     11.425     14.789
REMARK  Name = 24771758
REMARK  7 active torsions:
REMARK  status: ('A' for Active; 'I' for Inactive)
REMARK    1  A    between atoms: C_7  and  C_27
REMARK    2  A    between atoms: C_9  and  C_14
REMARK    3  A    between atoms: C_16  and  O_24
REMARK    4  A    between atoms: C_17  and  S_18
REMARK    5  A    between atoms: S_18  and  N_21
REMARK    6  A    between atoms: O_24  and  C_25
REMARK    7  A    between atoms: C_27  and  C_28
REMARK                            x       y       z     vdW  Elec       q    Type
REMARK                         _______ _______ _______ _____ _____    ______ ____
ROOT
ATOM      1  O   UNL     1      31.064 -12.043 -20.499  0.00  0.00    -0.208 OA
ATOM      2  N   UNL     1      32.244  -9.572 -21.740  0.00  0.00    -0.236 N 
ATOM      3  N   UNL     1      33.672 -12.073 -23.640  0.00  0.00    -0.284 N 
ATOM      4  N   UNL     1      32.953  -8.745 -22.540  0.00  0.00    -0.172 NA
ATOM      5  N   UNL     1      32.282 -13.243 -22.050  0.00  0.00    -0.316 NA
ATOM      6  C   UNL     1      33.287 -10.911 -23.091  0.00  0.00    +0.095 A 
ATOM      7  C   UNL     1      33.592  -9.580 -23.371  0.00  0.00    +0.094 A 
ATOM      8  C   UNL     1      32.415 -10.892 -22.038  0.00  0.00    +0.187 A 
ATOM      9  C   UNL     1      33.125 -13.221 -23.058  0.00  0.00    +0.200 C 
ATOM     10  C   UNL     1      31.847 -12.069 -21.441  0.00  0.00    +0.225 C 
ATOM     11  C   UNL     1      31.417  -9.010 -20.699  0.00  0.00    +0.155 C 
ATOM     12  H   UNL     1      34.298 -12.114 -24.400  0.00  0.00    +0.155 HD
ENDROOT
BRANCH   9  14
ATOM     13  S   UNL     1      33.852 -16.479 -25.291  0.00  0.00    -0.031 S 
ATOM     14  C   UNL     1      33.522 -14.549 -23.627  0.00  0.00    +0.087 C 
ATOM     15  C   UNL     1      34.180 -15.586 -22.904  0.00  0.00    +0.034 C 
ATOM     16  C   UNL     1      33.284 -14.902 -24.937  0.00  0.00    +0.174 C 
ATOM     17  C   UNL     1      34.419 -16.693 -23.689  0.00  0.00    +0.154 C 
BRANCH  17  18
ATOM     18  S   UNL     1      35.176 -18.248 -23.379  0.00  0.00    +0.063 S 
ATOM     19  O   UNL     1      34.995 -19.077 -24.558  0.00  0.00    -0.153 OA
ATOM     20  O   UNL     1      36.506 -18.005 -22.851  0.00  0.00    -0.153 OA
BRANCH  18  21
ATOM     21  N   UNL     1      34.179 -18.837 -22.125  0.00  0.00    -0.203 NA
ATOM     22  H   UNL     1      34.614 -18.639 -21.224  0.00  0.00    +0.144 HD
ATOM     23  H   UNL     1      34.058 -19.843 -22.230  0.00  0.00    +0.144 HD
ENDBRANCH  18  21
ENDBRANCH  17  18
BRANCH  16  24
ATOM     24  O   UNL     1      32.694 -14.183 -25.889  0.00  0.00    -0.469 OA
BRANCH  24  25
ATOM     25  C   UNL     1      33.459 -13.854 -27.064  0.00  0.00    +0.206 C 
ATOM     26  C   UNL     1      33.809 -12.382 -27.028  0.00  0.00    +0.051 C 
ENDBRANCH  24  25
ENDBRANCH  16  24
ENDBRANCH   9  14
BRANCH   7  27
ATOM     27  C   UNL     1      34.481  -9.039 -24.413  0.00  0.00    +0.049 C 
BRANCH  27  28
ATOM     28  C   UNL     1      34.953  -7.601 -24.113  0.00  0.00    +0.006 C 
ATOM     29  C   UNL     1      34.277  -6.566 -24.998  0.00  0.00    +0.000 C 
ENDBRANCH  27  28
ENDBRANCH   7  27
TORSDOF 7
ENDMDL
