MODEL 1
REMARK VINA RESULT:      -8.6      0.000      0.000
REMARK  Name = 3011155
REMARK  6 active torsions:
REMARK  status: ('A' for Active; 'I' for Inactive)
REMARK    1  A    between atoms: N_1  and  C1*_15
REMARK    2  A    between atoms: C_9  and  O_25
REMARK    3  A    between atoms: C2*_14  and  O2*_18
REMARK    4  A    between atoms: C3*_16  and  O3*_20
REMARK    5  A    between atoms: C4*_17  and  C5*_22
REMARK    6  A    between atoms: C5*_22  and  O5*_23
REMARK                            x       y       z     vdW  Elec       q    Type
REMARK                         _______ _______ _______ _____ _____    ______ ____
ROOT
ATOM      1  N   UNL     1      36.042 -23.164 -15.850  0.00  0.00    -0.236 N 
ATOM      2  N   UNL     1      36.464 -22.067 -17.752  0.00  0.00    -0.239 NA
ATOM      3  N   UNL     1      33.648 -23.501 -16.096  0.00  0.00    -0.311 NA
ATOM      4  N   UNL     1      32.822 -22.549 -18.185  0.00  0.00    -0.289 NA
ATOM      5  N   UNL     1      31.387 -23.631 -16.683  0.00  0.00    -0.283 N 
ATOM      6  C   UNL     1      34.843 -23.051 -16.504  0.00  0.00    +0.223 C 
ATOM      7  C   UNL     1      36.983 -22.555 -16.645  0.00  0.00    +0.224 C 
ATOM      8  C   UNL     1      35.128 -22.369 -17.677  0.00  0.00    +0.190 C 
ATOM      9  C   UNL     1      34.060 -22.121 -18.534  0.00  0.00    +0.311 C 
ATOM     10  C   UNL     1      32.695 -23.202 -17.006  0.00  0.00    +0.200 C 
ATOM     11  H   UNL     1      31.220 -24.112 -15.841  0.00  0.00    +0.156 HD
ATOM     12  H   UNL     1      30.642 -23.447 -17.301  0.00  0.00    +0.156 HD
ENDROOT
BRANCH   1  15
ATOM     13  O4* UNL     1      37.619 -23.525 -14.104  0.00  0.00    -0.333 OA
ATOM     14  C2* UNL     1      36.118 -25.318 -14.534  0.00  0.00    +0.187 C 
ATOM     15  C1* UNL     1      36.284 -23.802 -14.562  0.00  0.00    +0.226 C 
ATOM     16  C3* UNL     1      36.965 -25.692 -13.334  0.00  0.00    +0.171 C 
ATOM     17  C4* UNL     1      38.096 -24.661 -13.356  0.00  0.00    +0.175 C 
BRANCH  14  18
ATOM     18  O2* UNL     1      36.663 -25.917 -15.702  0.00  0.00    -0.378 OA
ATOM     19  H2* UNL     1      35.946 -26.291 -16.239  0.00  0.00    +0.211 HD
ENDBRANCH  14  18
BRANCH  16  20
ATOM     20  O3* UNL     1      36.181 -25.506 -12.158  0.00  0.00    -0.379 OA
ATOM     21  H3* UNL     1      36.139 -24.562 -11.943  0.00  0.00    +0.211 HD
ENDBRANCH  16  20
BRANCH  17  22
ATOM     22  C5* UNL     1      39.361 -25.169 -14.033  0.00  0.00    +0.169 C 
BRANCH  22  23
ATOM     23  O5* UNL     1      39.471 -24.557 -15.306  0.00  0.00    -0.379 OA
ATOM     24  H5* UNL     1      39.277 -25.210 -15.997  0.00  0.00    +0.211 HD
ENDBRANCH  22  23
ENDBRANCH  17  22
ENDBRANCH   1  15
BRANCH   9  25
ATOM     25  O   UNL     1      34.211 -21.456 -19.724  0.00  0.00    -0.446 OA
ATOM     26  C   UNL     1      33.156 -20.581 -20.105  0.00  0.00    +0.255 C 
ENDBRANCH   9  25
TORSDOF 6
ENDMDL
MODEL 2
REMARK VINA RESULT:      -8.4      2.003      3.424
REMARK  Name = 3011155
REMARK  6 active torsions:
REMARK  status: ('A' for Active; 'I' for Inactive)
REMARK    1  A    between atoms: N_1  and  C1*_15
REMARK    2  A    between atoms: C_9  and  O_25
REMARK    3  A    between atoms: C2*_14  and  O2*_18
REMARK    4  A    between atoms: C3*_16  and  O3*_20
REMARK    5  A    between atoms: C4*_17  and  C5*_22
REMARK    6  A    between atoms: C5*_22  and  O5*_23
REMARK                            x       y       z     vdW  Elec       q    Type
REMARK                         _______ _______ _______ _____ _____    ______ ____
ROOT
ATOM      1  N   UNL     1      34.706 -24.086 -15.078  0.00  0.00    -0.236 N 
ATOM      2  N   UNL     1      32.711 -23.977 -14.076  0.00  0.00    -0.239 NA
ATOM      3  N   UNL     1      34.112 -23.214 -17.267  0.00  0.00    -0.311 NA
ATOM      4  N   UNL     1      31.743 -22.641 -17.386  0.00  0.00    -0.289 NA
ATOM      5  N   UNL     1      33.168 -22.342 -19.222  0.00  0.00    -0.283 N 
ATOM      6  C   UNL     1      33.836 -23.577 -16.005  0.00  0.00    +0.223 C 
ATOM      7  C   UNL     1      33.977 -24.310 -13.935  0.00  0.00    +0.224 C 
ATOM      8  C   UNL     1      32.609 -23.518 -15.364  0.00  0.00    +0.190 C 
ATOM      9  C   UNL     1      31.537 -23.027 -16.104  0.00  0.00    +0.311 C 
ATOM     10  C   UNL     1      32.999 -22.757 -17.880  0.00  0.00    +0.200 C 
ATOM     11  H   UNL     1      34.053 -22.398 -19.647  0.00  0.00    +0.156 HD
ATOM     12  H   UNL     1      32.398 -21.996 -19.731  0.00  0.00    +0.156 HD
ENDROOT
BRANCH   1  15
ATOM     13  O4* UNL     1      36.467 -25.659 -14.773  0.00  0.00    -0.333 OA
ATOM     14  C2* UNL     1      37.073 -23.369 -14.565  0.00  0.00    +0.187 C 
ATOM     15  C1* UNL     1      36.129 -24.347 -15.257  0.00  0.00    +0.226 C 
ATOM     16  C3* UNL     1      38.334 -24.202 -14.443  0.00  0.00    +0.171 C 
ATOM     17  C4* UNL     1      37.807 -25.625 -14.244  0.00  0.00    +0.175 C 
BRANCH  14  18
ATOM     18  O2* UNL     1      36.602 -23.032 -13.267  0.00  0.00    -0.378 OA
ATOM     19  H2* UNL     1      35.747 -23.464 -13.110  0.00  0.00    +0.211 HD
ENDBRANCH  14  18
BRANCH  16  20
ATOM     20  O3* UNL     1      39.040 -24.129 -15.679  0.00  0.00    -0.379 OA
ATOM     21  H3* UNL     1      39.332 -25.017 -15.937  0.00  0.00    +0.211 HD
ENDBRANCH  16  20
BRANCH  17  22
ATOM     22  C5* UNL     1      37.745 -26.045 -12.783  0.00  0.00    +0.169 C 
BRANCH  22  23
ATOM     23  O5* UNL     1      36.398 -25.975 -12.348  0.00  0.00    -0.379 OA
ATOM     24  H5* UNL     1      35.806 -26.091 -13.108  0.00  0.00    +0.211 HD
ENDBRANCH  22  23
ENDBRANCH  17  22
ENDBRANCH   1  15
BRANCH   9  25
ATOM     25  O   UNL     1      30.273 -22.920 -15.583  0.00  0.00    -0.446 OA
ATOM     26  C   UNL     1      29.210 -22.753 -16.515  0.00  0.00    +0.255 C 
ENDBRANCH   9  25
TORSDOF 6
ENDMDL
MODEL 3
REMARK VINA RESULT:      -8.3      2.573      3.938
REMARK  Name = 3011155
REMARK  6 active torsions:
REMARK  status: ('A' for Active; 'I' for Inactive)
REMARK    1  A    between atoms: N_1  and  C1*_15
REMARK    2  A    between atoms: C_9  and  O_25
REMARK    3  A    between atoms: C2*_14  and  O2*_18
REMARK    4  A    between atoms: C3*_16  and  O3*_20
REMARK    5  A    between atoms: C4*_17  and  C5*_22
REMARK    6  A    between atoms: C5*_22  and  O5*_23
REMARK                            x       y       z     vdW  Elec       q    Type
REMARK                         _______ _______ _______ _____ _____    ______ ____
ROOT
ATOM      1  N   UNL     1      33.608 -23.634 -16.383  0.00  0.00    -0.236 N 
ATOM      2  N   UNL     1      32.174 -22.595 -17.747  0.00  0.00    -0.239 NA
ATOM      3  N   UNL     1      32.087 -24.266 -14.597  0.00  0.00    -0.311 NA
ATOM      4  N   UNL     1      29.808 -23.529 -15.062  0.00  0.00    -0.289 NA
ATOM      5  N   UNL     1      30.340 -24.695 -13.101  0.00  0.00    -0.283 N 
ATOM      6  C   UNL     1      32.382 -23.698 -15.775  0.00  0.00    +0.223 C 
ATOM      7  C   UNL     1      33.426 -22.959 -17.566  0.00  0.00    +0.224 C 
ATOM      8  C   UNL     1      31.511 -23.050 -16.636  0.00  0.00    +0.190 C 
ATOM      9  C   UNL     1      30.178 -22.976 -16.242  0.00  0.00    +0.311 C 
ATOM     10  C   UNL     1      30.771 -24.131 -14.324  0.00  0.00    +0.200 C 
ATOM     11  H   UNL     1      30.986 -25.148 -12.513  0.00  0.00    +0.156 HD
ATOM     12  H   UNL     1      29.392 -24.634 -12.838  0.00  0.00    +0.156 HD
ENDROOT
BRANCH   1  15
ATOM     13  O4* UNL     1      34.652 -24.911 -14.667  0.00  0.00    -0.333 OA
ATOM     14  C2* UNL     1      35.951 -23.141 -15.580  0.00  0.00    +0.187 C 
ATOM     15  C1* UNL     1      34.867 -24.170 -15.882  0.00  0.00    +0.226 C 
ATOM     16  C3* UNL     1      36.815 -23.893 -14.587  0.00  0.00    +0.171 C 
ATOM     17  C4* UNL     1      35.812 -24.762 -13.824  0.00  0.00    +0.175 C 
BRANCH  14  18
ATOM     18  O2* UNL     1      35.404 -21.988 -14.953  0.00  0.00    -0.378 OA
ATOM     19  H2* UNL     1      36.123 -21.444 -14.592  0.00  0.00    +0.211 HD
ENDBRANCH  14  18
BRANCH  16  20
ATOM     20  O3* UNL     1      37.707 -24.732 -15.317  0.00  0.00    -0.379 OA
ATOM     21  H3* UNL     1      37.472 -25.661 -15.166  0.00  0.00    +0.211 HD
ENDBRANCH  16  20
BRANCH  17  22
ATOM     22  C5* UNL     1      35.359 -24.144 -12.509  0.00  0.00    +0.169 C 
BRANCH  22  23
ATOM     23  O5* UNL     1      34.053 -23.621 -12.680  0.00  0.00    -0.379 OA
ATOM     24  H5* UNL     1      34.024 -22.710 -12.352  0.00  0.00    +0.211 HD
ENDBRANCH  22  23
ENDBRANCH  17  22
ENDBRANCH   1  15
BRANCH   9  25
ATOM     25  O   UNL     1      29.219 -22.361 -17.006  0.00  0.00    -0.446 OA
ATOM     26  C   UNL     1      28.012 -23.082 -17.219  0.00  0.00    +0.255 C 
ENDBRANCH   9  25
TORSDOF 6
ENDMDL
MODEL 4
REMARK VINA RESULT:      -8.1      2.221      2.872
REMARK  Name = 3011155
REMARK  6 active torsions:
REMARK  status: ('A' for Active; 'I' for Inactive)
REMARK    1  A    between atoms: N_1  and  C1*_15
REMARK    2  A    between atoms: C_9  and  O_25
REMARK    3  A    between atoms: C2*_14  and  O2*_18
REMARK    4  A    between atoms: C3*_16  and  O3*_20
REMARK    5  A    between atoms: C4*_17  and  C5*_22
REMARK    6  A    between atoms: C5*_22  and  O5*_23
REMARK                            x       y       z     vdW  Elec       q    Type
REMARK                         _______ _______ _______ _____ _____    ______ ____
ROOT
ATOM      1  N   UNL     1      34.627 -24.055 -14.772  0.00  0.00    -0.236 N 
ATOM      2  N   UNL     1      33.767 -23.045 -16.572  0.00  0.00    -0.239 NA
ATOM      3  N   UNL     1      32.576 -24.575 -13.577  0.00  0.00    -0.311 NA
ATOM      4  N   UNL     1      30.610 -23.809 -14.803  0.00  0.00    -0.289 NA
ATOM      5  N   UNL     1      30.416 -24.899 -12.738  0.00  0.00    -0.283 N 
ATOM      6  C   UNL     1      33.267 -24.066 -14.607  0.00  0.00    +0.223 C 
ATOM      7  C   UNL     1      34.873 -23.428 -15.970  0.00  0.00    +0.224 C 
ATOM      8  C   UNL     1      32.756 -23.437 -15.732  0.00  0.00    +0.190 C 
ATOM      9  C   UNL     1      31.371 -23.317 -15.809  0.00  0.00    +0.311 C 
ATOM     10  C   UNL     1      31.250 -24.399 -13.765  0.00  0.00    +0.200 C 
ATOM     11  H   UNL     1      30.813 -25.340 -11.953  0.00  0.00    +0.156 HD
ATOM     12  H   UNL     1      29.438 -24.806 -12.809  0.00  0.00    +0.156 HD
ENDROOT
BRANCH   1  15
ATOM     13  O4* UNL     1      36.865 -23.874 -13.983  0.00  0.00    -0.333 OA
ATOM     14  C2* UNL     1      35.962 -26.073 -14.048  0.00  0.00    +0.187 C 
ATOM     15  C1* UNL     1      35.627 -24.596 -13.861  0.00  0.00    +0.226 C 
ATOM     16  C3* UNL     1      37.343 -26.150 -13.427  0.00  0.00    +0.171 C 
ATOM     17  C4* UNL     1      37.957 -24.784 -13.743  0.00  0.00    +0.175 C 
BRANCH  14  18
ATOM     18  O2* UNL     1      36.044 -26.410 -15.427  0.00  0.00    -0.378 OA
ATOM     19  H2* UNL     1      35.845 -27.353 -15.542  0.00  0.00    +0.211 HD
ENDBRANCH  14  18
BRANCH  16  20
ATOM     20  O3* UNL     1      37.191 -26.284 -12.016  0.00  0.00    -0.379 OA
ATOM     21  H3* UNL     1      37.593 -25.520 -11.574  0.00  0.00    +0.211 HD
ENDBRANCH  16  20
BRANCH  17  22
ATOM     22  C5* UNL     1      38.840 -24.794 -14.983  0.00  0.00    +0.169 C 
BRANCH  22  23
ATOM     23  O5* UNL     1      39.070 -26.139 -15.365  0.00  0.00    -0.379 OA
ATOM     24  H5* UNL     1      38.946 -26.719 -14.598  0.00  0.00    +0.211 HD
ENDBRANCH  22  23
ENDBRANCH  17  22
ENDBRANCH   1  15
BRANCH   9  25
ATOM     25  O   UNL     1      30.744 -22.714 -16.870  0.00  0.00    -0.446 OA
ATOM     26  C   UNL     1      29.323 -22.660 -16.824  0.00  0.00    +0.255 C 
ENDBRANCH   9  25
TORSDOF 6
ENDMDL
MODEL 5
REMARK VINA RESULT:      -7.7      3.733      6.380
REMARK  Name = 3011155
REMARK  6 active torsions:
REMARK  status: ('A' for Active; 'I' for Inactive)
REMARK    1  A    between atoms: N_1  and  C1*_15
REMARK    2  A    between atoms: C_9  and  O_25
REMARK    3  A    between atoms: C2*_14  and  O2*_18
REMARK    4  A    between atoms: C3*_16  and  O3*_20
REMARK    5  A    between atoms: C4*_17  and  C5*_22
REMARK    6  A    between atoms: C5*_22  and  O5*_23
REMARK                            x       y       z     vdW  Elec       q    Type
REMARK                         _______ _______ _______ _____ _____    ______ ____
ROOT
ATOM      1  N   UNL     1      34.066 -24.482 -14.219  0.00  0.00    -0.236 N 
ATOM      2  N   UNL     1      35.692 -24.450 -15.751  0.00  0.00    -0.239 NA
ATOM      3  N   UNL     1      35.355 -23.901 -12.243  0.00  0.00    -0.311 NA
ATOM      4  N   UNL     1      37.710 -23.561 -12.782  0.00  0.00    -0.289 NA
ATOM      5  N   UNL     1      36.911 -23.327 -10.592  0.00  0.00    -0.283 N 
ATOM      6  C   UNL     1      35.216 -24.154 -13.552  0.00  0.00    +0.223 C 
ATOM      7  C   UNL     1      34.409 -24.650 -15.538  0.00  0.00    +0.224 C 
ATOM      8  C   UNL     1      36.209 -24.139 -14.519  0.00  0.00    +0.190 C 
ATOM      9  C   UNL     1      37.497 -23.827 -14.093  0.00  0.00    +0.311 C 
ATOM     10  C   UNL     1      36.642 -23.613 -11.951  0.00  0.00    +0.200 C 
ATOM     11  H   UNL     1      36.182 -23.347  -9.931  0.00  0.00    +0.156 HD
ATOM     12  H   UNL     1      37.828 -23.108 -10.307  0.00  0.00    +0.156 HD
ENDROOT
BRANCH   1  15
ATOM     13  O4* UNL     1      31.918 -25.474 -14.483  0.00  0.00    -0.333 OA
ATOM     14  C2* UNL     1      31.953 -23.335 -13.445  0.00  0.00    +0.187 C 
ATOM     15  C1* UNL     1      32.732 -24.630 -13.649  0.00  0.00    +0.226 C 
ATOM     16  C3* UNL     1      30.524 -23.841 -13.430  0.00  0.00    +0.171 C 
ATOM     17  C4* UNL     1      30.551 -25.025 -14.400  0.00  0.00    +0.175 C 
BRANCH  14  18
ATOM     18  O2* UNL     1      32.129 -22.451 -14.544  0.00  0.00    -0.378 OA
ATOM     19  H2* UNL     1      32.531 -21.624 -14.234  0.00  0.00    +0.211 HD
ENDBRANCH  14  18
BRANCH  16  20
ATOM     20  O3* UNL     1      30.232 -24.315 -12.117  0.00  0.00    -0.379 OA
ATOM     21  H3* UNL     1      30.984 -24.134 -11.533  0.00  0.00    +0.211 HD
ENDBRANCH  16  20
BRANCH  17  22
ATOM     22  C5* UNL     1      30.092 -24.661 -15.805  0.00  0.00    +0.169 C 
BRANCH  22  23
ATOM     23  O5* UNL     1      28.685 -24.497 -15.794  0.00  0.00    -0.379 OA
ATOM     24  H5* UNL     1      28.469 -23.553 -15.748  0.00  0.00    +0.211 HD
ENDBRANCH  22  23
ENDBRANCH  17  22
ENDBRANCH   1  15
BRANCH   9  25
ATOM     25  O   UNL     1      38.565 -23.781 -14.952  0.00  0.00    -0.446 OA
ATOM     26  C   UNL     1      39.407 -24.927 -14.986  0.00  0.00    +0.255 C 
ENDBRANCH   9  25
TORSDOF 6
ENDMDL
MODEL 6
REMARK VINA RESULT:      -7.5      2.224      3.406
REMARK  Name = 3011155
REMARK  6 active torsions:
REMARK  status: ('A' for Active; 'I' for Inactive)
REMARK    1  A    between atoms: N_1  and  C1*_15
REMARK    2  A    between atoms: C_9  and  O_25
REMARK    3  A    between atoms: C2*_14  and  O2*_18
REMARK    4  A    between atoms: C3*_16  and  O3*_20
REMARK    5  A    between atoms: C4*_17  and  C5*_22
REMARK    6  A    between atoms: C5*_22  and  O5*_23
REMARK                            x       y       z     vdW  Elec       q    Type
REMARK                         _______ _______ _______ _____ _____    ______ ____
ROOT
ATOM      1  N   UNL     1      33.923 -23.803 -14.255  0.00  0.00    -0.236 N 
ATOM      2  N   UNL     1      31.698 -23.767 -14.047  0.00  0.00    -0.239 NA
ATOM      3  N   UNL     1      34.125 -23.166 -16.592  0.00  0.00    -0.311 NA
ATOM      4  N   UNL     1      31.938 -22.793 -17.607  0.00  0.00    -0.289 NA
ATOM      5  N   UNL     1      33.916 -22.537 -18.836  0.00  0.00    -0.283 N 
ATOM      6  C   UNL     1      33.427 -23.443 -15.480  0.00  0.00    +0.223 C 
ATOM      7  C   UNL     1      32.840 -23.987 -13.431  0.00  0.00    +0.224 C 
ATOM      8  C   UNL     1      32.050 -23.427 -15.329  0.00  0.00    +0.190 C 
ATOM      9  C   UNL     1      31.298 -23.085 -16.449  0.00  0.00    +0.311 C 
ATOM     10  C   UNL     1      33.291 -22.851 -17.606  0.00  0.00    +0.200 C 
ATOM     11  H   UNL     1      34.897 -22.559 -18.909  0.00  0.00    +0.156 HD
ATOM     12  H   UNL     1      33.369 -22.297 -19.619  0.00  0.00    +0.156 HD
ENDROOT
BRANCH   1  15
ATOM     13  O4* UNL     1      36.089 -22.816 -14.292  0.00  0.00    -0.333 OA
ATOM     14  C2* UNL     1      36.024 -25.186 -14.476  0.00  0.00    +0.187 C 
ATOM     15  C1* UNL     1      35.324 -23.966 -13.888  0.00  0.00    +0.226 C 
ATOM     16  C3* UNL     1      37.477 -24.759 -14.415  0.00  0.00    +0.171 C 
ATOM     17  C4* UNL     1      37.418 -23.247 -14.644  0.00  0.00    +0.175 C 
BRANCH  14  18
ATOM     18  O2* UNL     1      35.649 -25.390 -15.832  0.00  0.00    -0.378 OA
ATOM     19  H2* UNL     1      34.820 -24.918 -16.013  0.00  0.00    +0.211 HD
ENDBRANCH  14  18
BRANCH  16  20
ATOM     20  O3* UNL     1      37.964 -25.017 -13.100  0.00  0.00    -0.379 OA
ATOM     21  H3* UNL     1      38.587 -25.760 -13.126  0.00  0.00    +0.211 HD
ENDBRANCH  16  20
BRANCH  17  22
ATOM     22  C5* UNL     1      37.672 -22.848 -16.091  0.00  0.00    +0.169 C 
BRANCH  22  23
ATOM     23  O5* UNL     1      36.756 -21.826 -16.446  0.00  0.00    -0.379 OA
ATOM     24  H5* UNL     1      36.504 -21.328 -15.654  0.00  0.00    +0.211 HD
ENDBRANCH  22  23
ENDBRANCH  17  22
ENDBRANCH   1  15
BRANCH   9  25
ATOM     25  O   UNL     1      29.928 -23.034 -16.428  0.00  0.00    -0.446 OA
ATOM     26  C   UNL     1      29.244 -24.274 -16.285  0.00  0.00    +0.255 C 
ENDBRANCH   9  25
TORSDOF 6
ENDMDL
MODEL 7
REMARK VINA RESULT:      -7.4      1.621      2.156
REMARK  Name = 3011155
REMARK  6 active torsions:
REMARK  status: ('A' for Active; 'I' for Inactive)
REMARK    1  A    between atoms: N_1  and  C1*_15
REMARK    2  A    between atoms: C_9  and  O_25
REMARK    3  A    between atoms: C2*_14  and  O2*_18
REMARK    4  A    between atoms: C3*_16  and  O3*_20
REMARK    5  A    between atoms: C4*_17  and  C5*_22
REMARK    6  A    between atoms: C5*_22  and  O5*_23
REMARK                            x       y       z     vdW  Elec       q    Type
REMARK                         _______ _______ _______ _____ _____    ______ ____
ROOT
ATOM      1  N   UNL     1      35.166 -23.979 -15.043  0.00  0.00    -0.236 N 
ATOM      2  N   UNL     1      35.276 -22.880 -16.987  0.00  0.00    -0.239 NA
ATOM      3  N   UNL     1      32.755 -24.194 -14.831  0.00  0.00    -0.311 NA
ATOM      4  N   UNL     1      31.598 -23.175 -16.724  0.00  0.00    -0.289 NA
ATOM      5  N   UNL     1      30.420 -24.203 -14.979  0.00  0.00    -0.283 N 
ATOM      6  C   UNL     1      33.873 -23.798 -15.457  0.00  0.00    +0.223 C 
ATOM      7  C   UNL     1      35.969 -23.407 -16.000  0.00  0.00    +0.224 C 
ATOM      8  C   UNL     1      33.964 -23.117 -16.661  0.00  0.00    +0.190 C 
ATOM      9  C   UNL     1      32.768 -22.806 -17.299  0.00  0.00    +0.311 C 
ATOM     10  C   UNL     1      31.664 -23.836 -15.543  0.00  0.00    +0.200 C 
ATOM     11  H   UNL     1      30.391 -24.686 -14.122  0.00  0.00    +0.156 HD
ATOM     12  H   UNL     1      29.582 -23.975 -15.445  0.00  0.00    +0.156 HD
ENDROOT
BRANCH   1  15
ATOM     13  O4* UNL     1      35.435 -23.784 -12.686  0.00  0.00    -0.333 OA
ATOM     14  C2* UNL     1      37.073 -25.088 -13.814  0.00  0.00    +0.187 C 
ATOM     15  C1* UNL     1      35.614 -24.644 -13.826  0.00  0.00    +0.226 C 
ATOM     16  C3* UNL     1      37.353 -25.167 -12.326  0.00  0.00    +0.171 C 
ATOM     17  C4* UNL     1      36.487 -24.050 -11.737  0.00  0.00    +0.175 C 
BRANCH  14  18
ATOM     18  O2* UNL     1      37.914 -24.104 -14.401  0.00  0.00    -0.378 OA
ATOM     19  H2* UNL     1      37.995 -23.347 -13.800  0.00  0.00    +0.211 HD
ENDBRANCH  14  18
BRANCH  16  20
ATOM     20  O3* UNL     1      36.884 -26.427 -11.850  0.00  0.00    -0.379 OA
ATOM     21  H3* UNL     1      36.365 -26.862 -12.543  0.00  0.00    +0.211 HD
ENDBRANCH  16  20
BRANCH  17  22
ATOM     22  C5* UNL     1      37.252 -22.754 -11.510  0.00  0.00    +0.169 C 
BRANCH  22  23
ATOM     23  O5* UNL     1      38.639 -23.020 -11.624  0.00  0.00    -0.379 OA
ATOM     24  H5* UNL     1      39.137 -22.373 -11.100  0.00  0.00    +0.211 HD
ENDBRANCH  22  23
ENDBRANCH  17  22
ENDBRANCH   1  15
BRANCH   9  25
ATOM     25  O   UNL     1      32.725 -22.134 -18.494  0.00  0.00    -0.446 OA
ATOM     26  C   UNL     1      33.723 -22.470 -19.451  0.00  0.00    +0.255 C 
ENDBRANCH   9  25
TORSDOF 6
ENDMDL
MODEL 8
REMARK VINA RESULT:      -7.2      1.789      2.901
REMARK  Name = 3011155
REMARK  6 active torsions:
REMARK  status: ('A' for Active; 'I' for Inactive)
REMARK    1  A    between atoms: N_1  and  C1*_15
REMARK    2  A    between atoms: C_9  and  O_25
REMARK    3  A    between atoms: C2*_14  and  O2*_18
REMARK    4  A    between atoms: C3*_16  and  O3*_20
REMARK    5  A    between atoms: C4*_17  and  C5*_22
REMARK    6  A    between atoms: C5*_22  and  O5*_23
REMARK                            x       y       z     vdW  Elec       q    Type
REMARK                         _______ _______ _______ _____ _____    ______ ____
ROOT
ATOM      1  N   UNL     1      35.391 -23.659 -14.418  0.00  0.00    -0.236 N 
ATOM      2  N   UNL     1      33.226 -24.085 -14.773  0.00  0.00    -0.239 NA
ATOM      3  N   UNL     1      35.974 -22.689 -16.568  0.00  0.00    -0.311 NA
ATOM      4  N   UNL     1      34.050 -22.617 -18.067  0.00  0.00    -0.289 NA
ATOM      5  N   UNL     1      36.150 -21.819 -18.733  0.00  0.00    -0.283 N 
ATOM      6  C   UNL     1      35.121 -23.242 -15.694  0.00  0.00    +0.223 C 
ATOM      7  C   UNL     1      34.216 -24.158 -13.910  0.00  0.00    +0.224 C 
ATOM      8  C   UNL     1      33.776 -23.515 -15.893  0.00  0.00    +0.190 C 
ATOM      9  C   UNL     1      33.244 -23.180 -17.135  0.00  0.00    +0.311 C 
ATOM     10  C   UNL     1      35.346 -22.410 -17.731  0.00  0.00    +0.200 C 
ATOM     11  H   UNL     1      37.101 -21.640 -18.559  0.00  0.00    +0.156 HD
ATOM     12  H   UNL     1      35.756 -21.588 -19.606  0.00  0.00    +0.156 HD
ENDROOT
BRANCH   1  15
ATOM     13  O4* UNL     1      37.720 -24.130 -14.549  0.00  0.00    -0.333 OA
ATOM     14  C2* UNL     1      36.740 -24.332 -12.392  0.00  0.00    +0.187 C 
ATOM     15  C1* UNL     1      36.671 -23.593 -13.724  0.00  0.00    +0.226 C 
ATOM     16  C3* UNL     1      38.231 -24.568 -12.254  0.00  0.00    +0.171 C 
ATOM     17  C4* UNL     1      38.700 -24.758 -13.699  0.00  0.00    +0.175 C 
BRANCH  14  18
ATOM     18  O2* UNL     1      36.068 -25.583 -12.463  0.00  0.00    -0.378 OA
ATOM     19  H2* UNL     1      36.638 -26.231 -12.907  0.00  0.00    +0.211 HD
ENDBRANCH  14  18
BRANCH  16  20
ATOM     20  O3* UNL     1      38.823 -23.387 -11.718  0.00  0.00    -0.379 OA
ATOM     21  H3* UNL     1      38.175 -22.922 -11.166  0.00  0.00    +0.211 HD
ENDBRANCH  16  20
BRANCH  17  22
ATOM     22  C5* UNL     1      38.808 -26.220 -14.109  0.00  0.00    +0.169 C 
BRANCH  22  23
ATOM     23  O5* UNL     1      40.136 -26.474 -14.535  0.00  0.00    -0.379 OA
ATOM     24  H5* UNL     1      40.279 -26.071 -15.405  0.00  0.00    +0.211 HD
ENDBRANCH  22  23
ENDBRANCH  17  22
ENDBRANCH   1  15
BRANCH   9  25
ATOM     25  O   UNL     1      31.929 -23.400 -17.454  0.00  0.00    -0.446 OA
ATOM     26  C   UNL     1      30.958 -22.705 -16.679  0.00  0.00    +0.255 C 
ENDBRANCH   9  25
TORSDOF 6
ENDMDL
MODEL 9
REMARK VINA RESULT:      -7.1      3.669      7.761
REMARK  Name = 3011155
REMARK  6 active torsions:
REMARK  status: ('A' for Active; 'I' for Inactive)
REMARK    1  A    between atoms: N_1  and  C1*_15
REMARK    2  A    between atoms: C_9  and  O_25
REMARK    3  A    between atoms: C2*_14  and  O2*_18
REMARK    4  A    between atoms: C3*_16  and  O3*_20
REMARK    5  A    between atoms: C4*_17  and  C5*_22
REMARK    6  A    between atoms: C5*_22  and  O5*_23
REMARK                            x       y       z     vdW  Elec       q    Type
REMARK                         _______ _______ _______ _____ _____    ______ ____
ROOT
ATOM      1  N   UNL     1      34.575 -20.633 -20.219  0.00  0.00    -0.236 N 
ATOM      2  N   UNL     1      32.818 -21.791 -19.467  0.00  0.00    -0.239 NA
ATOM      3  N   UNL     1      36.255 -21.355 -18.618  0.00  0.00    -0.311 NA
ATOM      4  N   UNL     1      35.328 -22.931 -17.001  0.00  0.00    -0.289 NA
ATOM      5  N   UNL     1      37.575 -22.273 -16.918  0.00  0.00    -0.283 N 
ATOM      6  C   UNL     1      35.018 -21.346 -19.136  0.00  0.00    +0.223 C 
ATOM      7  C   UNL     1      33.245 -20.937 -20.373  0.00  0.00    +0.224 C 
ATOM      8  C   UNL     1      33.915 -22.055 -18.687  0.00  0.00    +0.190 C 
ATOM      9  C   UNL     1      34.103 -22.872 -17.576  0.00  0.00    +0.311 C 
ATOM     10  C   UNL     1      36.313 -22.180 -17.549  0.00  0.00    +0.200 C 
ATOM     11  H   UNL     1      38.337 -21.754 -17.262  0.00  0.00    +0.156 HD
ATOM     12  H   UNL     1      37.690 -22.856 -16.132  0.00  0.00    +0.156 HD
ENDROOT
BRANCH   1  15
ATOM     13  O4* UNL     1      35.509 -18.451 -20.397  0.00  0.00    -0.333 OA
ATOM     14  C2* UNL     1      34.780 -19.438 -22.434  0.00  0.00    +0.187 C 
ATOM     15  C1* UNL     1      35.354 -19.723 -21.050  0.00  0.00    +0.226 C 
ATOM     16  C3* UNL     1      35.432 -18.109 -22.763  0.00  0.00    +0.171 C 
ATOM     17  C4* UNL     1      35.546 -17.418 -21.402  0.00  0.00    +0.175 C 
BRANCH  14  18
ATOM     18  O2* UNL     1      33.369 -19.272 -22.381  0.00  0.00    -0.378 OA
ATOM     19  H2* UNL     1      33.067 -18.812 -23.181  0.00  0.00    +0.211 HD
ENDBRANCH  14  18
BRANCH  16  20
ATOM     20  O3* UNL     1      36.738 -18.366 -23.272  0.00  0.00    -0.379 OA
ATOM     21  H3* UNL     1      37.133 -19.109 -22.790  0.00  0.00    +0.211 HD
ENDBRANCH  16  20
BRANCH  17  22
ATOM     22  C5* UNL     1      34.405 -16.451 -21.121  0.00  0.00    +0.169 C 
BRANCH  22  23
ATOM     23  O5* UNL     1      34.880 -15.425 -20.266  0.00  0.00    -0.379 OA
ATOM     24  H5* UNL     1      34.591 -15.601 -19.358  0.00  0.00    +0.211 HD
ENDBRANCH  22  23
ENDBRANCH  17  22
ENDBRANCH   1  15
BRANCH   9  25
ATOM     25  O   UNL     1      33.090 -23.623 -17.037  0.00  0.00    -0.446 OA
ATOM     26  C   UNL     1      32.839 -23.452 -15.647  0.00  0.00    +0.255 C 
ENDBRANCH   9  25
TORSDOF 6
ENDMDL
