MODEL 1
REMARK VINA RESULT:     -10.0      0.000      0.000
REMARK  Name = 9549217
REMARK  5 active torsions:
REMARK  status: ('A' for Active; 'I' for Inactive)
REMARK    1  A    between atoms: CA_2  and  C_25
REMARK    2  A    between atoms: C_9  and  S_13
REMARK    3  A    between atoms: S_13  and  N_16
REMARK    4  A    between atoms: N_16  and  C_19
REMARK    5  A    between atoms: C_25  and  O_26
REMARK                            x       y       z     vdW  Elec       q    Type
REMARK                         _______ _______ _______ _____ _____    ______ ____
ROOT
ATOM      1  N   UNL     1      33.825 -13.334 -24.839  0.00  0.00    +0.390 N 
ATOM      2  CA  UNL     1      32.928 -14.052 -25.752  0.00  0.00    -0.027 C 
ATOM      3  C   UNL     1      33.586 -15.372 -26.186  0.00  0.00    +0.007 C 
ATOM      4  C   UNL     1      34.138 -16.156 -25.022  0.00  0.00    -0.030 C 
ATOM      5  C   UNL     1      34.373 -15.523 -23.789  0.00  0.00    -0.046 C 
ATOM      6  C   UNL     1      33.996 -14.077 -23.586  0.00  0.00    -0.054 C 
ATOM      7  C   UNL     1      34.906 -16.262 -22.723  0.00  0.00    +0.014 C 
ATOM      8  C   UNL     1      34.473 -17.507 -25.182  0.00  0.00    -0.003 C 
ATOM      9  C   UNL     1      35.227 -17.609 -22.890  0.00  0.00    +0.125 C 
ATOM     10  C   UNL     1      35.014 -18.229 -24.119  0.00  0.00    +0.020 C 
ATOM     11  H1  UNL     1      33.429 -12.417 -24.634  0.00  0.00    -0.084 HD
ATOM     12  H2  UNL     1      34.736 -13.233 -25.287  0.00  0.00    -0.084 HD
ENDROOT
BRANCH   9  13
ATOM     13  S   UNL     1      35.897 -18.517 -21.558  0.00  0.00    +0.074 S 
ATOM     14  O   UNL     1      35.486 -17.861 -20.322  0.00  0.00    -0.150 OA
ATOM     15  O   UNL     1      37.319 -18.725 -21.802  0.00  0.00    -0.150 OA
BRANCH  13  16
ATOM     16  N   UNL     1      35.067 -20.023 -21.666  0.00  0.00    -0.215 N 
ATOM     17  H   UNL     1      34.721 -20.350 -22.527  0.00  0.00    +0.174 HD
BRANCH  16  19
ATOM     18 CL   UNL     1      34.361 -23.183 -16.687  0.00  0.00    -0.082 Cl
ATOM     19  C   UNL     1      34.896 -20.788 -20.460  0.00  0.00    +0.065 C 
ATOM     20  C   UNL     1      33.617 -21.128 -20.038  0.00  0.00    +0.017 C 
ATOM     21  C   UNL     1      36.012 -21.180 -19.731  0.00  0.00    +0.017 C 
ATOM     22  C   UNL     1      33.451 -21.870 -18.868  0.00  0.00    +0.013 C 
ATOM     23  C   UNL     1      35.847 -21.922 -18.562  0.00  0.00    +0.013 C 
ATOM     24  C   UNL     1      34.566 -22.267 -18.130  0.00  0.00    +0.058 C 
ENDBRANCH  16  19
ENDBRANCH  13  16
ENDBRANCH   9  13
BRANCH   2  25
ATOM     25  C   UNL     1      32.626 -13.178 -26.967  0.00  0.00    +0.116 C 
BRANCH  25  26
ATOM     26  O   UNL     1      33.660 -13.355 -27.917  0.00  0.00    -0.384 OA
ATOM     27  H   UNL     1      33.293 -13.743 -28.726  0.00  0.00    +0.210 HD
ENDBRANCH  25  26
ENDBRANCH   2  25
TORSDOF 5
ENDMDL
MODEL 2
REMARK VINA RESULT:     -10.0      5.250     10.874
REMARK  Name = 9549217
REMARK  5 active torsions:
REMARK  status: ('A' for Active; 'I' for Inactive)
REMARK    1  A    between atoms: CA_2  and  C_25
REMARK    2  A    between atoms: C_9  and  S_13
REMARK    3  A    between atoms: S_13  and  N_16
REMARK    4  A    between atoms: N_16  and  C_19
REMARK    5  A    between atoms: C_25  and  O_26
REMARK                            x       y       z     vdW  Elec       q    Type
REMARK                         _______ _______ _______ _____ _____    ______ ____
ROOT
ATOM      1  N   UNL     1      34.533 -24.736 -12.826  0.00  0.00    +0.390 N 
ATOM      2  CA  UNL     1      35.415 -23.675 -12.325  0.00  0.00    -0.027 C 
ATOM      3  C   UNL     1      36.471 -23.339 -13.391  0.00  0.00    +0.007 C 
ATOM      4  C   UNL     1      35.871 -23.132 -14.759  0.00  0.00    -0.030 C 
ATOM      5  C   UNL     1      34.582 -23.613 -15.047  0.00  0.00    -0.046 C 
ATOM      6  C   UNL     1      33.749 -24.262 -13.971  0.00  0.00    -0.054 C 
ATOM      7  C   UNL     1      34.047 -23.430 -16.330  0.00  0.00    +0.014 C 
ATOM      8  C   UNL     1      36.620 -22.510 -15.767  0.00  0.00    -0.003 C 
ATOM      9  C   UNL     1      34.797 -22.802 -17.323  0.00  0.00    +0.125 C 
ATOM     10  C   UNL     1      36.083 -22.344 -17.042  0.00  0.00    +0.020 C 
ATOM     11  H1  UNL     1      33.899 -25.023 -12.081  0.00  0.00    -0.084 HD
ATOM     12  H2  UNL     1      35.107 -25.524 -13.126  0.00  0.00    -0.084 HD
ENDROOT
BRANCH   9  13
ATOM     13  S   UNL     1      34.124 -22.586 -18.919  0.00  0.00    +0.074 S 
ATOM     14  O   UNL     1      33.031 -21.625 -18.815  0.00  0.00    -0.150 OA
ATOM     15  O   UNL     1      33.851 -23.898 -19.493  0.00  0.00    -0.150 OA
BRANCH  13  16
ATOM     16  N   UNL     1      35.413 -21.837 -19.782  0.00  0.00    -0.215 N 
ATOM     17  H   UNL     1      36.285 -22.284 -19.879  0.00  0.00    +0.174 HD
BRANCH  16  19
ATOM     18 CL   UNL     1      34.444 -16.481 -22.158  0.00  0.00    -0.082 Cl
ATOM     19  C   UNL     1      35.179 -20.541 -20.357  0.00  0.00    +0.065 C 
ATOM     20  C   UNL     1      36.251 -19.690 -20.596  0.00  0.00    +0.017 C 
ATOM     21  C   UNL     1      33.882 -20.151 -20.669  0.00  0.00    +0.017 C 
ATOM     22  C   UNL     1      36.024 -18.432 -21.154  0.00  0.00    +0.013 C 
ATOM     23  C   UNL     1      33.654 -18.894 -21.228  0.00  0.00    +0.013 C 
ATOM     24  C   UNL     1      34.725 -18.033 -21.470  0.00  0.00    +0.058 C 
ENDBRANCH  16  19
ENDBRANCH  13  16
ENDBRANCH   9  13
BRANCH   2  25
ATOM     25  C   UNL     1      36.084 -24.132 -11.031  0.00  0.00    +0.116 C 
BRANCH  25  26
ATOM     26  O   UNL     1      35.278 -25.132 -10.437  0.00  0.00    -0.384 OA
ATOM     27  H   UNL     1      35.658 -25.388  -9.582  0.00  0.00    +0.210 HD
ENDBRANCH  25  26
ENDBRANCH   2  25
TORSDOF 5
ENDMDL
MODEL 3
REMARK VINA RESULT:      -9.6      3.692      8.394
REMARK  Name = 9549217
REMARK  5 active torsions:
REMARK  status: ('A' for Active; 'I' for Inactive)
REMARK    1  A    between atoms: CA_2  and  C_25
REMARK    2  A    between atoms: C_9  and  S_13
REMARK    3  A    between atoms: S_13  and  N_16
REMARK    4  A    between atoms: N_16  and  C_19
REMARK    5  A    between atoms: C_25  and  O_26
REMARK                            x       y       z     vdW  Elec       q    Type
REMARK                         _______ _______ _______ _____ _____    ______ ____
ROOT
ATOM      1  N   UNL     1      35.512 -22.165 -17.758  0.00  0.00    +0.390 N 
ATOM      2  CA  UNL     1      34.276 -22.916 -18.007  0.00  0.00    -0.027 C 
ATOM      3  C   UNL     1      33.186 -21.958 -18.516  0.00  0.00    +0.007 C 
ATOM      4  C   UNL     1      33.673 -21.065 -19.631  0.00  0.00    -0.030 C 
ATOM      5  C   UNL     1      35.051 -20.879 -19.839  0.00  0.00    -0.046 C 
ATOM      6  C   UNL     1      36.059 -21.635 -19.011  0.00  0.00    -0.054 C 
ATOM      7  C   UNL     1      35.486 -20.030 -20.866  0.00  0.00    +0.014 C 
ATOM      8  C   UNL     1      32.752 -20.372 -20.427  0.00  0.00    -0.003 C 
ATOM      9  C   UNL     1      34.561 -19.351 -21.659  0.00  0.00    +0.125 C 
ATOM     10  C   UNL     1      33.196 -19.521 -21.438  0.00  0.00    +0.020 C 
ATOM     11  H1  UNL     1      36.198 -22.784 -17.327  0.00  0.00    -0.084 HD
ATOM     12  H2  UNL     1      35.301 -21.384 -17.137  0.00  0.00    -0.084 HD
ENDROOT
BRANCH   9  13
ATOM     13  S   UNL     1      35.115 -18.291 -22.930  0.00  0.00    +0.074 S 
ATOM     14  O   UNL     1      33.968 -17.972 -23.774  0.00  0.00    -0.150 OA
ATOM     15  O   UNL     1      36.297 -18.879 -23.548  0.00  0.00    -0.150 OA
BRANCH  13  16
ATOM     16  N   UNL     1      35.561 -16.865 -22.073  0.00  0.00    -0.215 N 
ATOM     17  H   UNL     1      36.449 -16.780 -21.658  0.00  0.00    +0.174 HD
BRANCH  16  19
ATOM     18 CL   UNL     1      31.581 -12.472 -21.699  0.00  0.00    -0.082 Cl
ATOM     19  C   UNL     1      34.597 -15.801 -21.982  0.00  0.00    +0.065 C 
ATOM     20  C   UNL     1      33.686 -15.787 -20.933  0.00  0.00    +0.017 C 
ATOM     21  C   UNL     1      34.588 -14.799 -22.945  0.00  0.00    +0.017 C 
ATOM     22  C   UNL     1      32.751 -14.755 -20.846  0.00  0.00    +0.013 C 
ATOM     23  C   UNL     1      33.654 -13.767 -22.857  0.00  0.00    +0.013 C 
ATOM     24  C   UNL     1      32.734 -13.745 -21.807  0.00  0.00    +0.058 C 
ENDBRANCH  16  19
ENDBRANCH  13  16
ENDBRANCH   9  13
BRANCH   2  25
ATOM     25  C   UNL     1      33.826 -23.604 -16.719  0.00  0.00    +0.116 C 
BRANCH  25  26
ATOM     26  O   UNL     1      34.927 -24.306 -16.176  0.00  0.00    -0.384 OA
ATOM     27  H   UNL     1      35.276 -24.924 -16.838  0.00  0.00    +0.210 HD
ENDBRANCH  25  26
ENDBRANCH   2  25
TORSDOF 5
ENDMDL
MODEL 4
REMARK VINA RESULT:      -9.4      2.400      3.243
REMARK  Name = 9549217
REMARK  5 active torsions:
REMARK  status: ('A' for Active; 'I' for Inactive)
REMARK    1  A    between atoms: CA_2  and  C_25
REMARK    2  A    between atoms: C_9  and  S_13
REMARK    3  A    between atoms: S_13  and  N_16
REMARK    4  A    between atoms: N_16  and  C_19
REMARK    5  A    between atoms: C_25  and  O_26
REMARK                            x       y       z     vdW  Elec       q    Type
REMARK                         _______ _______ _______ _____ _____    ______ ____
ROOT
ATOM      1  N   UNL     1      32.764 -12.374 -23.626  0.00  0.00    +0.390 N 
ATOM      2  CA  UNL     1      32.505 -11.876 -22.271  0.00  0.00    -0.027 C 
ATOM      3  C   UNL     1      32.025 -13.035 -21.381  0.00  0.00    +0.007 C 
ATOM      4  C   UNL     1      32.900 -14.258 -21.498  0.00  0.00    -0.030 C 
ATOM      5  C   UNL     1      33.762 -14.410 -22.599  0.00  0.00    -0.046 C 
ATOM      6  C   UNL     1      33.889 -13.316 -23.628  0.00  0.00    -0.054 C 
ATOM      7  C   UNL     1      34.553 -15.562 -22.703  0.00  0.00    +0.014 C 
ATOM      8  C   UNL     1      32.815 -15.276 -20.539  0.00  0.00    -0.003 C 
ATOM      9  C   UNL     1      34.467 -16.566 -21.738  0.00  0.00    +0.125 C 
ATOM     10  C   UNL     1      33.597 -16.424 -20.659  0.00  0.00    +0.020 C 
ATOM     11  H1  UNL     1      32.985 -11.587 -24.235  0.00  0.00    -0.084 HD
ATOM     12  H2  UNL     1      31.931 -12.858 -23.962  0.00  0.00    -0.084 HD
ENDROOT
BRANCH   9  13
ATOM     13  S   UNL     1      35.452 -18.000 -21.882  0.00  0.00    +0.074 S 
ATOM     14  O   UNL     1      36.161 -18.181 -20.620  0.00  0.00    -0.150 OA
ATOM     15  O   UNL     1      36.225 -17.914 -23.115  0.00  0.00    -0.150 OA
BRANCH  13  16
ATOM     16  N   UNL     1      34.281 -19.256 -22.022  0.00  0.00    -0.215 N 
ATOM     17  H   UNL     1      33.707 -19.327 -22.819  0.00  0.00    +0.174 HD
BRANCH  16  19
ATOM     18 CL   UNL     1      33.818 -23.152 -17.563  0.00  0.00    -0.082 Cl
ATOM     19  C   UNL     1      34.169 -20.199 -20.942  0.00  0.00    +0.065 C 
ATOM     20  C   UNL     1      35.292 -20.904 -20.526  0.00  0.00    +0.017 C 
ATOM     21  C   UNL     1      32.939 -20.396 -20.327  0.00  0.00    +0.017 C 
ATOM     22  C   UNL     1      35.183 -21.819 -19.478  0.00  0.00    +0.013 C 
ATOM     23  C   UNL     1      32.829 -21.310 -19.279  0.00  0.00    +0.013 C 
ATOM     24  C   UNL     1      33.952 -22.023 -18.855  0.00  0.00    +0.058 C 
ENDBRANCH  16  19
ENDBRANCH  13  16
ENDBRANCH   9  13
BRANCH   2  25
ATOM     25  C   UNL     1      31.455 -10.769 -22.323  0.00  0.00    +0.116 C 
BRANCH  25  26
ATOM     26  O   UNL     1      30.262 -11.252 -21.734  0.00  0.00    -0.384 OA
ATOM     27  H   UNL     1      29.504 -10.996 -22.281  0.00  0.00    +0.210 HD
ENDBRANCH  25  26
ENDBRANCH   2  25
TORSDOF 5
ENDMDL
MODEL 5
REMARK VINA RESULT:      -9.3      3.453      5.295
REMARK  Name = 9549217
REMARK  5 active torsions:
REMARK  status: ('A' for Active; 'I' for Inactive)
REMARK    1  A    between atoms: CA_2  and  C_25
REMARK    2  A    between atoms: C_9  and  S_13
REMARK    3  A    between atoms: S_13  and  N_16
REMARK    4  A    between atoms: N_16  and  C_19
REMARK    5  A    between atoms: C_25  and  O_26
REMARK                            x       y       z     vdW  Elec       q    Type
REMARK                         _______ _______ _______ _____ _____    ______ ____
ROOT
ATOM      1  N   UNL     1      36.317 -18.139 -22.603  0.00  0.00    +0.390 N 
ATOM      2  CA  UNL     1      35.316 -17.101 -22.330  0.00  0.00    -0.027 C 
ATOM      3  C   UNL     1      33.926 -17.747 -22.208  0.00  0.00    +0.007 C 
ATOM      4  C   UNL     1      33.923 -18.949 -21.295  0.00  0.00    -0.030 C 
ATOM      5  C   UNL     1      35.128 -19.597 -20.973  0.00  0.00    -0.046 C 
ATOM      6  C   UNL     1      36.446 -19.049 -21.460  0.00  0.00    -0.054 C 
ATOM      7  C   UNL     1      35.105 -20.724 -20.140  0.00  0.00    +0.014 C 
ATOM      8  C   UNL     1      32.711 -19.459 -20.812  0.00  0.00    -0.003 C 
ATOM      9  C   UNL     1      33.893 -21.219 -19.657  0.00  0.00    +0.125 C 
ATOM     10  C   UNL     1      32.698 -20.588 -19.994  0.00  0.00    +0.020 C 
ATOM     11  H1  UNL     1      37.218 -17.696 -22.782  0.00  0.00    -0.084 HD
ATOM     12  H2  UNL     1      36.019 -18.675 -23.417  0.00  0.00    -0.084 HD
ENDROOT
BRANCH   9  13
ATOM     13  S   UNL     1      33.877 -22.628 -18.627  0.00  0.00    +0.074 S 
ATOM     14  O   UNL     1      34.109 -23.797 -19.468  0.00  0.00    -0.150 OA
ATOM     15  O   UNL     1      32.678 -22.587 -17.799  0.00  0.00    -0.150 OA
BRANCH  13  16
ATOM     16  N   UNL     1      35.268 -22.396 -17.637  0.00  0.00    -0.215 N 
ATOM     17  H   UNL     1      36.049 -21.897 -17.970  0.00  0.00    +0.174 HD
BRANCH  16  19
ATOM     18 CL   UNL     1      35.213 -24.689 -12.159  0.00  0.00    -0.082 Cl
ATOM     19  C   UNL     1      35.254 -22.951 -16.311  0.00  0.00    +0.065 C 
ATOM     20  C   UNL     1      36.338 -22.741 -15.468  0.00  0.00    +0.017 C 
ATOM     21  C   UNL     1      34.158 -23.691 -15.887  0.00  0.00    +0.017 C 
ATOM     22  C   UNL     1      36.326 -23.280 -14.180  0.00  0.00    +0.013 C 
ATOM     23  C   UNL     1      34.144 -24.229 -14.600  0.00  0.00    +0.013 C 
ATOM     24  C   UNL     1      35.229 -24.024 -13.746  0.00  0.00    +0.058 C 
ENDBRANCH  16  19
ENDBRANCH  13  16
ENDBRANCH   9  13
BRANCH   2  25
ATOM     25  C   UNL     1      35.330 -16.067 -23.454  0.00  0.00    +0.116 C 
BRANCH  25  26
ATOM     26  O   UNL     1      35.305 -16.750 -24.693  0.00  0.00    -0.384 OA
ATOM     27  H   UNL     1      34.387 -16.844 -24.993  0.00  0.00    +0.210 HD
ENDBRANCH  25  26
ENDBRANCH   2  25
TORSDOF 5
ENDMDL
MODEL 6
REMARK VINA RESULT:      -9.3      3.906      8.123
REMARK  Name = 9549217
REMARK  5 active torsions:
REMARK  status: ('A' for Active; 'I' for Inactive)
REMARK    1  A    between atoms: CA_2  and  C_25
REMARK    2  A    between atoms: C_9  and  S_13
REMARK    3  A    between atoms: S_13  and  N_16
REMARK    4  A    between atoms: N_16  and  C_19
REMARK    5  A    between atoms: C_25  and  O_26
REMARK                            x       y       z     vdW  Elec       q    Type
REMARK                         _______ _______ _______ _____ _____    ______ ____
ROOT
ATOM      1  N   UNL     1      32.879 -21.597 -19.982  0.00  0.00    +0.390 N 
ATOM      2  CA  UNL     1      34.018 -21.701 -19.062  0.00  0.00    -0.027 C 
ATOM      3  C   UNL     1      35.308 -21.299 -19.795  0.00  0.00    +0.007 C 
ATOM      4  C   UNL     1      35.166 -20.003 -20.554  0.00  0.00    -0.030 C 
ATOM      5  C   UNL     1      33.889 -19.501 -20.865  0.00  0.00    -0.046 C 
ATOM      6  C   UNL     1      32.650 -20.202 -20.370  0.00  0.00    -0.054 C 
ATOM      7  C   UNL     1      33.775 -18.306 -21.589  0.00  0.00    +0.014 C 
ATOM      8  C   UNL     1      36.306 -19.323 -21.002  0.00  0.00    -0.003 C 
ATOM      9  C   UNL     1      34.917 -17.633 -22.023  0.00  0.00    +0.125 C 
ATOM     10  C   UNL     1      36.180 -18.142 -21.732  0.00  0.00    +0.020 C 
ATOM     11  H1  UNL     1      32.044 -21.959 -19.522  0.00  0.00    -0.084 HD
ATOM     12  H2  UNL     1      33.085 -22.141 -20.820  0.00  0.00    -0.084 HD
ENDROOT
BRANCH   9  13
ATOM     13  S   UNL     1      34.761 -16.149 -22.930  0.00  0.00    +0.074 S 
ATOM     14  O   UNL     1      35.062 -16.448 -24.326  0.00  0.00    -0.150 OA
ATOM     15  O   UNL     1      35.525 -15.107 -22.256  0.00  0.00    -0.150 OA
BRANCH  13  16
ATOM     16  N   UNL     1      33.078 -15.801 -22.809  0.00  0.00    -0.215 N 
ATOM     17  H   UNL     1      32.404 -16.433 -23.147  0.00  0.00    +0.174 HD
BRANCH  16  19
ATOM     18 CL   UNL     1      31.464 -10.675 -20.280  0.00  0.00    -0.082 Cl
ATOM     19  C   UNL     1      32.688 -14.559 -22.197  0.00  0.00    +0.065 C 
ATOM     20  C   UNL     1      32.595 -14.475 -20.813  0.00  0.00    +0.017 C 
ATOM     21  C   UNL     1      32.408 -13.457 -22.995  0.00  0.00    +0.017 C 
ATOM     22  C   UNL     1      32.215 -13.271 -20.219  0.00  0.00    +0.013 C 
ATOM     23  C   UNL     1      32.029 -12.253 -22.402  0.00  0.00    +0.013 C 
ATOM     24  C   UNL     1      31.932 -12.160 -21.013  0.00  0.00    +0.058 C 
ENDBRANCH  16  19
ENDBRANCH  13  16
ENDBRANCH   9  13
BRANCH   2  25
ATOM     25  C   UNL     1      34.123 -23.130 -18.535  0.00  0.00    +0.116 C 
BRANCH  25  26
ATOM     26  O   UNL     1      34.001 -24.022 -19.626  0.00  0.00    -0.384 OA
ATOM     27  H   UNL     1      34.870 -24.151 -20.039  0.00  0.00    +0.210 HD
ENDBRANCH  25  26
ENDBRANCH   2  25
TORSDOF 5
ENDMDL
MODEL 7
REMARK VINA RESULT:      -9.2      3.807      9.146
REMARK  Name = 9549217
REMARK  5 active torsions:
REMARK  status: ('A' for Active; 'I' for Inactive)
REMARK    1  A    between atoms: CA_2  and  C_25
REMARK    2  A    between atoms: C_9  and  S_13
REMARK    3  A    between atoms: S_13  and  N_16
REMARK    4  A    between atoms: N_16  and  C_19
REMARK    5  A    between atoms: C_25  and  O_26
REMARK                            x       y       z     vdW  Elec       q    Type
REMARK                         _______ _______ _______ _____ _____    ______ ____
ROOT
ATOM      1  N   UNL     1      33.495 -23.736 -17.127  0.00  0.00    +0.390 N 
ATOM      2  CA  UNL     1      34.515 -23.279 -16.176  0.00  0.00    -0.027 C 
ATOM      3  C   UNL     1      35.796 -22.902 -16.938  0.00  0.00    +0.007 C 
ATOM      4  C   UNL     1      35.525 -22.008 -18.123  0.00  0.00    -0.030 C 
ATOM      5  C   UNL     1      34.228 -21.917 -18.659  0.00  0.00    -0.046 C 
ATOM      6  C   UNL     1      33.077 -22.640 -18.007  0.00  0.00    -0.054 C 
ATOM      7  C   UNL     1      33.997 -21.098 -19.773  0.00  0.00    +0.014 C 
ATOM      8  C   UNL     1      36.576 -21.308 -18.729  0.00  0.00    -0.003 C 
ATOM      9  C   UNL     1      35.049 -20.398 -20.364  0.00  0.00    +0.125 C 
ATOM     10  C   UNL     1      36.337 -20.506 -19.844  0.00  0.00    +0.020 C 
ATOM     11  H1  UNL     1      32.686 -24.079 -16.610  0.00  0.00    -0.084 HD
ATOM     12  H2  UNL     1      33.892 -24.483 -17.698  0.00  0.00    -0.084 HD
ENDROOT
BRANCH   9  13
ATOM     13  S   UNL     1      34.751 -19.387 -21.755  0.00  0.00    +0.074 S 
ATOM     14  O   UNL     1      33.326 -19.073 -21.779  0.00  0.00    -0.150 OA
ATOM     15  O   UNL     1      35.351 -20.013 -22.926  0.00  0.00    -0.150 OA
BRANCH  13  16
ATOM     16  N   UNL     1      35.609 -17.943 -21.370  0.00  0.00    -0.215 N 
ATOM     17  H   UNL     1      36.452 -17.974 -20.863  0.00  0.00    +0.174 HD
BRANCH  16  19
ATOM     18 CL   UNL     1      33.331 -12.770 -23.197  0.00  0.00    -0.082 Cl
ATOM     19  C   UNL     1      35.057 -16.691 -21.812  0.00  0.00    +0.065 C 
ATOM     20  C   UNL     1      34.587 -15.778 -20.876  0.00  0.00    +0.017 C 
ATOM     21  C   UNL     1      35.002 -16.406 -23.171  0.00  0.00    +0.017 C 
ATOM     22  C   UNL     1      34.051 -14.563 -21.305  0.00  0.00    +0.013 C 
ATOM     23  C   UNL     1      34.468 -15.191 -23.600  0.00  0.00    +0.013 C 
ATOM     24  C   UNL     1      33.992 -14.269 -22.667  0.00  0.00    +0.058 C 
ENDBRANCH  16  19
ENDBRANCH  13  16
ENDBRANCH   9  13
BRANCH   2  25
ATOM     25  C   UNL     1      34.802 -24.384 -15.160  0.00  0.00    +0.116 C 
BRANCH  25  26
ATOM     26  O   UNL     1      35.740 -25.280 -15.724  0.00  0.00    -0.384 OA
ATOM     27  H   UNL     1      35.568 -26.177 -15.396  0.00  0.00    +0.210 HD
ENDBRANCH  25  26
ENDBRANCH   2  25
TORSDOF 5
ENDMDL
MODEL 8
REMARK VINA RESULT:      -9.2      4.866      6.622
REMARK  Name = 9549217
REMARK  5 active torsions:
REMARK  status: ('A' for Active; 'I' for Inactive)
REMARK    1  A    between atoms: CA_2  and  C_25
REMARK    2  A    between atoms: C_9  and  S_13
REMARK    3  A    between atoms: S_13  and  N_16
REMARK    4  A    between atoms: N_16  and  C_19
REMARK    5  A    between atoms: C_25  and  O_26
REMARK                            x       y       z     vdW  Elec       q    Type
REMARK                         _______ _______ _______ _____ _____    ______ ____
ROOT
ATOM      1  N   UNL     1      31.948  -8.229 -20.971  0.00  0.00    +0.390 N 
ATOM      2  CA  UNL     1      32.056  -7.435 -22.200  0.00  0.00    -0.027 C 
ATOM      3  C   UNL     1      33.203  -7.982 -23.066  0.00  0.00    +0.007 C 
ATOM      4  C   UNL     1      33.143  -9.481 -23.230  0.00  0.00    -0.030 C 
ATOM      5  C   UNL     1      32.378 -10.260 -22.344  0.00  0.00    -0.046 C 
ATOM      6  C   UNL     1      31.540  -9.605 -21.275  0.00  0.00    -0.054 C 
ATOM      7  C   UNL     1      32.350 -11.653 -22.498  0.00  0.00    +0.014 C 
ATOM      8  C   UNL     1      33.895 -10.107 -24.232  0.00  0.00    -0.003 C 
ATOM      9  C   UNL     1      33.095 -12.267 -23.505  0.00  0.00    +0.125 C 
ATOM     10  C   UNL     1      33.869 -11.494 -24.369  0.00  0.00    +0.020 C 
ATOM     11  H1  UNL     1      31.254  -7.802 -20.358  0.00  0.00    -0.084 HD
ATOM     12  H2  UNL     1      32.859  -8.251 -20.514  0.00  0.00    -0.084 HD
ENDROOT
BRANCH   9  13
ATOM     13  S   UNL     1      33.058 -14.003 -23.682  0.00  0.00    +0.074 S 
ATOM     14  O   UNL     1      32.892 -14.301 -25.101  0.00  0.00    -0.150 OA
ATOM     15  O   UNL     1      32.095 -14.549 -22.734  0.00  0.00    -0.150 OA
BRANCH  13  16
ATOM     16  N   UNL     1      34.650 -14.470 -23.221  0.00  0.00    -0.215 N 
ATOM     17  H   UNL     1      35.403 -13.839 -23.288  0.00  0.00    +0.174 HD
BRANCH  16  19
ATOM     18 CL   UNL     1      35.466 -19.997 -21.204  0.00  0.00    -0.082 Cl
ATOM     19  C   UNL     1      34.848 -15.808 -22.733  0.00  0.00    +0.065 C 
ATOM     20  C   UNL     1      34.828 -16.050 -21.365  0.00  0.00    +0.017 C 
ATOM     21  C   UNL     1      35.056 -16.845 -23.634  0.00  0.00    +0.017 C 
ATOM     22  C   UNL     1      35.020 -17.349 -20.891  0.00  0.00    +0.013 C 
ATOM     23  C   UNL     1      35.246 -18.143 -23.161  0.00  0.00    +0.013 C 
ATOM     24  C   UNL     1      35.229 -18.395 -21.789  0.00  0.00    +0.058 C 
ENDBRANCH  16  19
ENDBRANCH  13  16
ENDBRANCH   9  13
BRANCH   2  25
ATOM     25  C   UNL     1      32.304  -5.971 -21.845  0.00  0.00    +0.116 C 
BRANCH  25  26
ATOM     26  O   UNL     1      31.236  -5.518 -21.034  0.00  0.00    -0.384 OA
ATOM     27  H   UNL     1      31.540  -5.430 -20.117  0.00  0.00    +0.210 HD
ENDBRANCH  25  26
ENDBRANCH   2  25
TORSDOF 5
ENDMDL
MODEL 9
REMARK VINA RESULT:      -9.2      3.820      5.676
REMARK  Name = 9549217
REMARK  5 active torsions:
REMARK  status: ('A' for Active; 'I' for Inactive)
REMARK    1  A    between atoms: CA_2  and  C_25
REMARK    2  A    between atoms: C_9  and  S_13
REMARK    3  A    between atoms: S_13  and  N_16
REMARK    4  A    between atoms: N_16  and  C_19
REMARK    5  A    between atoms: C_25  and  O_26
REMARK                            x       y       z     vdW  Elec       q    Type
REMARK                         _______ _______ _______ _____ _____    ______ ____
ROOT
ATOM      1  N   UNL     1      33.700 -17.425 -21.618  0.00  0.00    +0.390 N 
ATOM      2  CA  UNL     1      34.815 -17.701 -22.532  0.00  0.00    -0.027 C 
ATOM      3  C   UNL     1      35.934 -18.430 -21.770  0.00  0.00    +0.007 C 
ATOM      4  C   UNL     1      35.421 -19.592 -20.956  0.00  0.00    -0.030 C 
ATOM      5  C   UNL     1      34.055 -19.683 -20.634  0.00  0.00    -0.046 C 
ATOM      6  C   UNL     1      33.074 -18.673 -21.171  0.00  0.00    -0.054 C 
ATOM      7  C   UNL     1      33.599 -20.758 -19.859  0.00  0.00    +0.014 C 
ATOM      8  C   UNL     1      36.314 -20.555 -20.468  0.00  0.00    -0.003 C 
ATOM      9  C   UNL     1      34.495 -21.717 -19.386  0.00  0.00    +0.125 C 
ATOM     10  C   UNL     1      35.851 -21.613 -19.688  0.00  0.00    +0.020 C 
ATOM     11  H1  UNL     1      33.006 -16.855 -22.101  0.00  0.00    -0.084 HD
ATOM     12  H2  UNL     1      34.060 -16.928 -20.804  0.00  0.00    -0.084 HD
ENDROOT
BRANCH   9  13
ATOM     13  S   UNL     1      33.916 -23.047 -18.416  0.00  0.00    +0.074 S 
ATOM     14  O   UNL     1      34.742 -23.116 -17.216  0.00  0.00    -0.150 OA
ATOM     15  O   UNL     1      33.807 -24.230 -19.261  0.00  0.00    -0.150 OA
BRANCH  13  16
ATOM     16  N   UNL     1      32.341 -22.525 -17.951  0.00  0.00    -0.215 N 
ATOM     17  H   UNL     1      31.798 -21.959 -18.547  0.00  0.00    +0.174 HD
BRANCH  16  19
ATOM     18 CL   UNL     1      30.282 -24.243 -12.651  0.00  0.00    -0.082 Cl
ATOM     19  C   UNL     1      31.842 -22.940 -16.668  0.00  0.00    +0.065 C 
ATOM     20  C   UNL     1      32.717 -23.480 -15.733  0.00  0.00    +0.017 C 
ATOM     21  C   UNL     1      30.491 -22.798 -16.376  0.00  0.00    +0.017 C 
ATOM     22  C   UNL     1      32.233 -23.885 -14.488  0.00  0.00    +0.013 C 
ATOM     23  C   UNL     1      30.007 -23.200 -15.132  0.00  0.00    +0.013 C 
ATOM     24  C   UNL     1      30.879 -23.745 -14.187  0.00  0.00    +0.058 C 
ENDBRANCH  16  19
ENDBRANCH  13  16
ENDBRANCH   9  13
BRANCH   2  25
ATOM     25  C   UNL     1      35.333 -16.390 -23.121  0.00  0.00    +0.116 C 
BRANCH  25  26
ATOM     26  O   UNL     1      35.357 -16.509 -24.530  0.00  0.00    -0.384 OA
ATOM     27  H   UNL     1      34.471 -16.337 -24.885  0.00  0.00    +0.210 HD
ENDBRANCH  25  26
ENDBRANCH   2  25
TORSDOF 5
ENDMDL
