MODEL 1
REMARK VINA RESULT:      -5.6      0.000      0.000
REMARK  Name = 10917
REMARK  5 active torsions:
REMARK  status: ('A' for Active; 'I' for Inactive)
REMARK    1  A    between atoms: C_1  and  O_2
REMARK    2  A    between atoms: C_1  and  C_4
REMARK    3  A    between atoms: C_1  and  C_9
REMARK    4  A    between atoms: C_4  and  N_5
REMARK    5  A    between atoms: C_9  and  C_12
REMARK                            x       y       z     vdW  Elec       q    Type
REMARK                         _______ _______ _______ _____ _____    ______ ____
ROOT
ATOM      1  C   UNL     1      37.750 -23.631 -12.533  0.00  0.00    +0.102 C 
ENDROOT
BRANCH   1   2
ATOM      2  O   UNL     1      38.689 -23.095 -11.601  0.00  0.00    -0.386 OA
ATOM      3  H   UNL     1      39.440 -23.702 -11.513  0.00  0.00    +0.210 HD
ENDBRANCH   1   2
BRANCH   1   4
ATOM      4  C   UNL     1      38.062 -25.116 -12.707  0.00  0.00    -0.043 C 
BRANCH   4   5
ATOM      5  N   UNL     1      38.401 -25.438 -14.155  0.00  0.00    +0.387 N 
ATOM      6  C   UNL     1      39.893 -25.710 -14.280  0.00  0.00    -0.096 C 
ATOM      7  C   UNL     1      37.622 -26.668 -14.598  0.00  0.00    -0.096 C 
ATOM      8  C   UNL     1      38.026 -24.255 -15.038  0.00  0.00    -0.096 C 
ENDBRANCH   4   5
ENDBRANCH   1   4
BRANCH   1   9
ATOM      9  C   UNL     1      36.325 -23.354 -12.052  0.00  0.00    +0.141 C 
BRANCH   9  12
ATOM     10  O   UNL     1      36.399 -23.995  -9.788  0.00  0.00    -0.246 OA
ATOM     11  O   UNL     1      34.917 -25.062 -11.160  0.00  0.00    -0.246 OA
ATOM     12  C   UNL     1      35.824 -24.227 -10.892  0.00  0.00    +0.367 C 
ENDBRANCH   9  12
ENDBRANCH   1   9
TORSDOF 5
ENDMDL
MODEL 2
REMARK VINA RESULT:      -5.6      3.197      4.823
REMARK  Name = 10917
REMARK  5 active torsions:
REMARK  status: ('A' for Active; 'I' for Inactive)
REMARK    1  A    between atoms: C_1  and  O_2
REMARK    2  A    between atoms: C_1  and  C_4
REMARK    3  A    between atoms: C_1  and  C_9
REMARK    4  A    between atoms: C_4  and  N_5
REMARK    5  A    between atoms: C_9  and  C_12
REMARK                            x       y       z     vdW  Elec       q    Type
REMARK                         _______ _______ _______ _____ _____    ______ ____
ROOT
ATOM      1  C   UNL     1      38.104 -25.317 -14.467  0.00  0.00    +0.102 C 
ENDROOT
BRANCH   1   2
ATOM      2  O   UNL     1      37.936 -26.396 -15.388  0.00  0.00    -0.386 OA
ATOM      3  H   UNL     1      37.081 -26.826 -15.229  0.00  0.00    +0.210 HD
ENDBRANCH   1   2
BRANCH   1   4
ATOM      4  C   UNL     1      36.944 -25.367 -13.475  0.00  0.00    -0.043 C 
BRANCH   4   5
ATOM      5  N   UNL     1      36.281 -24.004 -13.341  0.00  0.00    +0.387 N 
ATOM      6  C   UNL     1      36.922 -23.237 -12.193  0.00  0.00    -0.096 C 
ATOM      7  C   UNL     1      36.460 -23.223 -14.635  0.00  0.00    -0.096 C 
ATOM      8  C   UNL     1      34.795 -24.187 -13.061  0.00  0.00    -0.096 C 
ENDBRANCH   4   5
ENDBRANCH   1   4
BRANCH   1   9
ATOM      9  C   UNL     1      39.482 -25.406 -13.809  0.00  0.00    +0.141 C 
BRANCH   9  12
ATOM     10  O   UNL     1      40.554 -25.852 -15.856  0.00  0.00    -0.246 OA
ATOM     11  O   UNL     1      41.342 -26.890 -13.981  0.00  0.00    -0.246 OA
ATOM     12  C   UNL     1      40.570 -26.124 -14.620  0.00  0.00    +0.367 C 
ENDBRANCH   9  12
ENDBRANCH   1   9
TORSDOF 5
ENDMDL
MODEL 3
REMARK VINA RESULT:      -5.3      3.328      4.692
REMARK  Name = 10917
REMARK  5 active torsions:
REMARK  status: ('A' for Active; 'I' for Inactive)
REMARK    1  A    between atoms: C_1  and  O_2
REMARK    2  A    between atoms: C_1  and  C_4
REMARK    3  A    between atoms: C_1  and  C_9
REMARK    4  A    between atoms: C_4  and  N_5
REMARK    5  A    between atoms: C_9  and  C_12
REMARK                            x       y       z     vdW  Elec       q    Type
REMARK                         _______ _______ _______ _____ _____    ______ ____
ROOT
ATOM      1  C   UNL     1      38.112 -24.275 -14.507  0.00  0.00    +0.102 C 
ENDROOT
BRANCH   1   2
ATOM      2  O   UNL     1      38.807 -23.853 -15.681  0.00  0.00    -0.386 OA
ATOM      3  H   UNL     1      39.166 -24.629 -16.141  0.00  0.00    +0.210 HD
ENDBRANCH   1   2
BRANCH   1   4
ATOM      4  C   UNL     1      36.744 -24.799 -14.939  0.00  0.00    -0.043 C 
BRANCH   4   5
ATOM      5  N   UNL     1      35.631 -23.875 -14.466  0.00  0.00    +0.387 N 
ATOM      6  C   UNL     1      34.298 -24.608 -14.536  0.00  0.00    -0.096 C 
ATOM      7  C   UNL     1      35.900 -23.448 -13.030  0.00  0.00    -0.096 C 
ATOM      8  C   UNL     1      35.580 -22.644 -15.360  0.00  0.00    -0.096 C 
ENDBRANCH   4   5
ENDBRANCH   1   4
BRANCH   1   9
ATOM      9  C   UNL     1      38.953 -25.302 -13.747  0.00  0.00    +0.141 C 
BRANCH   9  12
ATOM     10  O   UNL     1      40.417 -26.909 -14.649  0.00  0.00    -0.246 OA
ATOM     11  O   UNL     1      41.119 -24.737 -14.571  0.00  0.00    -0.246 OA
ATOM     12  C   UNL     1      40.298 -25.676 -14.385  0.00  0.00    +0.367 C 
ENDBRANCH   9  12
ENDBRANCH   1   9
TORSDOF 5
ENDMDL
MODEL 4
REMARK VINA RESULT:      -5.2      2.668      4.378
REMARK  Name = 10917
REMARK  5 active torsions:
REMARK  status: ('A' for Active; 'I' for Inactive)
REMARK    1  A    between atoms: C_1  and  O_2
REMARK    2  A    between atoms: C_1  and  C_4
REMARK    3  A    between atoms: C_1  and  C_9
REMARK    4  A    between atoms: C_4  and  N_5
REMARK    5  A    between atoms: C_9  and  C_12
REMARK                            x       y       z     vdW  Elec       q    Type
REMARK                         _______ _______ _______ _____ _____    ______ ____
ROOT
ATOM      1  C   UNL     1      37.555 -25.633 -13.132  0.00  0.00    +0.102 C 
ENDROOT
BRANCH   1   2
ATOM      2  O   UNL     1      37.236 -26.331 -11.928  0.00  0.00    -0.386 OA
ATOM      3  H   UNL     1      37.233 -25.709 -11.184  0.00  0.00    +0.210 HD
ENDBRANCH   1   2
BRANCH   1   4
ATOM      4  C   UNL     1      36.560 -24.483 -13.280  0.00  0.00    -0.043 C 
BRANCH   4   5
ATOM      5  N   UNL     1      35.834 -24.558 -14.615  0.00  0.00    +0.387 N 
ATOM      6  C   UNL     1      34.343 -24.349 -14.395  0.00  0.00    -0.096 C 
ATOM      7  C   UNL     1      36.366 -23.476 -15.545  0.00  0.00    -0.096 C 
ATOM      8  C   UNL     1      36.067 -25.925 -15.244  0.00  0.00    -0.096 C 
ENDBRANCH   4   5
ENDBRANCH   1   4
BRANCH   1   9
ATOM      9  C   UNL     1      39.016 -25.182 -13.100  0.00  0.00    +0.141 C 
BRANCH   9  12
ATOM     10  O   UNL     1      39.498 -26.750 -14.788  0.00  0.00    -0.246 OA
ATOM     11  O   UNL     1      40.900 -24.964 -14.547  0.00  0.00    -0.246 OA
ATOM     12  C   UNL     1      39.897 -25.672 -14.258  0.00  0.00    +0.367 C 
ENDBRANCH   9  12
ENDBRANCH   1   9
TORSDOF 5
ENDMDL
MODEL 5
REMARK VINA RESULT:      -5.1      2.684      4.030
REMARK  Name = 10917
REMARK  5 active torsions:
REMARK  status: ('A' for Active; 'I' for Inactive)
REMARK    1  A    between atoms: C_1  and  O_2
REMARK    2  A    between atoms: C_1  and  C_4
REMARK    3  A    between atoms: C_1  and  C_9
REMARK    4  A    between atoms: C_4  and  N_5
REMARK    5  A    between atoms: C_9  and  C_12
REMARK                            x       y       z     vdW  Elec       q    Type
REMARK                         _______ _______ _______ _____ _____    ______ ____
ROOT
ATOM      1  C   UNL     1      36.895 -26.156 -15.137  0.00  0.00    +0.102 C 
ENDROOT
BRANCH   1   2
ATOM      2  O   UNL     1      36.790 -27.084 -16.217  0.00  0.00    -0.386 OA
ATOM      3  H   UNL     1      36.707 -27.984 -15.864  0.00  0.00    +0.210 HD
ENDBRANCH   1   2
BRANCH   1   4
ATOM      4  C   UNL     1      35.593 -25.359 -15.079  0.00  0.00    -0.043 C 
BRANCH   4   5
ATOM      5  N   UNL     1      35.869 -23.863 -15.058  0.00  0.00    +0.387 N 
ATOM      6  C   UNL     1      34.912 -23.156 -16.008  0.00  0.00    -0.096 C 
ATOM      7  C   UNL     1      35.670 -23.328 -13.647  0.00  0.00    -0.096 C 
ATOM      8  C   UNL     1      37.304 -23.605 -15.500  0.00  0.00    -0.096 C 
ENDBRANCH   4   5
ENDBRANCH   1   4
BRANCH   1   9
ATOM      9  C   UNL     1      37.218 -26.902 -13.841  0.00  0.00    +0.141 C 
BRANCH   9  12
ATOM     10  O   UNL     1      36.830 -26.099 -11.663  0.00  0.00    -0.246 OA
ATOM     11  O   UNL     1      38.680 -25.349 -12.772  0.00  0.00    -0.246 OA
ATOM     12  C   UNL     1      37.625 -26.028 -12.645  0.00  0.00    +0.367 C 
ENDBRANCH   9  12
ENDBRANCH   1   9
TORSDOF 5
ENDMDL
MODEL 6
REMARK VINA RESULT:      -5.0      1.977      3.493
REMARK  Name = 10917
REMARK  5 active torsions:
REMARK  status: ('A' for Active; 'I' for Inactive)
REMARK    1  A    between atoms: C_1  and  O_2
REMARK    2  A    between atoms: C_1  and  C_4
REMARK    3  A    between atoms: C_1  and  C_9
REMARK    4  A    between atoms: C_4  and  N_5
REMARK    5  A    between atoms: C_9  and  C_12
REMARK                            x       y       z     vdW  Elec       q    Type
REMARK                         _______ _______ _______ _____ _____    ______ ____
ROOT
ATOM      1  C   UNL     1      35.830 -24.647 -12.606  0.00  0.00    +0.102 C 
ENDROOT
BRANCH   1   2
ATOM      2  O   UNL     1      34.584 -24.964 -11.985  0.00  0.00    -0.386 OA
ATOM      3  H   UNL     1      34.134 -24.145 -11.726  0.00  0.00    +0.210 HD
ENDBRANCH   1   2
BRANCH   1   4
ATOM      4  C   UNL     1      35.581 -23.511 -13.597  0.00  0.00    -0.043 C 
BRANCH   4   5
ATOM      5  N   UNL     1      35.841 -23.965 -15.026  0.00  0.00    +0.387 N 
ATOM      6  C   UNL     1      34.613 -23.685 -15.880  0.00  0.00    -0.096 C 
ATOM      7  C   UNL     1      37.035 -23.208 -15.590  0.00  0.00    -0.096 C 
ATOM      8  C   UNL     1      36.137 -25.459 -15.038  0.00  0.00    -0.096 C 
ENDBRANCH   4   5
ENDBRANCH   1   4
BRANCH   1   9
ATOM      9  C   UNL     1      36.873 -24.316 -11.539  0.00  0.00    +0.141 C 
BRANCH   9  12
ATOM     10  O   UNL     1      38.517 -22.632 -11.622  0.00  0.00    -0.246 OA
ATOM     11  O   UNL     1      38.862 -24.535 -12.838  0.00  0.00    -0.246 OA
ATOM     12  C   UNL     1      38.218 -23.784 -12.055  0.00  0.00    +0.367 C 
ENDBRANCH   9  12
ENDBRANCH   1   9
TORSDOF 5
ENDMDL
MODEL 7
REMARK VINA RESULT:      -5.0      9.246     10.379
REMARK  Name = 10917
REMARK  5 active torsions:
REMARK  status: ('A' for Active; 'I' for Inactive)
REMARK    1  A    between atoms: C_1  and  O_2
REMARK    2  A    between atoms: C_1  and  C_4
REMARK    3  A    between atoms: C_1  and  C_9
REMARK    4  A    between atoms: C_4  and  N_5
REMARK    5  A    between atoms: C_9  and  C_12
REMARK                            x       y       z     vdW  Elec       q    Type
REMARK                         _______ _______ _______ _____ _____    ______ ____
ROOT
ATOM      1  C   UNL     1      33.789 -20.165 -20.987  0.00  0.00    +0.102 C 
ENDROOT
BRANCH   1   2
ATOM      2  O   UNL     1      32.373 -20.330 -20.899  0.00  0.00    -0.386 OA
ATOM      3  H   UNL     1      32.039 -20.698 -21.732  0.00  0.00    +0.210 HD
ENDBRANCH   1   2
BRANCH   1   4
ATOM      4  C   UNL     1      34.082 -18.666 -21.030  0.00  0.00    -0.043 C 
BRANCH   4   5
ATOM      5  N   UNL     1      35.058 -18.332 -22.148  0.00  0.00    +0.387 N 
ATOM      6  C   UNL     1      36.482 -18.571 -21.668  0.00  0.00    -0.096 C 
ATOM      7  C   UNL     1      34.773 -19.217 -23.353  0.00  0.00    -0.096 C 
ATOM      8  C   UNL     1      34.895 -16.870 -22.544  0.00  0.00    -0.096 C 
ENDBRANCH   4   5
ENDBRANCH   1   4
BRANCH   1   9
ATOM      9  C   UNL     1      34.470 -20.893 -19.827  0.00  0.00    +0.141 C 
BRANCH   9  12
ATOM     10  O   UNL     1      34.429 -23.226 -19.520  0.00  0.00    -0.246 OA
ATOM     11  O   UNL     1      32.637 -22.014 -18.791  0.00  0.00    -0.246 OA
ATOM     12  C   UNL     1      33.769 -22.164 -19.326  0.00  0.00    +0.367 C 
ENDBRANCH   9  12
ENDBRANCH   1   9
TORSDOF 5
ENDMDL
MODEL 8
REMARK VINA RESULT:      -5.0     12.831     14.061
REMARK  Name = 10917
REMARK  5 active torsions:
REMARK  status: ('A' for Active; 'I' for Inactive)
REMARK    1  A    between atoms: C_1  and  O_2
REMARK    2  A    between atoms: C_1  and  C_4
REMARK    3  A    between atoms: C_1  and  C_9
REMARK    4  A    between atoms: C_4  and  N_5
REMARK    5  A    between atoms: C_9  and  C_12
REMARK                            x       y       z     vdW  Elec       q    Type
REMARK                         _______ _______ _______ _____ _____    ______ ____
ROOT
ATOM      1  C   UNL     1      34.540 -16.564 -23.430  0.00  0.00    +0.102 C 
ENDROOT
BRANCH   1   2
ATOM      2  O   UNL     1      35.882 -16.101 -23.585  0.00  0.00    -0.386 OA
ATOM      3  H   UNL     1      36.429 -16.812 -23.955  0.00  0.00    +0.210 HD
ENDBRANCH   1   2
BRANCH   1   4
ATOM      4  C   UNL     1      34.379 -17.053 -21.992  0.00  0.00    -0.043 C 
BRANCH   4   5
ATOM      5  N   UNL     1      34.722 -18.531 -21.876  0.00  0.00    +0.387 N 
ATOM      6  C   UNL     1      33.673 -19.230 -21.023  0.00  0.00    -0.096 C 
ATOM      7  C   UNL     1      34.747 -19.157 -23.263  0.00  0.00    -0.096 C 
ATOM      8  C   UNL     1      36.090 -18.685 -21.225  0.00  0.00    -0.096 C 
ENDBRANCH   4   5
ENDBRANCH   1   4
BRANCH   1   9
ATOM      9  C   UNL     1      33.560 -15.455 -23.817  0.00  0.00    +0.141 C 
BRANCH   9  12
ATOM     10  O   UNL     1      34.032 -16.007 -26.056  0.00  0.00    -0.246 OA
ATOM     11  O   UNL     1      32.678 -14.213 -25.653  0.00  0.00    -0.246 OA
ATOM     12  C   UNL     1      33.401 -15.192 -25.321  0.00  0.00    +0.367 C 
ENDBRANCH   9  12
ENDBRANCH   1   9
TORSDOF 5
ENDMDL
MODEL 9
REMARK VINA RESULT:      -4.9      2.171      2.948
REMARK  Name = 10917
REMARK  5 active torsions:
REMARK  status: ('A' for Active; 'I' for Inactive)
REMARK    1  A    between atoms: C_1  and  O_2
REMARK    2  A    between atoms: C_1  and  C_4
REMARK    3  A    between atoms: C_1  and  C_9
REMARK    4  A    between atoms: C_4  and  N_5
REMARK    5  A    between atoms: C_9  and  C_12
REMARK                            x       y       z     vdW  Elec       q    Type
REMARK                         _______ _______ _______ _____ _____    ______ ____
ROOT
ATOM      1  C   UNL     1      35.232 -24.249 -12.955  0.00  0.00    +0.102 C 
ENDROOT
BRANCH   1   2
ATOM      2  O   UNL     1      34.092 -23.600 -12.390  0.00  0.00    -0.386 OA
ATOM      3  H   UNL     1      33.829 -24.060 -11.577  0.00  0.00    +0.210 HD
ENDBRANCH   1   2
BRANCH   1   4
ATOM      4  C   UNL     1      35.977 -23.222 -13.806  0.00  0.00    -0.043 C 
BRANCH   4   5
ATOM      5  N   UNL     1      36.057 -23.670 -15.258  0.00  0.00    +0.387 N 
ATOM      6  C   UNL     1      37.143 -22.880 -15.974  0.00  0.00    -0.096 C 
ATOM      7  C   UNL     1      36.388 -25.154 -15.314  0.00  0.00    -0.096 C 
ATOM      8  C   UNL     1      34.718 -23.423 -15.939  0.00  0.00    -0.096 C 
ENDBRANCH   4   5
ENDBRANCH   1   4
BRANCH   1   9
ATOM      9  C   UNL     1      36.084 -24.863 -11.844  0.00  0.00    +0.141 C 
BRANCH   9  12
ATOM     10  O   UNL     1      35.331 -24.465  -9.649  0.00  0.00    -0.246 OA
ATOM     11  O   UNL     1      36.992 -23.132 -10.475  0.00  0.00    -0.246 OA
ATOM     12  C   UNL     1      36.150 -24.070 -10.530  0.00  0.00    +0.367 C 
ENDBRANCH   9  12
ENDBRANCH   1   9
TORSDOF 5
ENDMDL
