MODEL 1
REMARK VINA RESULT:      -7.0      0.000      0.000
REMARK  Name = 2294
REMARK  2 active torsions:
REMARK  status: ('A' for Active; 'I' for Inactive)
REMARK    1  A    between atoms: C_6  and  C_12
REMARK    2  A    between atoms: C_6  and  C_14
REMARK                            x       y       z     vdW  Elec       q    Type
REMARK                         _______ _______ _______ _____ _____    ______ ____
ROOT
ATOM      1  O   UNL     1      37.674 -22.691 -15.248  0.00  0.00    -0.274 OA
ATOM      2  O   UNL     1      37.582 -26.070 -11.989  0.00  0.00    -0.274 OA
ATOM      3  O   UNL     1      40.653 -26.177 -15.397  0.00  0.00    -0.252 OA
ATOM      4  N   UNL     1      39.098 -24.485 -15.376  0.00  0.00    -0.239 N 
ATOM      5  N   UNL     1      39.051 -26.173 -13.749  0.00  0.00    -0.239 N 
ATOM      6  C   UNL     1      37.149 -24.630 -13.891  0.00  0.00    +0.138 C 
ATOM      7  C   UNL     1      37.989 -23.820 -14.874  0.00  0.00    +0.237 C 
ATOM      8  C   UNL     1      37.938 -25.665 -13.096  0.00  0.00    +0.237 C 
ATOM      9  C   UNL     1      39.659 -25.658 -14.887  0.00  0.00    +0.312 C 
ATOM     10  H   UNL     1      39.532 -24.084 -16.162  0.00  0.00    +0.159 HD
ATOM     11  H   UNL     1      39.453 -26.986 -13.365  0.00  0.00    +0.159 HD
ENDROOT
BRANCH   6  12
ATOM     12  C   UNL     1      36.429 -23.679 -12.925  0.00  0.00    +0.017 C 
ATOM     13  C   UNL     1      37.415 -22.987 -12.012  0.00  0.00    +0.001 C 
ENDBRANCH   6  12
BRANCH   6  14
ATOM     14  C   UNL     1      36.104 -25.401 -14.719  0.00  0.00    +0.017 C 
ATOM     15  C   UNL     1      34.794 -24.647 -14.782  0.00  0.00    +0.001 C 
ENDBRANCH   6  14
TORSDOF 2
ENDMDL
MODEL 2
REMARK VINA RESULT:      -6.7      0.625      2.995
REMARK  Name = 2294
REMARK  2 active torsions:
REMARK  status: ('A' for Active; 'I' for Inactive)
REMARK    1  A    between atoms: C_6  and  C_12
REMARK    2  A    between atoms: C_6  and  C_14
REMARK                            x       y       z     vdW  Elec       q    Type
REMARK                         _______ _______ _______ _____ _____    ______ ____
ROOT
ATOM      1  O   UNL     1      37.023 -26.566 -12.548  0.00  0.00    -0.274 OA
ATOM      2  O   UNL     1      37.459 -23.129 -15.718  0.00  0.00    -0.274 OA
ATOM      3  O   UNL     1      40.825 -26.184 -15.088  0.00  0.00    -0.252 OA
ATOM      4  N   UNL     1      38.962 -26.315 -13.749  0.00  0.00    -0.239 N 
ATOM      5  N   UNL     1      39.180 -24.598 -15.331  0.00  0.00    -0.239 N 
ATOM      6  C   UNL     1      37.363 -24.454 -13.689  0.00  0.00    +0.138 C 
ATOM      7  C   UNL     1      37.730 -25.879 -13.284  0.00  0.00    +0.237 C 
ATOM      8  C   UNL     1      37.968 -24.003 -15.014  0.00  0.00    +0.237 C 
ATOM      9  C   UNL     1      39.740 -25.721 -14.735  0.00  0.00    +0.312 C 
ATOM     10  H   UNL     1      39.323 -27.131 -13.335  0.00  0.00    +0.159 HD
ATOM     11  H   UNL     1      39.698 -24.180 -16.056  0.00  0.00    +0.159 HD
ENDROOT
BRANCH   6  12
ATOM     12  C   UNL     1      35.835 -24.315 -13.748  0.00  0.00    +0.017 C 
ATOM     13  C   UNL     1      35.268 -25.063 -14.932  0.00  0.00    +0.001 C 
ENDBRANCH   6  12
BRANCH   6  14
ATOM     14  C   UNL     1      37.918 -23.519 -12.599  0.00  0.00    +0.017 C 
ATOM     15  C   UNL     1      36.836 -23.122 -11.619  0.00  0.00    +0.001 C 
ENDBRANCH   6  14
TORSDOF 2
ENDMDL
MODEL 3
REMARK VINA RESULT:      -6.6      2.761      4.090
REMARK  Name = 2294
REMARK  2 active torsions:
REMARK  status: ('A' for Active; 'I' for Inactive)
REMARK    1  A    between atoms: C_6  and  C_12
REMARK    2  A    between atoms: C_6  and  C_14
REMARK                            x       y       z     vdW  Elec       q    Type
REMARK                         _______ _______ _______ _____ _____    ______ ____
ROOT
ATOM      1  O   UNL     1      38.300 -22.173 -12.113  0.00  0.00    -0.274 OA
ATOM      2  O   UNL     1      35.630 -25.379 -14.266  0.00  0.00    -0.274 OA
ATOM      3  O   UNL     1      35.211 -24.618  -9.760  0.00  0.00    -0.252 OA
ATOM      4  N   UNL     1      36.824 -23.465 -10.921  0.00  0.00    -0.239 N 
ATOM      5  N   UNL     1      35.492 -25.067 -11.997  0.00  0.00    -0.239 N 
ATOM      6  C   UNL     1      37.432 -24.161 -13.195  0.00  0.00    +0.138 C 
ATOM      7  C   UNL     1      37.556 -23.152 -12.057  0.00  0.00    +0.237 C 
ATOM      8  C   UNL     1      36.100 -24.902 -13.232  0.00  0.00    +0.237 C 
ATOM      9  C   UNL     1      35.812 -24.410 -10.815  0.00  0.00    +0.312 C 
ATOM     10  H   UNL     1      37.046 -22.963 -10.104  0.00  0.00    +0.159 HD
ATOM     11  H   UNL     1      34.755 -25.718 -11.953  0.00  0.00    +0.159 HD
ENDROOT
BRANCH   6  12
ATOM     12  C   UNL     1      37.664 -23.453 -14.537  0.00  0.00    +0.017 C 
ATOM     13  C   UNL     1      36.448 -22.653 -14.944  0.00  0.00    +0.001 C 
ENDBRANCH   6  12
BRANCH   6  14
ATOM     14  C   UNL     1      38.530 -25.219 -12.981  0.00  0.00    +0.017 C 
ATOM     15  C   UNL     1      39.355 -25.409 -14.235  0.00  0.00    +0.001 C 
ENDBRANCH   6  14
TORSDOF 2
ENDMDL
MODEL 4
REMARK VINA RESULT:      -6.4      2.919      4.236
REMARK  Name = 2294
REMARK  2 active torsions:
REMARK  status: ('A' for Active; 'I' for Inactive)
REMARK    1  A    between atoms: C_6  and  C_12
REMARK    2  A    between atoms: C_6  and  C_14
REMARK                            x       y       z     vdW  Elec       q    Type
REMARK                         _______ _______ _______ _____ _____    ______ ____
ROOT
ATOM      1  O   UNL     1      36.088 -25.957 -15.685  0.00  0.00    -0.274 OA
ATOM      2  O   UNL     1      37.046 -22.919 -12.235  0.00  0.00    -0.274 OA
ATOM      3  O   UNL     1      32.743 -24.315 -13.006  0.00  0.00    -0.252 OA
ATOM      4  N   UNL     1      34.405 -25.060 -14.408  0.00  0.00    -0.239 N 
ATOM      5  N   UNL     1      34.884 -23.542 -12.686  0.00  0.00    -0.239 N 
ATOM      6  C   UNL     1      36.614 -23.992 -14.366  0.00  0.00    +0.138 C 
ATOM      7  C   UNL     1      35.711 -25.112 -14.873  0.00  0.00    +0.237 C 
ATOM      8  C   UNL     1      36.234 -23.453 -12.991  0.00  0.00    +0.237 C 
ATOM      9  C   UNL     1      33.925 -24.293 -13.354  0.00  0.00    +0.312 C 
ATOM     10  H   UNL     1      33.749 -25.626 -14.875  0.00  0.00    +0.159 HD
ATOM     11  H   UNL     1      34.572 -23.017 -11.914  0.00  0.00    +0.159 HD
ENDROOT
BRANCH   6  12
ATOM     12  C   UNL     1      38.071 -24.477 -14.343  0.00  0.00    +0.017 C 
ATOM     13  C   UNL     1      38.252 -25.597 -13.345  0.00  0.00    +0.001 C 
ENDBRANCH   6  12
BRANCH   6  14
ATOM     14  C   UNL     1      36.483 -22.822 -15.359  0.00  0.00    +0.017 C 
ATOM     15  C   UNL     1      37.754 -22.642 -16.160  0.00  0.00    +0.001 C 
ENDBRANCH   6  14
TORSDOF 2
ENDMDL
MODEL 5
REMARK VINA RESULT:      -6.4     17.923     19.316
REMARK  Name = 2294
REMARK  2 active torsions:
REMARK  status: ('A' for Active; 'I' for Inactive)
REMARK    1  A    between atoms: C_6  and  C_12
REMARK    2  A    between atoms: C_6  and  C_14
REMARK                            x       y       z     vdW  Elec       q    Type
REMARK                         _______ _______ _______ _____ _____    ______ ____
ROOT
ATOM      1  O   UNL     1      33.058  -6.675 -19.573  0.00  0.00    -0.274 OA
ATOM      2  O   UNL     1      31.105  -8.382 -23.488  0.00  0.00    -0.274 OA
ATOM      3  O   UNL     1      31.699 -11.052 -19.803  0.00  0.00    -0.252 OA
ATOM      4  N   UNL     1      32.467  -8.888 -19.723  0.00  0.00    -0.239 N 
ATOM      5  N   UNL     1      31.493  -9.740 -21.679  0.00  0.00    -0.239 N 
ATOM      6  C   UNL     1      32.629  -7.568 -21.786  0.00  0.00    +0.138 C 
ATOM      7  C   UNL     1      32.720  -7.636 -20.264  0.00  0.00    +0.237 C 
ATOM      8  C   UNL     1      31.655  -8.567 -22.401  0.00  0.00    +0.237 C 
ATOM      9  C   UNL     1      31.889  -9.974 -20.368  0.00  0.00    +0.312 C 
ATOM     10  H   UNL     1      32.726  -9.020 -18.783  0.00  0.00    +0.159 HD
ATOM     11  H   UNL     1      31.051 -10.486 -22.145  0.00  0.00    +0.159 HD
ENDROOT
BRANCH   6  12
ATOM     12  C   UNL     1      32.243  -6.145 -22.214  0.00  0.00    +0.017 C 
ATOM     13  C   UNL     1      30.878  -5.771 -21.685  0.00  0.00    +0.001 C 
ENDBRANCH   6  12
BRANCH   6  14
ATOM     14  C   UNL     1      34.027  -7.904 -22.337  0.00  0.00    +0.017 C 
ATOM     15  C   UNL     1      34.264  -7.229 -23.669  0.00  0.00    +0.001 C 
ENDBRANCH   6  14
TORSDOF 2
ENDMDL
MODEL 6
REMARK VINA RESULT:      -6.3      1.778      2.310
REMARK  Name = 2294
REMARK  2 active torsions:
REMARK  status: ('A' for Active; 'I' for Inactive)
REMARK    1  A    between atoms: C_6  and  C_12
REMARK    2  A    between atoms: C_6  and  C_14
REMARK                            x       y       z     vdW  Elec       q    Type
REMARK                         _______ _______ _______ _____ _____    ______ ____
ROOT
ATOM      1  O   UNL     1      38.146 -23.310 -12.304  0.00  0.00    -0.274 OA
ATOM      2  O   UNL     1      35.712 -25.629 -15.583  0.00  0.00    -0.274 OA
ATOM      3  O   UNL     1      40.014 -26.848 -14.551  0.00  0.00    -0.252 OA
ATOM      4  N   UNL     1      39.111 -25.016 -13.497  0.00  0.00    -0.239 N 
ATOM      5  N   UNL     1      37.896 -26.173 -15.135  0.00  0.00    -0.239 N 
ATOM      6  C   UNL     1      37.031 -24.021 -14.336  0.00  0.00    +0.138 C 
ATOM      7  C   UNL     1      38.116 -24.079 -13.265  0.00  0.00    +0.237 C 
ATOM      8  C   UNL     1      36.787 -25.344 -15.055  0.00  0.00    +0.237 C 
ATOM      9  C   UNL     1      39.079 -26.057 -14.416  0.00  0.00    +0.312 C 
ATOM     10  H   UNL     1      39.927 -24.934 -12.953  0.00  0.00    +0.159 HD
ATOM     11  H   UNL     1      37.838 -26.924 -15.769  0.00  0.00    +0.159 HD
ENDROOT
BRANCH   6  12
ATOM     12  C   UNL     1      35.719 -23.525 -13.712  0.00  0.00    +0.017 C 
ATOM     13  C   UNL     1      35.281 -24.429 -12.583  0.00  0.00    +0.001 C 
ENDBRANCH   6  12
BRANCH   6  14
ATOM     14  C   UNL     1      37.502 -23.012 -15.400  0.00  0.00    +0.017 C 
ATOM     15  C   UNL     1      36.325 -22.317 -16.050  0.00  0.00    +0.001 C 
ENDBRANCH   6  14
TORSDOF 2
ENDMDL
MODEL 7
REMARK VINA RESULT:      -6.3     10.212     11.546
REMARK  Name = 2294
REMARK  2 active torsions:
REMARK  status: ('A' for Active; 'I' for Inactive)
REMARK    1  A    between atoms: C_6  and  C_12
REMARK    2  A    between atoms: C_6  and  C_14
REMARK                            x       y       z     vdW  Elec       q    Type
REMARK                         _______ _______ _______ _____ _____    ______ ____
ROOT
ATOM      1  O   UNL     1      35.324 -16.655 -20.209  0.00  0.00    -0.274 OA
ATOM      2  O   UNL     1      35.109 -19.762 -23.722  0.00  0.00    -0.274 OA
ATOM      3  O   UNL     1      34.031 -15.356 -24.415  0.00  0.00    -0.252 OA
ATOM      4  N   UNL     1      34.584 -16.028 -22.288  0.00  0.00    -0.239 N 
ATOM      5  N   UNL     1      34.476 -17.580 -24.042  0.00  0.00    -0.239 N 
ATOM      6  C   UNL     1      34.692 -18.419 -21.747  0.00  0.00    +0.138 C 
ATOM      7  C   UNL     1      34.927 -16.970 -21.330  0.00  0.00    +0.237 C 
ATOM      8  C   UNL     1      34.809 -18.666 -23.248  0.00  0.00    +0.237 C 
ATOM      9  C   UNL     1      34.326 -16.261 -23.633  0.00  0.00    +0.312 C 
ATOM     10  H   UNL     1      34.516 -15.094 -21.982  0.00  0.00    +0.159 HD
ATOM     11  H   UNL     1      34.331 -17.763 -24.999  0.00  0.00    +0.159 HD
ENDROOT
BRANCH   6  12
ATOM     12  C   UNL     1      35.671 -19.334 -20.998  0.00  0.00    +0.017 C 
ATOM     13  C   UNL     1      37.101 -19.015 -21.368  0.00  0.00    +0.001 C 
ENDBRANCH   6  12
BRANCH   6  14
ATOM     14  C   UNL     1      33.250 -18.776 -21.343  0.00  0.00    +0.017 C 
ATOM     15  C   UNL     1      33.205 -20.084 -20.584  0.00  0.00    +0.001 C 
ENDBRANCH   6  14
TORSDOF 2
ENDMDL
MODEL 8
REMARK VINA RESULT:      -6.3      1.854      2.109
REMARK  Name = 2294
REMARK  2 active torsions:
REMARK  status: ('A' for Active; 'I' for Inactive)
REMARK    1  A    between atoms: C_6  and  C_12
REMARK    2  A    between atoms: C_6  and  C_14
REMARK                            x       y       z     vdW  Elec       q    Type
REMARK                         _______ _______ _______ _____ _____    ______ ____
ROOT
ATOM      1  O   UNL     1      37.628 -23.052 -14.890  0.00  0.00    -0.274 OA
ATOM      2  O   UNL     1      37.000 -26.419 -11.678  0.00  0.00    -0.274 OA
ATOM      3  O   UNL     1      36.857 -27.394 -16.160  0.00  0.00    -0.252 OA
ATOM      4  N   UNL     1      37.146 -25.204 -15.523  0.00  0.00    -0.239 N 
ATOM      5  N   UNL     1      36.831 -26.885 -13.919  0.00  0.00    -0.239 N 
ATOM      6  C   UNL     1      36.747 -24.543 -13.194  0.00  0.00    +0.138 C 
ATOM      7  C   UNL     1      37.240 -24.181 -14.591  0.00  0.00    +0.237 C 
ATOM      8  C   UNL     1      36.897 -26.019 -12.838  0.00  0.00    +0.237 C 
ATOM      9  C   UNL     1      36.922 -26.551 -15.264  0.00  0.00    +0.312 C 
ATOM     10  H   UNL     1      37.247 -24.949 -16.468  0.00  0.00    +0.159 HD
ATOM     11  H   UNL     1      36.706 -27.840 -13.710  0.00  0.00    +0.159 HD
ENDROOT
BRANCH   6  12
ATOM     12  C   UNL     1      37.481 -23.687 -12.152  0.00  0.00    +0.017 C 
ATOM     13  C   UNL     1      38.956 -24.015 -12.124  0.00  0.00    +0.001 C 
ENDBRANCH   6  12
BRANCH   6  14
ATOM     14  C   UNL     1      35.242 -24.220 -13.149  0.00  0.00    +0.017 C 
ATOM     15  C   UNL     1      34.795 -23.903 -11.739  0.00  0.00    +0.001 C 
ENDBRANCH   6  14
TORSDOF 2
ENDMDL
MODEL 9
REMARK VINA RESULT:      -6.2     18.327     19.749
REMARK  Name = 2294
REMARK  2 active torsions:
REMARK  status: ('A' for Active; 'I' for Inactive)
REMARK    1  A    between atoms: C_6  and  C_12
REMARK    2  A    between atoms: C_6  and  C_14
REMARK                            x       y       z     vdW  Elec       q    Type
REMARK                         _______ _______ _______ _____ _____    ______ ____
ROOT
ATOM      1  O   UNL     1      32.108  -5.560 -21.675  0.00  0.00    -0.274 OA
ATOM      2  O   UNL     1      32.188  -9.818 -23.653  0.00  0.00    -0.274 OA
ATOM      3  O   UNL     1      32.217  -9.348 -19.088  0.00  0.00    -0.252 OA
ATOM      4  N   UNL     1      32.262  -7.452 -20.385  0.00  0.00    -0.239 N 
ATOM      5  N   UNL     1      32.302  -9.578 -21.373  0.00  0.00    -0.239 N 
ATOM      6  C   UNL     1      32.737  -7.621 -22.787  0.00  0.00    +0.138 C 
ATOM      7  C   UNL     1      32.316  -6.770 -21.592  0.00  0.00    +0.237 C 
ATOM      8  C   UNL     1      32.360  -9.094 -22.671  0.00  0.00    +0.237 C 
ATOM      9  C   UNL     1      32.274  -8.829 -20.203  0.00  0.00    +0.312 C 
ATOM     10  H   UNL     1      32.208  -6.901 -19.571  0.00  0.00    +0.159 HD
ATOM     11  H   UNL     1      32.278 -10.557 -21.270  0.00  0.00    +0.159 HD
ENDROOT
BRANCH   6  12
ATOM     12  C   UNL     1      32.133  -7.035 -24.072  0.00  0.00    +0.017 C 
ATOM     13  C   UNL     1      30.629  -7.182 -24.079  0.00  0.00    +0.001 C 
ENDBRANCH   6  12
BRANCH   6  14
ATOM     14  C   UNL     1      34.273  -7.554 -22.870  0.00  0.00    +0.017 C 
ATOM     15  C   UNL     1      34.725  -7.101 -24.241  0.00  0.00    +0.001 C 
ENDBRANCH   6  14
TORSDOF 2
ENDMDL
