MODEL 1
REMARK VINA RESULT:      -7.2      0.000      0.000
REMARK  Name = 444706
REMARK  6 active torsions:
REMARK  status: ('A' for Active; 'I' for Inactive)
REMARK    1  A    between atoms: N_3  and  C_20
REMARK    2  A    between atoms: C_5  and  S_13
REMARK    3  A    between atoms: C_6  and  C_10
REMARK    4  A    between atoms: S_13  and  C_14
REMARK    5  A    between atoms: C_20  and  O_21
REMARK    6  A    between atoms: O_21  and  C_22
REMARK                            x       y       z     vdW  Elec       q    Type
REMARK                         _______ _______ _______ _____ _____    ______ ____
ROOT
ATOM      1  O   UNL     1      35.727 -23.060 -13.420  0.00  0.00    -0.267 OA
ATOM      2  O   UNL     1      31.190 -23.362 -13.816  0.00  0.00    -0.246 OA
ATOM      3  N   UNL     1      32.469 -23.569 -15.764  0.00  0.00    -0.250 N 
ATOM      4  N   UNL     1      33.456 -23.223 -13.650  0.00  0.00    -0.275 N 
ATOM      5  C   UNL     1      33.747 -23.595 -16.348  0.00  0.00    +0.092 A 
ATOM      6  C   UNL     1      34.872 -23.451 -15.611  0.00  0.00    +0.055 A 
ATOM      7  C   UNL     1      34.744 -23.223 -14.139  0.00  0.00    +0.259 A 
ATOM      8  C   UNL     1      32.287 -23.386 -14.381  0.00  0.00    +0.333 A 
ATOM      9  H   UNL     1      33.353 -23.093 -12.679  0.00  0.00    +0.173 HD
ENDROOT
BRANCH   6  10
ATOM     10  C   UNL     1      36.300 -23.435 -16.099  0.00  0.00    +0.029 C 
ATOM     11  C   UNL     1      36.838 -22.012 -16.083  0.00  0.00    +0.005 C 
ATOM     12  C   UNL     1      37.161 -24.362 -15.253  0.00  0.00    +0.005 C 
ENDBRANCH   6  10
BRANCH   5  13
ATOM     13  S   UNL     1      33.851 -23.863 -18.082  0.00  0.00    -0.098 S 
BRANCH  13  14
ATOM     14  C   UNL     1      34.106 -22.139 -18.619  0.00  0.00    +0.053 C 
ATOM     15  C   UNL     1      35.422 -22.018 -19.394  0.00  0.00    +0.011 C 
ATOM     16  C   UNL     1      32.916 -21.669 -19.461  0.00  0.00    +0.011 C 
ATOM     17  C   UNL     1      35.631 -20.594 -19.908  0.00  0.00    +0.001 C 
ATOM     18  C   UNL     1      33.132 -20.245 -19.975  0.00  0.00    +0.001 C 
ATOM     19  C   UNL     1      34.445 -20.115 -20.740  0.00  0.00    +0.000 C 
ENDBRANCH  13  14
ENDBRANCH   5  13
BRANCH   3  20
ATOM     20  C   UNL     1      31.291 -23.738 -16.621  0.00  0.00    +0.260 C 
BRANCH  20  21
ATOM     21  O   UNL     1      30.678 -22.471 -16.807  0.00  0.00    -0.332 OA
BRANCH  21  22
ATOM     22  C   UNL     1      29.288 -22.517 -16.515  0.00  0.00    +0.145 C 
ATOM     23  C   UNL     1      28.849 -23.963 -16.429  0.00  0.00    +0.035 C 
ENDBRANCH  21  22
ENDBRANCH  20  21
ENDBRANCH   3  20
TORSDOF 6
ENDMDL
MODEL 2
REMARK VINA RESULT:      -6.9      2.371      4.992
REMARK  Name = 444706
REMARK  6 active torsions:
REMARK  status: ('A' for Active; 'I' for Inactive)
REMARK    1  A    between atoms: N_3  and  C_20
REMARK    2  A    between atoms: C_5  and  S_13
REMARK    3  A    between atoms: C_6  and  C_10
REMARK    4  A    between atoms: S_13  and  C_14
REMARK    5  A    between atoms: C_20  and  O_21
REMARK    6  A    between atoms: O_21  and  C_22
REMARK                            x       y       z     vdW  Elec       q    Type
REMARK                         _______ _______ _______ _____ _____    ______ ____
ROOT
ATOM      1  O   UNL     1      37.656 -22.538 -14.956  0.00  0.00    -0.267 OA
ATOM      2  O   UNL     1      36.669 -20.639 -18.988  0.00  0.00    -0.246 OA
ATOM      3  N   UNL     1      35.203 -22.266 -18.163  0.00  0.00    -0.250 N 
ATOM      4  N   UNL     1      37.130 -21.600 -16.976  0.00  0.00    -0.275 N 
ATOM      5  C   UNL     1      34.885 -23.162 -17.127  0.00  0.00    +0.092 A 
ATOM      6  C   UNL     1      35.656 -23.279 -16.023  0.00  0.00    +0.055 A 
ATOM      7  C   UNL     1      36.901 -22.457 -15.923  0.00  0.00    +0.259 A 
ATOM      8  C   UNL     1      36.345 -21.446 -18.112  0.00  0.00    +0.333 A 
ATOM      9  H   UNL     1      37.935 -21.036 -16.918  0.00  0.00    +0.173 HD
ENDROOT
BRANCH   6  10
ATOM     10  C   UNL     1      35.454 -24.207 -14.850  0.00  0.00    +0.029 C 
ATOM     11  C   UNL     1      36.395 -25.398 -14.961  0.00  0.00    +0.005 C 
ATOM     12  C   UNL     1      35.659 -23.459 -13.540  0.00  0.00    +0.005 C 
ENDBRANCH   6  10
BRANCH   5  13
ATOM     13  S   UNL     1      33.415 -24.111 -17.288  0.00  0.00    -0.098 S 
BRANCH  13  14
ATOM     14  C   UNL     1      32.375 -23.227 -16.077  0.00  0.00    +0.053 C 
ATOM     15  C   UNL     1      31.007 -22.910 -16.690  0.00  0.00    +0.011 C 
ATOM     16  C   UNL     1      32.235 -24.057 -14.798  0.00  0.00    +0.011 C 
ATOM     17  C   UNL     1      30.094 -22.222 -15.677  0.00  0.00    +0.001 C 
ATOM     18  C   UNL     1      31.319 -23.366 -13.789  0.00  0.00    +0.001 C 
ATOM     19  C   UNL     1      29.958 -23.039 -14.395  0.00  0.00    +0.000 C 
ENDBRANCH  13  14
ENDBRANCH   5  13
BRANCH   3  20
ATOM     20  C   UNL     1      34.319 -22.184 -19.330  0.00  0.00    +0.260 C 
BRANCH  20  21
ATOM     21  O   UNL     1      33.370 -21.151 -19.110  0.00  0.00    -0.332 OA
BRANCH  21  22
ATOM     22  C   UNL     1      32.935 -20.573 -20.332  0.00  0.00    +0.145 C 
ATOM     23  C   UNL     1      34.024 -19.666 -20.865  0.00  0.00    +0.035 C 
ENDBRANCH  21  22
ENDBRANCH  20  21
ENDBRANCH   3  20
TORSDOF 6
ENDMDL
MODEL 3
REMARK VINA RESULT:      -6.9     10.631     13.501
REMARK  Name = 444706
REMARK  6 active torsions:
REMARK  status: ('A' for Active; 'I' for Inactive)
REMARK    1  A    between atoms: N_3  and  C_20
REMARK    2  A    between atoms: C_5  and  S_13
REMARK    3  A    between atoms: C_6  and  C_10
REMARK    4  A    between atoms: S_13  and  C_14
REMARK    5  A    between atoms: C_20  and  O_21
REMARK    6  A    between atoms: O_21  and  C_22
REMARK                            x       y       z     vdW  Elec       q    Type
REMARK                         _______ _______ _______ _____ _____    ______ ____
ROOT
ATOM      1  O   UNL     1      32.614  -8.159 -21.369  0.00  0.00    -0.267 OA
ATOM      2  O   UNL     1      35.078  -9.502 -24.968  0.00  0.00    -0.246 OA
ATOM      3  N   UNL     1      33.657 -11.073 -23.974  0.00  0.00    -0.250 N 
ATOM      4  N   UNL     1      33.831  -8.861 -23.175  0.00  0.00    -0.275 N 
ATOM      5  C   UNL     1      32.709 -11.351 -22.974  0.00  0.00    +0.092 A 
ATOM      6  C   UNL     1      32.307 -10.410 -22.090  0.00  0.00    +0.055 A 
ATOM      7  C   UNL     1      32.919  -9.048 -22.160  0.00  0.00    +0.259 A 
ATOM      8  C   UNL     1      34.247  -9.803 -24.107  0.00  0.00    +0.333 A 
ATOM      9  H   UNL     1      34.230  -7.963 -23.249  0.00  0.00    +0.173 HD
ENDROOT
BRANCH   6  10
ATOM     10  C   UNL     1      31.322 -10.569 -20.958  0.00  0.00    +0.029 C 
ATOM     11  C   UNL     1      30.138 -11.410 -21.413  0.00  0.00    +0.005 C 
ATOM     12  C   UNL     1      32.003 -11.183 -19.743  0.00  0.00    +0.005 C 
ENDBRANCH   6  10
BRANCH   5  13
ATOM     13  S   UNL     1      32.017 -12.966 -22.927  0.00  0.00    -0.098 S 
BRANCH  13  14
ATOM     14  C   UNL     1      33.476 -13.880 -22.322  0.00  0.00    +0.053 C 
ATOM     15  C   UNL     1      33.256 -14.321 -20.872  0.00  0.00    +0.011 C 
ATOM     16  C   UNL     1      33.761 -15.077 -23.233  0.00  0.00    +0.011 C 
ATOM     17  C   UNL     1      34.439 -15.140 -20.359  0.00  0.00    +0.001 C 
ATOM     18  C   UNL     1      34.944 -15.895 -22.715  0.00  0.00    +0.001 C 
ATOM     19  C   UNL     1      34.737 -16.330 -21.267  0.00  0.00    +0.000 C 
ENDBRANCH  13  14
ENDBRANCH   5  13
BRANCH   3  20
ATOM     20  C   UNL     1      34.043 -12.138 -24.905  0.00  0.00    +0.260 C 
BRANCH  20  21
ATOM     21  O   UNL     1      33.403 -11.907 -26.151  0.00  0.00    -0.332 OA
BRANCH  21  22
ATOM     22  C   UNL     1      33.554 -13.014 -27.028  0.00  0.00    +0.145 C 
ATOM     23  C   UNL     1      32.777 -14.190 -26.477  0.00  0.00    +0.035 C 
ENDBRANCH  21  22
ENDBRANCH  20  21
ENDBRANCH   3  20
TORSDOF 6
ENDMDL
MODEL 4
REMARK VINA RESULT:      -6.9      2.326      5.873
REMARK  Name = 444706
REMARK  6 active torsions:
REMARK  status: ('A' for Active; 'I' for Inactive)
REMARK    1  A    between atoms: N_3  and  C_20
REMARK    2  A    between atoms: C_5  and  S_13
REMARK    3  A    between atoms: C_6  and  C_10
REMARK    4  A    between atoms: S_13  and  C_14
REMARK    5  A    between atoms: C_20  and  O_21
REMARK    6  A    between atoms: O_21  and  C_22
REMARK                            x       y       z     vdW  Elec       q    Type
REMARK                         _______ _______ _______ _____ _____    ______ ____
ROOT
ATOM      1  O   UNL     1      30.893 -23.795 -16.146  0.00  0.00    -0.267 OA
ATOM      2  O   UNL     1      33.761 -22.773 -19.547  0.00  0.00    -0.246 OA
ATOM      3  N   UNL     1      34.607 -22.750 -17.365  0.00  0.00    -0.250 N 
ATOM      4  N   UNL     1      32.357 -23.285 -17.830  0.00  0.00    -0.275 N 
ATOM      5  C   UNL     1      34.362 -22.945 -15.995  0.00  0.00    +0.092 A 
ATOM      6  C   UNL     1      33.147 -23.315 -15.533  0.00  0.00    +0.055 A 
ATOM      7  C   UNL     1      32.026 -23.485 -16.508  0.00  0.00    +0.259 A 
ATOM      8  C   UNL     1      33.600 -22.923 -18.333  0.00  0.00    +0.333 A 
ATOM      9  H   UNL     1      31.636 -23.412 -18.489  0.00  0.00    +0.173 HD
ENDROOT
BRANCH   6  10
ATOM     10  C   UNL     1      32.733 -23.536 -14.098  0.00  0.00    +0.029 C 
ATOM     11  C   UNL     1      31.583 -22.606 -13.739  0.00  0.00    +0.005 C 
ATOM     12  C   UNL     1      32.355 -24.994 -13.874  0.00  0.00    +0.005 C 
ENDBRANCH   6  10
BRANCH   5  13
ATOM     13  S   UNL     1      35.707 -22.731 -14.884  0.00  0.00    -0.098 S 
BRANCH  13  14
ATOM     14  C   UNL     1      36.643 -24.245 -15.280  0.00  0.00    +0.053 C 
ATOM     15  C   UNL     1      37.937 -24.293 -14.461  0.00  0.00    +0.011 C 
ATOM     16  C   UNL     1      35.776 -25.482 -15.026  0.00  0.00    +0.011 C 
ATOM     17  C   UNL     1      38.713 -25.582 -14.730  0.00  0.00    +0.001 C 
ATOM     18  C   UNL     1      36.557 -26.768 -15.293  0.00  0.00    +0.001 C 
ATOM     19  C   UNL     1      37.852 -26.818 -14.489  0.00  0.00    +0.000 C 
ENDBRANCH  13  14
ENDBRANCH   5  13
BRANCH   3  20
ATOM     20  C   UNL     1      35.951 -22.356 -17.799  0.00  0.00    +0.260 C 
BRANCH  20  21
ATOM     21  O   UNL     1      35.877 -21.072 -18.400  0.00  0.00    -0.332 OA
BRANCH  21  22
ATOM     22  C   UNL     1      36.585 -21.030 -19.631  0.00  0.00    +0.145 C 
ATOM     23  C   UNL     1      35.847 -20.125 -20.595  0.00  0.00    +0.035 C 
ENDBRANCH  21  22
ENDBRANCH  20  21
ENDBRANCH   3  20
TORSDOF 6
ENDMDL
MODEL 5
REMARK VINA RESULT:      -6.7      1.150      4.416
REMARK  Name = 444706
REMARK  6 active torsions:
REMARK  status: ('A' for Active; 'I' for Inactive)
REMARK    1  A    between atoms: N_3  and  C_20
REMARK    2  A    between atoms: C_5  and  S_13
REMARK    3  A    between atoms: C_6  and  C_10
REMARK    4  A    between atoms: S_13  and  C_14
REMARK    5  A    between atoms: C_20  and  O_21
REMARK    6  A    between atoms: O_21  and  C_22
REMARK                            x       y       z     vdW  Elec       q    Type
REMARK                         _______ _______ _______ _____ _____    ______ ____
ROOT
ATOM      1  O   UNL     1      30.888 -23.125 -13.708  0.00  0.00    -0.267 OA
ATOM      2  O   UNL     1      35.401 -23.346 -13.063  0.00  0.00    -0.246 OA
ATOM      3  N   UNL     1      34.594 -23.686 -15.233  0.00  0.00    -0.250 N 
ATOM      4  N   UNL     1      33.155 -23.236 -13.418  0.00  0.00    -0.275 N 
ATOM      5  C   UNL     1      33.480 -23.748 -16.089  0.00  0.00    +0.092 A 
ATOM      6  C   UNL     1      32.221 -23.548 -15.639  0.00  0.00    +0.055 A 
ATOM      7  C   UNL     1      32.010 -23.290 -14.181  0.00  0.00    +0.259 A 
ATOM      8  C   UNL     1      34.460 -23.419 -13.858  0.00  0.00    +0.333 A 
ATOM      9  H   UNL     1      33.037 -23.046 -12.459  0.00  0.00    +0.173 HD
ENDROOT
BRANCH   6  10
ATOM     10  C   UNL     1      30.938 -23.606 -16.430  0.00  0.00    +0.029 C 
ATOM     11  C   UNL     1      30.062 -24.740 -15.918  0.00  0.00    +0.005 C 
ATOM     12  C   UNL     1      30.210 -22.270 -16.360  0.00  0.00    +0.005 C 
ENDBRANCH   6  10
BRANCH   5  13
ATOM     13  S   UNL     1      33.774 -24.057 -17.794  0.00  0.00    -0.098 S 
BRANCH  13  14
ATOM     14  C   UNL     1      34.019 -22.338 -18.354  0.00  0.00    +0.053 C 
ATOM     15  C   UNL     1      35.352 -22.213 -19.098  0.00  0.00    +0.011 C 
ATOM     16  C   UNL     1      32.845 -21.900 -19.234  0.00  0.00    +0.011 C 
ATOM     17  C   UNL     1      35.555 -20.795 -19.630  0.00  0.00    +0.001 C 
ATOM     18  C   UNL     1      33.054 -20.482 -19.766  0.00  0.00    +0.001 C 
ATOM     19  C   UNL     1      34.384 -20.346 -20.500  0.00  0.00    +0.000 C 
ENDBRANCH  13  14
ENDBRANCH   5  13
BRANCH   3  20
ATOM     20  C   UNL     1      35.932 -23.906 -15.788  0.00  0.00    +0.260 C 
BRANCH  20  21
ATOM     21  O   UNL     1      36.283 -25.270 -15.603  0.00  0.00    -0.332 OA
BRANCH  21  22
ATOM     22  C   UNL     1      37.497 -25.402 -14.878  0.00  0.00    +0.145 C 
ATOM     23  C   UNL     1      37.286 -26.370 -13.734  0.00  0.00    +0.035 C 
ENDBRANCH  21  22
ENDBRANCH  20  21
ENDBRANCH   3  20
TORSDOF 6
ENDMDL
MODEL 6
REMARK VINA RESULT:      -6.6      9.201     12.028
REMARK  Name = 444706
REMARK  6 active torsions:
REMARK  status: ('A' for Active; 'I' for Inactive)
REMARK    1  A    between atoms: N_3  and  C_20
REMARK    2  A    between atoms: C_5  and  S_13
REMARK    3  A    between atoms: C_6  and  C_10
REMARK    4  A    between atoms: S_13  and  C_14
REMARK    5  A    between atoms: C_20  and  O_21
REMARK    6  A    between atoms: O_21  and  C_22
REMARK                            x       y       z     vdW  Elec       q    Type
REMARK                         _______ _______ _______ _____ _____    ______ ____
ROOT
ATOM      1  O   UNL     1      35.337 -16.604 -21.423  0.00  0.00    -0.267 OA
ATOM      2  O   UNL     1      34.893 -17.114 -25.937  0.00  0.00    -0.246 OA
ATOM      3  N   UNL     1      33.591 -15.474 -24.894  0.00  0.00    -0.250 N 
ATOM      4  N   UNL     1      35.097 -16.831 -23.688  0.00  0.00    -0.275 N 
ATOM      5  C   UNL     1      33.242 -14.816 -23.701  0.00  0.00    +0.092 A 
ATOM      6  C   UNL     1      33.808 -15.137 -22.517  0.00  0.00    +0.055 A 
ATOM      7  C   UNL     1      34.807 -16.249 -22.473  0.00  0.00    +0.259 A 
ATOM      8  C   UNL     1      34.544 -16.508 -24.920  0.00  0.00    +0.333 A 
ATOM      9  H   UNL     1      35.768 -17.552 -23.682  0.00  0.00    +0.173 HD
ENDROOT
BRANCH   6  10
ATOM     10  C   UNL     1      33.518 -14.537 -21.162  0.00  0.00    +0.029 C 
ATOM     11  C   UNL     1      32.444 -15.350 -20.454  0.00  0.00    +0.005 C 
ATOM     12  C   UNL     1      34.792 -14.462 -20.331  0.00  0.00    +0.005 C 
ENDBRANCH   6  10
BRANCH   5  13
ATOM     13  S   UNL     1      32.062 -13.517 -23.798  0.00  0.00    -0.098 S 
BRANCH  13  14
ATOM     14  C   UNL     1      33.173 -12.103 -23.489  0.00  0.00    +0.053 C 
ATOM     15  C   UNL     1      33.951 -11.758 -24.763  0.00  0.00    +0.011 C 
ATOM     16  C   UNL     1      32.368 -10.902 -22.984  0.00  0.00    +0.011 C 
ATOM     17  C   UNL     1      34.846 -10.538 -24.549  0.00  0.00    +0.001 C 
ATOM     18  C   UNL     1      33.267  -9.684 -22.774  0.00  0.00    +0.001 C 
ATOM     19  C   UNL     1      34.053  -9.340 -24.035  0.00  0.00    +0.000 C 
ENDBRANCH  13  14
ENDBRANCH   5  13
BRANCH   3  20
ATOM     20  C   UNL     1      32.943 -15.070 -26.146  0.00  0.00    +0.260 C 
BRANCH  20  21
ATOM     21  O   UNL     1      33.942 -14.637 -27.056  0.00  0.00    -0.332 OA
BRANCH  21  22
ATOM     22  C   UNL     1      33.690 -13.317 -27.518  0.00  0.00    +0.145 C 
ATOM     23  C   UNL     1      32.195 -13.083 -27.550  0.00  0.00    +0.035 C 
ENDBRANCH  21  22
ENDBRANCH  20  21
ENDBRANCH   3  20
TORSDOF 6
ENDMDL
MODEL 7
REMARK VINA RESULT:      -6.5     11.367     14.175
REMARK  Name = 444706
REMARK  6 active torsions:
REMARK  status: ('A' for Active; 'I' for Inactive)
REMARK    1  A    between atoms: N_3  and  C_20
REMARK    2  A    between atoms: C_5  and  S_13
REMARK    3  A    between atoms: C_6  and  C_10
REMARK    4  A    between atoms: S_13  and  C_14
REMARK    5  A    between atoms: C_20  and  O_21
REMARK    6  A    between atoms: O_21  and  C_22
REMARK                            x       y       z     vdW  Elec       q    Type
REMARK                         _______ _______ _______ _____ _____    ______ ____
ROOT
ATOM      1  O   UNL     1      32.521  -7.613 -19.471  0.00  0.00    -0.267 OA
ATOM      2  O   UNL     1      34.239  -7.650 -23.699  0.00  0.00    -0.246 OA
ATOM      3  N   UNL     1      32.931  -9.475 -23.040  0.00  0.00    -0.250 N 
ATOM      4  N   UNL     1      33.363  -7.658 -21.599  0.00  0.00    -0.275 N 
ATOM      5  C   UNL     1      32.158 -10.079 -22.033  0.00  0.00    +0.092 A 
ATOM      6  C   UNL     1      31.970  -9.493 -20.829  0.00  0.00    +0.055 A 
ATOM      7  C   UNL     1      32.634  -8.182 -20.554  0.00  0.00    +0.259 A 
ATOM      8  C   UNL     1      33.557  -8.229 -22.849  0.00  0.00    +0.333 A 
ATOM      9  H   UNL     1      33.791  -6.785 -21.442  0.00  0.00    +0.173 HD
ENDROOT
BRANCH   6  10
ATOM     10  C   UNL     1      31.190 -10.030 -19.653  0.00  0.00    +0.029 C 
ATOM     11  C   UNL     1      30.101 -10.975 -20.140  0.00  0.00    +0.005 C 
ATOM     12  C   UNL     1      32.124 -10.722 -18.669  0.00  0.00    +0.005 C 
ENDBRANCH   6  10
BRANCH   5  13
ATOM     13  S   UNL     1      31.398 -11.621 -22.398  0.00  0.00    -0.098 S 
BRANCH  13  14
ATOM     14  C   UNL     1      32.801 -12.724 -22.018  0.00  0.00    +0.053 C 
ATOM     15  C   UNL     1      32.449 -13.636 -20.839  0.00  0.00    +0.011 C 
ATOM     16  C   UNL     1      33.183 -13.536 -23.258  0.00  0.00    +0.011 C 
ATOM     17  C   UNL     1      33.585 -14.612 -20.537  0.00  0.00    +0.001 C 
ATOM     18  C   UNL     1      34.318 -14.513 -22.951  0.00  0.00    +0.001 C 
ATOM     19  C   UNL     1      33.979 -15.418 -21.771  0.00  0.00    +0.000 C 
ENDBRANCH  13  14
ENDBRANCH   5  13
BRANCH   3  20
ATOM     20  C   UNL     1      33.089 -10.162 -24.325  0.00  0.00    +0.260 C 
BRANCH  20  21
ATOM     21  O   UNL     1      34.386 -10.738 -24.376  0.00  0.00    -0.332 OA
BRANCH  21  22
ATOM     22  C   UNL     1      34.708 -11.180 -25.687  0.00  0.00    +0.145 C 
ATOM     23  C   UNL     1      35.723 -10.233 -26.292  0.00  0.00    +0.035 C 
ENDBRANCH  21  22
ENDBRANCH  20  21
ENDBRANCH   3  20
TORSDOF 6
ENDMDL
MODEL 8
REMARK VINA RESULT:      -6.4     10.602     13.430
REMARK  Name = 444706
REMARK  6 active torsions:
REMARK  status: ('A' for Active; 'I' for Inactive)
REMARK    1  A    between atoms: N_3  and  C_20
REMARK    2  A    between atoms: C_5  and  S_13
REMARK    3  A    between atoms: C_6  and  C_10
REMARK    4  A    between atoms: S_13  and  C_14
REMARK    5  A    between atoms: C_20  and  O_21
REMARK    6  A    between atoms: O_21  and  C_22
REMARK                            x       y       z     vdW  Elec       q    Type
REMARK                         _______ _______ _______ _____ _____    ______ ____
ROOT
ATOM      1  O   UNL     1      35.067  -8.835 -24.515  0.00  0.00    -0.267 OA
ATOM      2  O   UNL     1      31.812  -8.497 -21.333  0.00  0.00    -0.246 OA
ATOM      3  N   UNL     1      32.020 -10.534 -22.465  0.00  0.00    -0.250 N 
ATOM      4  N   UNL     1      33.430  -8.699 -22.921  0.00  0.00    -0.275 N 
ATOM      5  C   UNL     1      32.705 -11.291 -23.432  0.00  0.00    +0.092 A 
ATOM      6  C   UNL     1      33.744 -10.781 -24.132  0.00  0.00    +0.055 A 
ATOM      7  C   UNL     1      34.147  -9.362 -23.893  0.00  0.00    +0.259 A 
ATOM      8  C   UNL     1      32.373  -9.204 -22.175  0.00  0.00    +0.333 A 
ATOM      9  H   UNL     1      33.695  -7.769 -22.736  0.00  0.00    +0.173 HD
ENDROOT
BRANCH   6  10
ATOM     10  C   UNL     1      34.553 -11.462 -25.210  0.00  0.00    +0.029 C 
ATOM     11  C   UNL     1      33.623 -12.090 -26.238  0.00  0.00    +0.005 C 
ATOM     12  C   UNL     1      35.510 -10.472 -25.860  0.00  0.00    +0.005 C 
ENDBRANCH   6  10
BRANCH   5  13
ATOM     13  S   UNL     1      32.195 -12.953 -23.684  0.00  0.00    -0.098 S 
BRANCH  13  14
ATOM     14  C   UNL     1      33.571 -13.801 -22.837  0.00  0.00    +0.053 C 
ATOM     15  C   UNL     1      33.167 -14.153 -21.401  0.00  0.00    +0.011 C 
ATOM     16  C   UNL     1      33.983 -15.049 -23.623  0.00  0.00    +0.011 C 
ATOM     17  C   UNL     1      34.281 -14.918 -20.688  0.00  0.00    +0.001 C 
ATOM     18  C   UNL     1      35.095 -15.812 -22.904  0.00  0.00    +0.001 C 
ATOM     19  C   UNL     1      34.705 -16.157 -21.470  0.00  0.00    +0.000 C 
ENDBRANCH  13  14
ENDBRANCH   5  13
BRANCH   3  20
ATOM     20  C   UNL     1      30.907 -11.151 -21.736  0.00  0.00    +0.260 C 
BRANCH  20  21
ATOM     21  O   UNL     1      31.380 -11.597 -20.475  0.00  0.00    -0.332 OA
BRANCH  21  22
ATOM     22  C   UNL     1      30.761 -10.894 -19.407  0.00  0.00    +0.145 C 
ATOM     23  C   UNL     1      31.828 -10.417 -18.445  0.00  0.00    +0.035 C 
ENDBRANCH  21  22
ENDBRANCH  20  21
ENDBRANCH   3  20
TORSDOF 6
ENDMDL
MODEL 9
REMARK VINA RESULT:      -6.3      2.114      4.976
REMARK  Name = 444706
REMARK  6 active torsions:
REMARK  status: ('A' for Active; 'I' for Inactive)
REMARK    1  A    between atoms: N_3  and  C_20
REMARK    2  A    between atoms: C_5  and  S_13
REMARK    3  A    between atoms: C_6  and  C_10
REMARK    4  A    between atoms: S_13  and  C_14
REMARK    5  A    between atoms: C_20  and  O_21
REMARK    6  A    between atoms: O_21  and  C_22
REMARK                            x       y       z     vdW  Elec       q    Type
REMARK                         _______ _______ _______ _____ _____    ______ ____
ROOT
ATOM      1  O   UNL     1      34.430 -22.222 -19.638  0.00  0.00    -0.267 OA
ATOM      2  O   UNL     1      31.175 -23.428 -16.675  0.00  0.00    -0.246 OA
ATOM      3  N   UNL     1      33.347 -23.150 -15.851  0.00  0.00    -0.250 N 
ATOM      4  N   UNL     1      32.819 -22.820 -18.127  0.00  0.00    -0.275 N 
ATOM      5  C   UNL     1      34.687 -22.820 -16.123  0.00  0.00    +0.092 A 
ATOM      6  C   UNL     1      35.101 -22.481 -17.365  0.00  0.00    +0.055 A 
ATOM      7  C   UNL     1      34.109 -22.496 -18.484  0.00  0.00    +0.259 A 
ATOM      8  C   UNL     1      32.364 -23.153 -16.858  0.00  0.00    +0.333 A 
ATOM      9  H   UNL     1      32.148 -22.815 -18.848  0.00  0.00    +0.173 HD
ENDROOT
BRANCH   6  10
ATOM     10  C   UNL     1      36.500 -22.128 -17.807  0.00  0.00    +0.029 C 
ATOM     11  C   UNL     1      36.455 -21.408 -19.147  0.00  0.00    +0.005 C 
ATOM     12  C   UNL     1      37.194 -21.283 -16.747  0.00  0.00    +0.005 C 
ENDBRANCH   6  10
BRANCH   5  13
ATOM     13  S   UNL     1      35.819 -22.819 -14.779  0.00  0.00    -0.098 S 
BRANCH  13  14
ATOM     14  C   UNL     1      36.769 -24.316 -15.210  0.00  0.00    +0.053 C 
ATOM     15  C   UNL     1      38.061 -24.373 -14.389  0.00  0.00    +0.011 C 
ATOM     16  C   UNL     1      35.911 -25.565 -14.988  0.00  0.00    +0.011 C 
ATOM     17  C   UNL     1      38.848 -25.648 -14.687  0.00  0.00    +0.001 C 
ATOM     18  C   UNL     1      36.703 -26.838 -15.285  0.00  0.00    +0.001 C 
ATOM     19  C   UNL     1      37.997 -26.897 -14.479  0.00  0.00    +0.000 C 
ENDBRANCH  13  14
ENDBRANCH   5  13
BRANCH   3  20
ATOM     20  C   UNL     1      32.965 -23.501 -14.480  0.00  0.00    +0.260 C 
BRANCH  20  21
ATOM     21  O   UNL     1      32.617 -24.877 -14.443  0.00  0.00    -0.332 OA
BRANCH  21  22
ATOM     22  C   UNL     1      31.516 -25.113 -13.577  0.00  0.00    +0.145 C 
ATOM     23  C   UNL     1      30.754 -23.820 -13.383  0.00  0.00    +0.035 C 
ENDBRANCH  21  22
ENDBRANCH  20  21
ENDBRANCH   3  20
TORSDOF 6
ENDMDL
