MODEL 1
REMARK VINA RESULT:      -8.4      0.000      0.000
REMARK  Name = 10822243
REMARK  3 active torsions:
REMARK  status: ('A' for Active; 'I' for Inactive)
REMARK    1  A    between atoms: CA_2  and  C_16
REMARK    2  A    between atoms: C_9  and  N_15
REMARK    3  A    between atoms: C_16  and  O_17
REMARK                            x       y       z     vdW  Elec       q    Type
REMARK                         _______ _______ _______ _____ _____    ______ ____
ROOT
ATOM      1  N   UNL     1      36.372 -18.051 -22.420  0.00  0.00    +0.390 N 
ATOM      2  CA  UNL     1      35.245 -17.156 -22.137  0.00  0.00    -0.027 C 
ATOM      3  C   UNL     1      33.950 -17.977 -22.030  0.00  0.00    +0.007 C 
ATOM      4  C   UNL     1      34.100 -19.183 -21.135  0.00  0.00    -0.030 C 
ATOM      5  C   UNL     1      35.378 -19.674 -20.815  0.00  0.00    -0.046 C 
ATOM      6  C   UNL     1      36.615 -18.954 -21.289  0.00  0.00    -0.054 C 
ATOM      7  C   UNL     1      32.962 -19.852 -20.665  0.00  0.00    -0.003 C 
ATOM      8  C   UNL     1      35.497 -20.807 -19.999  0.00  0.00    +0.017 C 
ATOM      9  C   UNL     1      34.359 -21.461 -19.528  0.00  0.00    +0.142 C 
ATOM     10  C   UNL     1      33.093 -20.985 -19.863  0.00  0.00    +0.024 C 
ATOM     11  H1  UNL     1      37.209 -17.493 -22.588  0.00  0.00    -0.084 HD
ATOM     12  H2  UNL     1      36.148 -18.610 -23.243  0.00  0.00    -0.084 HD
ENDROOT
BRANCH   9  15
ATOM     13  O   UNL     1      35.295 -22.581 -17.744  0.00  0.00    -0.126 OA
ATOM     14  O   UNL     1      33.799 -23.626 -18.964  0.00  0.00    -0.126 OA
ATOM     15  N   UNL     1      34.491 -22.611 -18.706  0.00  0.00    +0.058 N 
ENDBRANCH   9  15
BRANCH   2  16
ATOM     16  C   UNL     1      35.128 -16.112 -23.247  0.00  0.00    +0.116 C 
BRANCH  16  17
ATOM     17  O   UNL     1      35.355 -16.752 -24.489  0.00  0.00    -0.384 OA
ATOM     18  H   UNL     1      35.093 -16.158 -25.210  0.00  0.00    +0.210 HD
ENDBRANCH  16  17
ENDBRANCH   2  16
TORSDOF 3
ENDMDL
MODEL 2
REMARK VINA RESULT:      -7.9      7.184      9.041
REMARK  Name = 10822243
REMARK  3 active torsions:
REMARK  status: ('A' for Active; 'I' for Inactive)
REMARK    1  A    between atoms: CA_2  and  C_16
REMARK    2  A    between atoms: C_9  and  N_15
REMARK    3  A    between atoms: C_16  and  O_17
REMARK                            x       y       z     vdW  Elec       q    Type
REMARK                         _______ _______ _______ _____ _____    ______ ____
ROOT
ATOM      1  N   UNL     1      34.270 -23.039 -14.920  0.00  0.00    +0.390 N 
ATOM      2  CA  UNL     1      34.192 -24.328 -14.223  0.00  0.00    -0.027 C 
ATOM      3  C   UNL     1      32.822 -24.461 -13.539  0.00  0.00    +0.007 C 
ATOM      4  C   UNL     1      31.678 -24.119 -14.461  0.00  0.00    -0.030 C 
ATOM      5  C   UNL     1      31.908 -23.378 -15.633  0.00  0.00    -0.046 C 
ATOM      6  C   UNL     1      33.311 -22.990 -16.029  0.00  0.00    -0.054 C 
ATOM      7  C   UNL     1      30.370 -24.491 -14.122  0.00  0.00    -0.003 C 
ATOM      8  C   UNL     1      30.830 -23.052 -16.466  0.00  0.00    +0.017 C 
ATOM      9  C   UNL     1      29.533 -23.434 -16.126  0.00  0.00    +0.142 C 
ATOM     10  C   UNL     1      29.303 -24.151 -14.954  0.00  0.00    +0.024 C 
ATOM     11  H1  UNL     1      35.213 -22.913 -15.286  0.00  0.00    -0.084 HD
ATOM     12  H2  UNL     1      34.044 -22.296 -14.259  0.00  0.00    -0.084 HD
ENDROOT
BRANCH   9  15
ATOM     13  O   UNL     1      27.808 -24.014 -17.540  0.00  0.00    -0.126 OA
ATOM     14  O   UNL     1      28.157 -21.885 -17.137  0.00  0.00    -0.126 OA
ATOM     15  N   UNL     1      28.448 -23.095 -16.975  0.00  0.00    +0.058 N 
ENDBRANCH   9  15
BRANCH   2  16
ATOM     16  C   UNL     1      35.317 -24.422 -13.193  0.00  0.00    +0.116 C 
BRANCH  16  17
ATOM     17  O   UNL     1      34.790 -24.973 -12.002  0.00  0.00    -0.384 OA
ATOM     18  H   UNL     1      33.849 -25.178 -12.129  0.00  0.00    +0.210 HD
ENDBRANCH  16  17
ENDBRANCH   2  16
TORSDOF 3
ENDMDL
MODEL 3
REMARK VINA RESULT:      -7.9      1.287      5.952
REMARK  Name = 10822243
REMARK  3 active torsions:
REMARK  status: ('A' for Active; 'I' for Inactive)
REMARK    1  A    between atoms: CA_2  and  C_16
REMARK    2  A    between atoms: C_9  and  N_15
REMARK    3  A    between atoms: C_16  and  O_17
REMARK                            x       y       z     vdW  Elec       q    Type
REMARK                         _______ _______ _______ _____ _____    ______ ____
ROOT
ATOM      1  N   UNL     1      32.828 -21.640 -20.086  0.00  0.00    +0.390 N 
ATOM      2  CA  UNL     1      33.823 -21.615 -19.009  0.00  0.00    -0.027 C 
ATOM      3  C   UNL     1      35.212 -21.317 -19.597  0.00  0.00    +0.007 C 
ATOM      4  C   UNL     1      35.202 -20.138 -20.537  0.00  0.00    -0.030 C 
ATOM      5  C   UNL     1      33.994 -19.683 -21.093  0.00  0.00    -0.046 C 
ATOM      6  C   UNL     1      32.683 -20.310 -20.689  0.00  0.00    -0.054 C 
ATOM      7  C   UNL     1      36.408 -19.527 -20.906  0.00  0.00    -0.003 C 
ATOM      8  C   UNL     1      34.007 -18.599 -21.981  0.00  0.00    +0.017 C 
ATOM      9  C   UNL     1      35.211 -17.991 -22.335  0.00  0.00    +0.142 C 
ATOM     10  C   UNL     1      36.410 -18.456 -21.800  0.00  0.00    +0.024 C 
ATOM     11  H1  UNL     1      31.929 -21.935 -19.706  0.00  0.00    -0.084 HD
ATOM     12  H2  UNL     1      33.140 -22.292 -20.805  0.00  0.00    -0.084 HD
ENDROOT
BRANCH   9  15
ATOM     13  O   UNL     1      35.151 -17.126 -24.471  0.00  0.00    -0.126 OA
ATOM     14  O   UNL     1      35.278 -15.730 -22.782  0.00  0.00    -0.126 OA
ATOM     15  N   UNL     1      35.214 -16.897 -23.239  0.00  0.00    +0.058 N 
ENDBRANCH   9  15
BRANCH   2  16
ATOM     16  C   UNL     1      33.824 -22.960 -18.283  0.00  0.00    +0.116 C 
BRANCH  16  17
ATOM     17  O   UNL     1      33.899 -23.991 -19.249  0.00  0.00    -0.384 OA
ATOM     18  H   UNL     1      33.562 -24.817 -18.866  0.00  0.00    +0.210 HD
ENDBRANCH  16  17
ENDBRANCH   2  16
TORSDOF 3
ENDMDL
MODEL 4
REMARK VINA RESULT:      -7.7      2.715      3.884
REMARK  Name = 10822243
REMARK  3 active torsions:
REMARK  status: ('A' for Active; 'I' for Inactive)
REMARK    1  A    between atoms: CA_2  and  C_16
REMARK    2  A    between atoms: C_9  and  N_15
REMARK    3  A    between atoms: C_16  and  O_17
REMARK                            x       y       z     vdW  Elec       q    Type
REMARK                         _______ _______ _______ _____ _____    ______ ____
ROOT
ATOM      1  N   UNL     1      34.282 -14.373 -23.654  0.00  0.00    +0.390 N 
ATOM      2  CA  UNL     1      33.441 -14.991 -24.684  0.00  0.00    -0.027 C 
ATOM      3  C   UNL     1      34.061 -16.328 -25.122  0.00  0.00    +0.007 C 
ATOM      4  C   UNL     1      34.449 -17.198 -23.951  0.00  0.00    -0.030 C 
ATOM      5  C   UNL     1      34.596 -16.638 -22.670  0.00  0.00    -0.046 C 
ATOM      6  C   UNL     1      34.284 -15.183 -22.430  0.00  0.00    -0.054 C 
ATOM      7  C   UNL     1      34.720 -18.558 -24.149  0.00  0.00    -0.003 C 
ATOM      8  C   UNL     1      34.977 -17.457 -21.599  0.00  0.00    +0.017 C 
ATOM      9  C   UNL     1      35.236 -18.813 -21.803  0.00  0.00    +0.142 C 
ATOM     10  C   UNL     1      35.110 -19.362 -23.077  0.00  0.00    +0.024 C 
ATOM     11  H1  UNL     1      33.921 -13.443 -23.440  0.00  0.00    -0.084 HD
ATOM     12  H2  UNL     1      35.238 -14.310 -24.006  0.00  0.00    -0.084 HD
ENDROOT
BRANCH   9  15
ATOM     13  O   UNL     1      36.785 -19.514 -20.247  0.00  0.00    -0.126 OA
ATOM     14  O   UNL     1      34.801 -20.454 -20.243  0.00  0.00    -0.126 OA
ATOM     15  N   UNL     1      35.626 -19.633 -20.713  0.00  0.00    +0.058 N 
ENDBRANCH   9  15
BRANCH   2  16
ATOM     16  C   UNL     1      33.312 -14.044 -25.876  0.00  0.00    +0.116 C 
BRANCH  16  17
ATOM     17  O   UNL     1      33.580 -14.773 -27.059  0.00  0.00    -0.384 OA
ATOM     18  H   UNL     1      34.186 -14.265 -27.621  0.00  0.00    +0.210 HD
ENDBRANCH  16  17
ENDBRANCH   2  16
TORSDOF 3
ENDMDL
MODEL 5
REMARK VINA RESULT:      -7.7      2.726      6.652
REMARK  Name = 10822243
REMARK  3 active torsions:
REMARK  status: ('A' for Active; 'I' for Inactive)
REMARK    1  A    between atoms: CA_2  and  C_16
REMARK    2  A    between atoms: C_9  and  N_15
REMARK    3  A    between atoms: C_16  and  O_17
REMARK                            x       y       z     vdW  Elec       q    Type
REMARK                         _______ _______ _______ _____ _____    ______ ____
ROOT
ATOM      1  N   UNL     1      35.231 -17.757 -20.641  0.00  0.00    +0.390 N 
ATOM      2  CA  UNL     1      36.132 -18.693 -21.323  0.00  0.00    -0.027 C 
ATOM      3  C   UNL     1      35.485 -19.167 -22.635  0.00  0.00    +0.007 C 
ATOM      4  C   UNL     1      34.943 -18.025 -23.459  0.00  0.00    -0.030 C 
ATOM      5  C   UNL     1      34.706 -16.772 -22.867  0.00  0.00    -0.046 C 
ATOM      6  C   UNL     1      35.071 -16.527 -21.424  0.00  0.00    -0.054 C 
ATOM      7  C   UNL     1      34.620 -18.227 -24.808  0.00  0.00    -0.003 C 
ATOM      8  C   UNL     1      34.183 -15.730 -23.643  0.00  0.00    +0.017 C 
ATOM      9  C   UNL     1      33.873 -15.937 -24.987  0.00  0.00    +0.142 C 
ATOM     10  C   UNL     1      34.089 -17.184 -25.568  0.00  0.00    +0.024 C 
ATOM     11  H1  UNL     1      35.619 -17.524 -19.727  0.00  0.00    -0.084 HD
ATOM     12  H2  UNL     1      34.318 -18.199 -20.536  0.00  0.00    -0.084 HD
ENDROOT
BRANCH   9  15
ATOM     13  O   UNL     1      33.529 -14.874 -27.004  0.00  0.00    -0.126 OA
ATOM     14  O   UNL     1      32.691 -13.967 -25.189  0.00  0.00    -0.126 OA
ATOM     15  N   UNL     1      33.339 -14.875 -25.763  0.00  0.00    +0.058 N 
ENDBRANCH   9  15
BRANCH   2  16
ATOM     16  C   UNL     1      36.422 -19.882 -20.408  0.00  0.00    +0.116 C 
BRANCH  16  17
ATOM     17  O   UNL     1      35.193 -20.376 -19.911  0.00  0.00    -0.384 OA
ATOM     18  H   UNL     1      34.503 -19.704 -20.030  0.00  0.00    +0.210 HD
ENDBRANCH  16  17
ENDBRANCH   2  16
TORSDOF 3
ENDMDL
MODEL 6
REMARK VINA RESULT:      -7.6      1.131      2.050
REMARK  Name = 10822243
REMARK  3 active torsions:
REMARK  status: ('A' for Active; 'I' for Inactive)
REMARK    1  A    between atoms: CA_2  and  C_16
REMARK    2  A    between atoms: C_9  and  N_15
REMARK    3  A    between atoms: C_16  and  O_17
REMARK                            x       y       z     vdW  Elec       q    Type
REMARK                         _______ _______ _______ _____ _____    ______ ____
ROOT
ATOM      1  N   UNL     1      33.730 -18.064 -21.600  0.00  0.00    +0.390 N 
ATOM      2  CA  UNL     1      34.980 -18.242 -22.347  0.00  0.00    -0.027 C 
ATOM      3  C   UNL     1      36.079 -18.748 -21.397  0.00  0.00    +0.007 C 
ATOM      4  C   UNL     1      35.623 -19.910 -20.550  0.00  0.00    -0.030 C 
ATOM      5  C   UNL     1      34.252 -20.173 -20.386  0.00  0.00    -0.046 C 
ATOM      6  C   UNL     1      33.222 -19.354 -21.122  0.00  0.00    -0.054 C 
ATOM      7  C   UNL     1      36.566 -20.698 -19.877  0.00  0.00    -0.003 C 
ATOM      8  C   UNL     1      33.847 -21.245 -19.579  0.00  0.00    +0.017 C 
ATOM      9  C   UNL     1      34.793 -22.029 -18.920  0.00  0.00    +0.142 C 
ATOM     10  C   UNL     1      36.151 -21.755 -19.067  0.00  0.00    +0.024 C 
ATOM     11  H1  UNL     1      33.034 -17.635 -22.210  0.00  0.00    -0.084 HD
ATOM     12  H2  UNL     1      33.912 -17.465 -20.795  0.00  0.00    -0.084 HD
ENDROOT
BRANCH   9  15
ATOM     13  O   UNL     1      34.809 -23.189 -16.927  0.00  0.00    -0.126 OA
ATOM     14  O   UNL     1      33.575 -23.956 -18.572  0.00  0.00    -0.126 OA
ATOM     15  N   UNL     1      34.373 -23.110 -18.101  0.00  0.00    +0.058 N 
ENDBRANCH   9  15
BRANCH   2  16
ATOM     16  C   UNL     1      35.390 -16.915 -22.983  0.00  0.00    +0.116 C 
BRANCH  16  17
ATOM     17  O   UNL     1      35.402 -17.076 -24.389  0.00  0.00    -0.384 OA
ATOM     18  H   UNL     1      35.868 -17.897 -24.616  0.00  0.00    +0.210 HD
ENDBRANCH  16  17
ENDBRANCH   2  16
TORSDOF 3
ENDMDL
MODEL 7
REMARK VINA RESULT:      -7.5      5.266      8.759
REMARK  Name = 10822243
REMARK  3 active torsions:
REMARK  status: ('A' for Active; 'I' for Inactive)
REMARK    1  A    between atoms: CA_2  and  C_16
REMARK    2  A    between atoms: C_9  and  N_15
REMARK    3  A    between atoms: C_16  and  O_17
REMARK                            x       y       z     vdW  Elec       q    Type
REMARK                         _______ _______ _______ _____ _____    ______ ____
ROOT
ATOM      1  N   UNL     1      34.423 -24.758 -12.882  0.00  0.00    +0.390 N 
ATOM      2  CA  UNL     1      35.337 -23.690 -12.464  0.00  0.00    -0.027 C 
ATOM      3  C   UNL     1      36.307 -23.365 -13.611  0.00  0.00    +0.007 C 
ATOM      4  C   UNL     1      35.602 -23.175 -14.932  0.00  0.00    -0.030 C 
ATOM      5  C   UNL     1      34.296 -23.662 -15.114  0.00  0.00    -0.046 C 
ATOM      6  C   UNL     1      33.550 -24.300 -13.969  0.00  0.00    -0.054 C 
ATOM      7  C   UNL     1      36.270 -22.564 -16.001  0.00  0.00    -0.003 C 
ATOM      8  C   UNL     1      33.664 -23.495 -16.354  0.00  0.00    +0.017 C 
ATOM      9  C   UNL     1      34.333 -22.877 -17.410  0.00  0.00    +0.142 C 
ATOM     10  C   UNL     1      35.635 -22.414 -17.234  0.00  0.00    +0.024 C 
ATOM     11  H1  UNL     1      33.849 -25.038 -12.087  0.00  0.00    -0.084 HD
ATOM     12  H2  UNL     1      34.974 -25.548 -13.217  0.00  0.00    -0.084 HD
ENDROOT
BRANCH   9  15
ATOM     13  O   UNL     1      33.908 -23.553 -19.572  0.00  0.00    -0.126 OA
ATOM     14  O   UNL     1      32.909 -21.746 -18.827  0.00  0.00    -0.126 OA
ATOM     15  N   UNL     1      33.686 -22.717 -18.663  0.00  0.00    +0.058 N 
ENDBRANCH   9  15
BRANCH   2  16
ATOM     16  C   UNL     1      36.106 -24.131 -11.220  0.00  0.00    +0.116 C 
BRANCH  16  17
ATOM     17  O   UNL     1      35.292 -25.024 -10.483  0.00  0.00    -0.384 OA
ATOM     18  H   UNL     1      35.558 -25.010  -9.550  0.00  0.00    +0.210 HD
ENDBRANCH  16  17
ENDBRANCH   2  16
TORSDOF 3
ENDMDL
MODEL 8
REMARK VINA RESULT:      -7.3      5.908      8.242
REMARK  Name = 10822243
REMARK  3 active torsions:
REMARK  status: ('A' for Active; 'I' for Inactive)
REMARK    1  A    between atoms: CA_2  and  C_16
REMARK    2  A    between atoms: C_9  and  N_15
REMARK    3  A    between atoms: C_16  and  O_17
REMARK                            x       y       z     vdW  Elec       q    Type
REMARK                         _______ _______ _______ _____ _____    ______ ____
ROOT
ATOM      1  N   UNL     1      32.884 -23.158 -16.109  0.00  0.00    +0.390 N 
ATOM      2  CA  UNL     1      34.048 -23.394 -16.969  0.00  0.00    -0.027 C 
ATOM      3  C   UNL     1      35.310 -22.829 -16.296  0.00  0.00    +0.007 C 
ATOM      4  C   UNL     1      35.436 -23.252 -14.853  0.00  0.00    -0.030 C 
ATOM      5  C   UNL     1      34.315 -23.736 -14.155  0.00  0.00    -0.046 C 
ATOM      6  C   UNL     1      32.996 -23.922 -14.862  0.00  0.00    -0.054 C 
ATOM      7  C   UNL     1      36.659 -23.108 -14.185  0.00  0.00    -0.003 C 
ATOM      8  C   UNL     1      34.447 -24.105 -12.810  0.00  0.00    +0.017 C 
ATOM      9  C   UNL     1      35.671 -23.967 -12.156  0.00  0.00    +0.142 C 
ATOM     10  C   UNL     1      36.775 -23.468 -12.843  0.00  0.00    +0.024 C 
ATOM     11  H1  UNL     1      32.039 -23.444 -16.603  0.00  0.00    -0.084 HD
ATOM     12  H2  UNL     1      32.842 -22.165 -15.881  0.00  0.00    -0.084 HD
ENDROOT
BRANCH   9  15
ATOM     13  O   UNL     1      36.558 -23.680 -10.048  0.00  0.00    -0.126 OA
ATOM     14  O   UNL     1      35.130 -25.317 -10.366  0.00  0.00    -0.126 OA
ATOM     15  N   UNL     1      35.792 -24.339 -10.792  0.00  0.00    +0.058 N 
ENDBRANCH   9  15
BRANCH   2  16
ATOM     16  C   UNL     1      33.824 -22.733 -18.328  0.00  0.00    +0.116 C 
BRANCH  16  17
ATOM     17  O   UNL     1      33.851 -23.738 -19.325  0.00  0.00    -0.384 OA
ATOM     18  H   UNL     1      34.593 -24.340 -19.157  0.00  0.00    +0.210 HD
ENDBRANCH  16  17
ENDBRANCH   2  16
TORSDOF 3
ENDMDL
MODEL 9
REMARK VINA RESULT:      -7.3      4.036      7.228
REMARK  Name = 10822243
REMARK  3 active torsions:
REMARK  status: ('A' for Active; 'I' for Inactive)
REMARK    1  A    between atoms: CA_2  and  C_16
REMARK    2  A    between atoms: C_9  and  N_15
REMARK    3  A    between atoms: C_16  and  O_17
REMARK                            x       y       z     vdW  Elec       q    Type
REMARK                         _______ _______ _______ _____ _____    ______ ____
ROOT
ATOM      1  N   UNL     1      35.642 -16.787 -23.205  0.00  0.00    +0.390 N 
ATOM      2  CA  UNL     1      34.879 -17.677 -22.324  0.00  0.00    -0.027 C 
ATOM      3  C   UNL     1      34.413 -16.898 -21.083  0.00  0.00    +0.007 C 
ATOM      4  C   UNL     1      33.772 -15.578 -21.433  0.00  0.00    -0.030 C 
ATOM      5  C   UNL     1      33.985 -15.000 -22.697  0.00  0.00    -0.046 C 
ATOM      6  C   UNL     1      34.781 -15.730 -23.749  0.00  0.00    -0.054 C 
ATOM      7  C   UNL     1      33.009 -14.894 -20.478  0.00  0.00    -0.003 C 
ATOM      8  C   UNL     1      33.398 -13.763 -22.998  0.00  0.00    +0.017 C 
ATOM      9  C   UNL     1      32.632 -13.094 -22.043  0.00  0.00    +0.142 C 
ATOM     10  C   UNL     1      32.439 -13.659 -20.784  0.00  0.00    +0.024 C 
ATOM     11  H1  UNL     1      36.032 -17.331 -23.975  0.00  0.00    -0.084 HD
ATOM     12  H2  UNL     1      36.390 -16.353 -22.664  0.00  0.00    -0.084 HD
ENDROOT
BRANCH   9  15
ATOM     13  O   UNL     1      32.638 -11.075 -23.155  0.00  0.00    -0.126 OA
ATOM     14  O   UNL     1      30.951 -11.530 -21.826  0.00  0.00    -0.126 OA
ATOM     15  N   UNL     1      32.046 -11.840 -22.356  0.00  0.00    +0.058 N 
ENDBRANCH   9  15
BRANCH   2  16
ATOM     16  C   UNL     1      35.749 -18.865 -21.917  0.00  0.00    +0.116 C 
BRANCH  16  17
ATOM     17  O   UNL     1      36.153 -18.685 -20.572  0.00  0.00    -0.384 OA
ATOM     18  H   UNL     1      37.104 -18.497 -20.543  0.00  0.00    +0.210 HD
ENDBRANCH  16  17
ENDBRANCH   2  16
TORSDOF 3
ENDMDL
