MODEL 1
REMARK VINA RESULT:      -7.3      0.000      0.000
REMARK  Name = 3341
REMARK  4 active torsions:
REMARK  status: ('A' for Active; 'I' for Inactive)
REMARK    1  A    between atoms: C_3  and  C_15
REMARK    2  A    between atoms: C_11  and  O_23
REMARK    3  A    between atoms: C_12  and  O_25
REMARK    4  A    between atoms: C_20  and  O_21
REMARK                            x       y       z     vdW  Elec       q    Type
REMARK                         _______ _______ _______ _____ _____    ______ ____
ROOT
ATOM      1 CL   UNL     1      35.710 -16.407 -23.091  0.00  0.00    -0.079 Cl
ATOM      2  N   UNL     1      32.261 -12.807 -21.020  0.00  0.00    +0.384 N 
ATOM      3  C   UNL     1      32.144 -12.451 -23.544  0.00  0.00    +0.023 C 
ATOM      4  C   UNL     1      32.856 -13.693 -24.079  0.00  0.00    -0.021 C 
ATOM      5  C   UNL     1      31.419 -12.796 -22.217  0.00  0.00    -0.073 C 
ATOM      6  C   UNL     1      33.852 -14.372 -23.347  0.00  0.00    -0.014 C 
ATOM      7  C   UNL     1      34.284 -13.923 -21.973  0.00  0.00    +0.004 C 
ATOM      8  C   UNL     1      33.156 -13.959 -20.945  0.00  0.00    -0.077 C 
ATOM      9  C   UNL     1      32.506 -14.169 -25.358  0.00  0.00    +0.035 C 
ATOM     10  C   UNL     1      34.473 -15.498 -23.916  0.00  0.00    +0.090 C 
ATOM     11  C   UNL     1      33.129 -15.290 -25.905  0.00  0.00    +0.168 C 
ATOM     12  C   UNL     1      34.114 -15.954 -25.184  0.00  0.00    +0.178 C 
ATOM     13  H   UNL     1      31.656 -12.815 -20.199  0.00  0.00    -0.084 HD
ATOM     14  H   UNL     1      32.849 -11.974 -21.061  0.00  0.00    -0.084 HD
ENDROOT
BRANCH   3  15
ATOM     15  C   UNL     1      32.974 -11.162 -23.556  0.00  0.00    -0.020 C 
ATOM     16  C   UNL     1      32.561 -10.064 -22.805  0.00  0.00    -0.001 C 
ATOM     17  C   UNL     1      34.138 -11.094 -24.317  0.00  0.00    -0.001 C 
ATOM     18  C   UNL     1      33.316  -8.891 -22.816  0.00  0.00    +0.036 C 
ATOM     19  C   UNL     1      34.894  -9.921 -24.328  0.00  0.00    +0.036 C 
ATOM     20  C   UNL     1      34.482  -8.820 -23.577  0.00  0.00    +0.134 C 
BRANCH  20  21
ATOM     21  O   UNL     1      35.219  -7.675 -23.586  0.00  0.00    -0.506 OA
ATOM     22  H   UNL     1      36.149  -7.715 -23.473  0.00  0.00    +0.292 HD
ENDBRANCH  20  21
ENDBRANCH   3  15
BRANCH  11  23
ATOM     23  O   UNL     1      32.764 -15.719 -27.144  0.00  0.00    -0.503 OA
ATOM     24  H   UNL     1      32.509 -15.098 -27.798  0.00  0.00    +0.292 HD
ENDBRANCH  11  23
BRANCH  12  25
ATOM     25  O   UNL     1      34.710 -17.049 -25.741  0.00  0.00    -0.502 OA
ATOM     26  H   UNL     1      35.225 -16.957 -26.518  0.00  0.00    +0.292 HD
ENDBRANCH  12  25
TORSDOF 4
ENDMDL
MODEL 2
REMARK VINA RESULT:      -6.9      4.815      6.460
REMARK  Name = 3341
REMARK  4 active torsions:
REMARK  status: ('A' for Active; 'I' for Inactive)
REMARK    1  A    between atoms: C_3  and  C_15
REMARK    2  A    between atoms: C_11  and  O_23
REMARK    3  A    between atoms: C_12  and  O_25
REMARK    4  A    between atoms: C_20  and  O_21
REMARK                            x       y       z     vdW  Elec       q    Type
REMARK                         _______ _______ _______ _____ _____    ______ ____
ROOT
ATOM      1 CL   UNL     1      31.330 -12.055 -22.743  0.00  0.00    -0.079 Cl
ATOM      2  N   UNL     1      34.757  -8.228 -24.401  0.00  0.00    +0.384 N 
ATOM      3  C   UNL     1      33.593  -7.228 -22.362  0.00  0.00    +0.023 C 
ATOM      4  C   UNL     1      32.909  -8.449 -21.749  0.00  0.00    -0.021 C 
ATOM      5  C   UNL     1      34.909  -7.661 -23.060  0.00  0.00    -0.073 C 
ATOM      6  C   UNL     1      32.503  -9.559 -22.519  0.00  0.00    -0.014 C 
ATOM      7  C   UNL     1      32.722  -9.624 -24.010  0.00  0.00    +0.004 C 
ATOM      8  C   UNL     1      34.195  -9.577 -24.406  0.00  0.00    -0.077 C 
ATOM      9  C   UNL     1      32.670  -8.459 -20.360  0.00  0.00    +0.035 C 
ATOM     10  C   UNL     1      31.864 -10.638 -21.881  0.00  0.00    +0.090 C 
ATOM     11  C   UNL     1      32.039  -9.538 -19.745  0.00  0.00    +0.168 C 
ATOM     12  C   UNL     1      31.635 -10.628 -20.506  0.00  0.00    +0.178 C 
ATOM     13  H   UNL     1      35.676  -8.261 -24.844  0.00  0.00    -0.084 HD
ATOM     14  H   UNL     1      34.103  -7.630 -24.906  0.00  0.00    -0.084 HD
ENDROOT
BRANCH   3  15
ATOM     15  C   UNL     1      32.674  -6.291 -23.155  0.00  0.00    -0.020 C 
ATOM     16  C   UNL     1      31.590  -5.684 -22.524  0.00  0.00    -0.001 C 
ATOM     17  C   UNL     1      32.926  -6.050 -24.503  0.00  0.00    -0.001 C 
ATOM     18  C   UNL     1      30.755  -4.831 -23.245  0.00  0.00    +0.036 C 
ATOM     19  C   UNL     1      32.090  -5.197 -25.225  0.00  0.00    +0.036 C 
ATOM     20  C   UNL     1      31.005  -4.588 -24.596  0.00  0.00    +0.134 C 
BRANCH  20  21
ATOM     21  O   UNL     1      30.189  -3.755 -25.299  0.00  0.00    -0.506 OA
ATOM     22  H   UNL     1      30.548  -3.188 -25.953  0.00  0.00    +0.292 HD
ENDBRANCH  20  21
ENDBRANCH   3  15
BRANCH  11  23
ATOM     23  O   UNL     1      31.825  -9.509 -18.401  0.00  0.00    -0.503 OA
ATOM     24  H   UNL     1      31.230 -10.118 -18.009  0.00  0.00    +0.292 HD
ENDBRANCH  11  23
BRANCH  12  25
ATOM     25  O   UNL     1      31.019 -11.674 -19.881  0.00  0.00    -0.502 OA
ATOM     26  H   UNL     1      30.336 -11.513 -19.261  0.00  0.00    +0.292 HD
ENDBRANCH  12  25
TORSDOF 4
ENDMDL
MODEL 3
REMARK VINA RESULT:      -6.8      2.807      6.057
REMARK  Name = 3341
REMARK  4 active torsions:
REMARK  status: ('A' for Active; 'I' for Inactive)
REMARK    1  A    between atoms: C_3  and  C_15
REMARK    2  A    between atoms: C_11  and  O_23
REMARK    3  A    between atoms: C_12  and  O_25
REMARK    4  A    between atoms: C_20  and  O_21
REMARK                            x       y       z     vdW  Elec       q    Type
REMARK                         _______ _______ _______ _____ _____    ______ ____
ROOT
ATOM      1 CL   UNL     1      34.940  -9.269 -24.308  0.00  0.00    -0.079 Cl
ATOM      2  N   UNL     1      33.290 -13.709 -26.897  0.00  0.00    +0.384 N 
ATOM      3  C   UNL     1      32.460 -13.999 -24.501  0.00  0.00    +0.023 C 
ATOM      4  C   UNL     1      32.648 -12.598 -23.922  0.00  0.00    -0.021 C 
ATOM      5  C   UNL     1      32.137 -13.899 -26.015  0.00  0.00    -0.073 C 
ATOM      6  C   UNL     1      33.636 -11.708 -24.393  0.00  0.00    -0.014 C 
ATOM      7  C   UNL     1      34.577 -12.074 -25.513  0.00  0.00    +0.004 C 
ATOM      8  C   UNL     1      33.862 -12.367 -26.830  0.00  0.00    -0.077 C 
ATOM      9  C   UNL     1      31.806 -12.186 -22.870  0.00  0.00    +0.035 C 
ATOM     10  C   UNL     1      33.757 -10.440 -23.795  0.00  0.00    +0.090 C 
ATOM     11  C   UNL     1      31.938 -10.925 -22.292  0.00  0.00    +0.168 C 
ATOM     12  C   UNL     1      32.914 -10.052 -22.755  0.00  0.00    +0.178 C 
ATOM     13  H   UNL     1      32.995 -13.886 -27.857  0.00  0.00    -0.084 HD
ATOM     14  H   UNL     1      34.013 -14.358 -26.587  0.00  0.00    -0.084 HD
ENDROOT
BRANCH   3  15
ATOM     15  C   UNL     1      33.523 -15.026 -24.094  0.00  0.00    -0.020 C 
ATOM     16  C   UNL     1      34.078 -14.982 -22.817  0.00  0.00    -0.001 C 
ATOM     17  C   UNL     1      33.930 -16.000 -25.003  0.00  0.00    -0.001 C 
ATOM     18  C   UNL     1      35.044 -15.916 -22.447  0.00  0.00    +0.036 C 
ATOM     19  C   UNL     1      34.898 -16.935 -24.633  0.00  0.00    +0.036 C 
ATOM     20  C   UNL     1      35.454 -16.893 -23.355  0.00  0.00    +0.134 C 
BRANCH  20  21
ATOM     21  O   UNL     1      36.398 -17.805 -22.992  0.00  0.00    -0.506 OA
ATOM     22  H   UNL     1      36.605 -17.930 -22.087  0.00  0.00    +0.292 HD
ENDBRANCH  20  21
ENDBRANCH   3  15
BRANCH  11  23
ATOM     23  O   UNL     1      31.105 -10.565 -21.277  0.00  0.00    -0.503 OA
ATOM     24  H   UNL     1      31.154 -11.008 -20.452  0.00  0.00    +0.292 HD
ENDBRANCH  11  23
BRANCH  12  25
ATOM     25  O   UNL     1      33.024  -8.821 -22.172  0.00  0.00    -0.502 OA
ATOM     26  H   UNL     1      33.462  -8.127 -22.624  0.00  0.00    +0.292 HD
ENDBRANCH  12  25
TORSDOF 4
ENDMDL
MODEL 4
REMARK VINA RESULT:      -6.7      0.770      1.326
REMARK  Name = 3341
REMARK  4 active torsions:
REMARK  status: ('A' for Active; 'I' for Inactive)
REMARK    1  A    between atoms: C_3  and  C_15
REMARK    2  A    between atoms: C_11  and  O_23
REMARK    3  A    between atoms: C_12  and  O_25
REMARK    4  A    between atoms: C_20  and  O_21
REMARK                            x       y       z     vdW  Elec       q    Type
REMARK                         _______ _______ _______ _____ _____    ______ ____
ROOT
ATOM      1 CL   UNL     1      35.214 -15.999 -21.736  0.00  0.00    -0.079 Cl
ATOM      2  N   UNL     1      31.563 -12.077 -21.078  0.00  0.00    +0.384 N 
ATOM      3  C   UNL     1      32.108 -12.055 -23.570  0.00  0.00    +0.023 C 
ATOM      4  C   UNL     1      32.860 -13.373 -23.748  0.00  0.00    -0.021 C 
ATOM      5  C   UNL     1      31.053 -12.204 -22.443  0.00  0.00    -0.073 C 
ATOM      6  C   UNL     1      33.599 -13.972 -22.707  0.00  0.00    -0.014 C 
ATOM      7  C   UNL     1      33.694 -13.356 -21.334  0.00  0.00    +0.004 C 
ATOM      8  C   UNL     1      32.343 -13.230 -20.634  0.00  0.00    -0.077 C 
ATOM      9  C   UNL     1      32.819 -14.005 -25.007  0.00  0.00    +0.035 C 
ATOM     10  C   UNL     1      34.279 -15.178 -22.956  0.00  0.00    +0.090 C 
ATOM     11  C   UNL     1      33.496 -15.202 -25.234  0.00  0.00    +0.168 C 
ATOM     12  C   UNL     1      34.227 -15.789 -24.208  0.00  0.00    +0.178 C 
ATOM     13  H   UNL     1      30.770 -11.963 -20.446  0.00  0.00    -0.084 HD
ATOM     14  H   UNL     1      32.188 -11.271 -21.067  0.00  0.00    -0.084 HD
ENDROOT
BRANCH   3  15
ATOM     15  C   UNL     1      32.986 -10.798 -23.524  0.00  0.00    -0.020 C 
ATOM     16  C   UNL     1      34.171 -10.752 -24.255  0.00  0.00    -0.001 C 
ATOM     17  C   UNL     1      32.595  -9.707 -22.752  0.00  0.00    -0.001 C 
ATOM     18  C   UNL     1      34.970  -9.610 -24.213  0.00  0.00    +0.036 C 
ATOM     19  C   UNL     1      33.394  -8.563 -22.710  0.00  0.00    +0.036 C 
ATOM     20  C   UNL     1      34.580  -8.516 -23.440  0.00  0.00    +0.134 C 
BRANCH  20  21
ATOM     21  O   UNL     1      35.360  -7.400 -23.400  0.00  0.00    -0.506 OA
ATOM     22  H   UNL     1      36.087  -7.315 -23.986  0.00  0.00    +0.292 HD
ENDBRANCH  20  21
ENDBRANCH   3  15
BRANCH  11  23
ATOM     23  O   UNL     1      33.432 -15.783 -26.464  0.00  0.00    -0.503 OA
ATOM     24  H   UNL     1      34.202 -15.841 -26.994  0.00  0.00    +0.292 HD
ENDBRANCH  11  23
BRANCH  12  25
ATOM     25  O   UNL     1      34.881 -16.961 -24.455  0.00  0.00    -0.502 OA
ATOM     26  H   UNL     1      34.848 -17.346 -25.309  0.00  0.00    +0.292 HD
ENDBRANCH  12  25
TORSDOF 4
ENDMDL
MODEL 5
REMARK VINA RESULT:      -6.6      4.219      7.653
REMARK  Name = 3341
REMARK  4 active torsions:
REMARK  status: ('A' for Active; 'I' for Inactive)
REMARK    1  A    between atoms: C_3  and  C_15
REMARK    2  A    between atoms: C_11  and  O_23
REMARK    3  A    between atoms: C_12  and  O_25
REMARK    4  A    between atoms: C_20  and  O_21
REMARK                            x       y       z     vdW  Elec       q    Type
REMARK                         _______ _______ _______ _____ _____    ______ ____
ROOT
ATOM      1 CL   UNL     1      30.432  -4.741 -25.148  0.00  0.00    -0.079 Cl
ATOM      2  N   UNL     1      32.346  -7.243 -20.764  0.00  0.00    +0.384 N 
ATOM      3  C   UNL     1      33.906  -7.949 -22.657  0.00  0.00    +0.023 C 
ATOM      4  C   UNL     1      33.535  -6.966 -23.765  0.00  0.00    -0.021 C 
ATOM      5  C   UNL     1      33.718  -7.272 -21.273  0.00  0.00    -0.073 C 
ATOM      6  C   UNL     1      32.252  -6.391 -23.872  0.00  0.00    -0.014 C 
ATOM      7  C   UNL     1      31.150  -6.701 -22.890  0.00  0.00    +0.004 C 
ATOM      8  C   UNL     1      31.484  -6.290 -21.458  0.00  0.00    -0.077 C 
ATOM      9  C   UNL     1      34.513  -6.631 -24.722  0.00  0.00    +0.035 C 
ATOM     10  C   UNL     1      31.983  -5.507 -24.933  0.00  0.00    +0.090 C 
ATOM     11  C   UNL     1      34.231  -5.750 -25.764  0.00  0.00    +0.168 C 
ATOM     12  C   UNL     1      32.965  -5.188 -25.870  0.00  0.00    +0.178 C 
ATOM     13  H   UNL     1      32.374  -6.992 -19.776  0.00  0.00    -0.084 HD
ATOM     14  H   UNL     1      31.951  -8.171 -20.919  0.00  0.00    -0.084 HD
ENDROOT
BRANCH   3  15
ATOM     15  C   UNL     1      33.330  -9.362 -22.811  0.00  0.00    -0.020 C 
ATOM     16  C   UNL     1      32.264  -9.768 -22.012  0.00  0.00    -0.001 C 
ATOM     17  C   UNL     1      33.874 -10.234 -23.751  0.00  0.00    -0.001 C 
ATOM     18  C   UNL     1      31.740 -11.052 -22.152  0.00  0.00    +0.036 C 
ATOM     19  C   UNL     1      33.350 -11.520 -23.891  0.00  0.00    +0.036 C 
ATOM     20  C   UNL     1      32.283 -11.928 -23.092  0.00  0.00    +0.134 C 
BRANCH  20  21
ATOM     21  O   UNL     1      31.770 -13.182 -23.229  0.00  0.00    -0.506 OA
ATOM     22  H   UNL     1      31.623 -13.714 -22.472  0.00  0.00    +0.292 HD
ENDBRANCH  20  21
ENDBRANCH   3  15
BRANCH  11  23
ATOM     23  O   UNL     1      35.203  -5.451 -26.669  0.00  0.00    -0.503 OA
ATOM     24  H   UNL     1      35.006  -5.452 -27.585  0.00  0.00    +0.292 HD
ENDBRANCH  11  23
BRANCH  12  25
ATOM     25  O   UNL     1      32.711  -4.328 -26.900  0.00  0.00    -0.502 OA
ATOM     26  H   UNL     1      33.344  -3.677 -27.133  0.00  0.00    +0.292 HD
ENDBRANCH  12  25
TORSDOF 4
ENDMDL
MODEL 6
REMARK VINA RESULT:      -6.3      2.988      6.025
REMARK  Name = 3341
REMARK  4 active torsions:
REMARK  status: ('A' for Active; 'I' for Inactive)
REMARK    1  A    between atoms: C_3  and  C_15
REMARK    2  A    between atoms: C_11  and  O_23
REMARK    3  A    between atoms: C_12  and  O_25
REMARK    4  A    between atoms: C_20  and  O_21
REMARK                            x       y       z     vdW  Elec       q    Type
REMARK                         _______ _______ _______ _____ _____    ______ ____
ROOT
ATOM      1 CL   UNL     1      35.197  -9.130 -24.492  0.00  0.00    -0.079 Cl
ATOM      2  N   UNL     1      32.875 -13.890 -25.539  0.00  0.00    +0.384 N 
ATOM      3  C   UNL     1      32.119 -13.297 -23.175  0.00  0.00    +0.023 C 
ATOM      4  C   UNL     1      32.512 -11.824 -23.070  0.00  0.00    -0.021 C 
ATOM      5  C   UNL     1      31.747 -13.635 -24.642  0.00  0.00    -0.073 C 
ATOM      6  C   UNL     1      33.585 -11.270 -23.799  0.00  0.00    -0.014 C 
ATOM      7  C   UNL     1      34.421 -12.095 -24.745  0.00  0.00    +0.004 C 
ATOM      8  C   UNL     1      33.619 -12.686 -25.901  0.00  0.00    -0.077 C 
ATOM      9  C   UNL     1      31.777 -10.992 -22.202  0.00  0.00    +0.035 C 
ATOM     10  C   UNL     1      33.895  -9.908 -23.634  0.00  0.00    +0.090 C 
ATOM     11  C   UNL     1      32.096  -9.644 -22.054  0.00  0.00    +0.168 C 
ATOM     12  C   UNL     1      33.156  -9.102 -22.769  0.00  0.00    +0.178 C 
ATOM     13  H   UNL     1      32.518 -14.317 -26.394  0.00  0.00    -0.084 HD
ATOM     14  H   UNL     1      33.521 -14.501 -25.039  0.00  0.00    -0.084 HD
ENDROOT
BRANCH   3  15
ATOM     15  C   UNL     1      33.057 -14.279 -22.463  0.00  0.00    -0.020 C 
ATOM     16  C   UNL     1      33.258 -14.175 -21.088  0.00  0.00    -0.001 C 
ATOM     17  C   UNL     1      33.704 -15.272 -23.193  0.00  0.00    -0.001 C 
ATOM     18  C   UNL     1      34.111 -15.068 -20.441  0.00  0.00    +0.036 C 
ATOM     19  C   UNL     1      34.558 -16.167 -22.546  0.00  0.00    +0.036 C 
ATOM     20  C   UNL     1      34.761 -16.064 -21.170  0.00  0.00    +0.134 C 
BRANCH  20  21
ATOM     21  O   UNL     1      35.593 -16.936 -20.537  0.00  0.00    -0.506 OA
ATOM     22  H   UNL     1      36.297 -17.338 -21.008  0.00  0.00    +0.292 HD
ENDBRANCH  20  21
ENDBRANCH   3  15
BRANCH  11  23
ATOM     23  O   UNL     1      31.361  -8.873 -21.205  0.00  0.00    -0.503 OA
ATOM     24  H   UNL     1      31.068  -9.226 -20.388  0.00  0.00    +0.292 HD
ENDBRANCH  11  23
BRANCH  12  25
ATOM     25  O   UNL     1      33.449  -7.778 -22.608  0.00  0.00    -0.502 OA
ATOM     26  H   UNL     1      33.021  -7.282 -21.938  0.00  0.00    +0.292 HD
ENDBRANCH  12  25
TORSDOF 4
ENDMDL
MODEL 7
REMARK VINA RESULT:      -6.2      5.689      7.376
REMARK  Name = 3341
REMARK  4 active torsions:
REMARK  status: ('A' for Active; 'I' for Inactive)
REMARK    1  A    between atoms: C_3  and  C_15
REMARK    2  A    between atoms: C_11  and  O_23
REMARK    3  A    between atoms: C_12  and  O_25
REMARK    4  A    between atoms: C_20  and  O_21
REMARK                            x       y       z     vdW  Elec       q    Type
REMARK                         _______ _______ _______ _____ _____    ______ ____
ROOT
ATOM      1 CL   UNL     1      32.697  -6.881 -19.588  0.00  0.00    -0.079 Cl
ATOM      2  N   UNL     1      30.788  -4.171 -23.849  0.00  0.00    +0.384 N 
ATOM      3  C   UNL     1      31.453  -6.457 -24.769  0.00  0.00    +0.023 C 
ATOM      4  C   UNL     1      31.654  -7.272 -23.492  0.00  0.00    -0.021 C 
ATOM      5  C   UNL     1      30.353  -5.387 -24.537  0.00  0.00    -0.073 C 
ATOM      6  C   UNL     1      32.043  -6.686 -22.270  0.00  0.00    -0.014 C 
ATOM      7  C   UNL     1      32.281  -5.204 -22.131  0.00  0.00    +0.004 C 
ATOM      8  C   UNL     1      31.040  -4.363 -22.423  0.00  0.00    -0.077 C 
ATOM      9  C   UNL     1      31.452  -8.666 -23.547  0.00  0.00    +0.035 C 
ATOM     10  C   UNL     1      32.224  -7.509 -21.143  0.00  0.00    +0.090 C 
ATOM     11  C   UNL     1      31.633  -9.464 -22.419  0.00  0.00    +0.168 C 
ATOM     12  C   UNL     1      32.020  -8.886 -21.217  0.00  0.00    +0.178 C 
ATOM     13  H   UNL     1      30.062  -3.462 -23.955  0.00  0.00    -0.084 HD
ATOM     14  H   UNL     1      31.672  -3.888 -24.273  0.00  0.00    -0.084 HD
ENDROOT
BRANCH   3  15
ATOM     15  C   UNL     1      32.740  -5.978 -25.452  0.00  0.00    -0.020 C 
ATOM     16  C   UNL     1      32.683  -4.964 -26.405  0.00  0.00    -0.001 C 
ATOM     17  C   UNL     1      33.960  -6.560 -25.118  0.00  0.00    -0.001 C 
ATOM     18  C   UNL     1      33.853  -4.529 -27.027  0.00  0.00    +0.036 C 
ATOM     19  C   UNL     1      35.131  -6.125 -25.740  0.00  0.00    +0.036 C 
ATOM     20  C   UNL     1      35.077  -5.110 -26.694  0.00  0.00    +0.134 C 
BRANCH  20  21
ATOM     21  O   UNL     1      36.219  -4.684 -27.302  0.00  0.00    -0.506 OA
ATOM     22  H   UNL     1      36.173  -4.220 -28.115  0.00  0.00    +0.292 HD
ENDBRANCH  20  21
ENDBRANCH   3  15
BRANCH  11  23
ATOM     23  O   UNL     1      31.428 -10.807 -22.512  0.00  0.00    -0.503 OA
ATOM     24  H   UNL     1      31.892 -11.308 -23.154  0.00  0.00    +0.292 HD
ENDBRANCH  11  23
BRANCH  12  25
ATOM     25  O   UNL     1      32.191  -9.689 -20.126  0.00  0.00    -0.502 OA
ATOM     26  H   UNL     1      31.492  -9.800 -19.511  0.00  0.00    +0.292 HD
ENDBRANCH  12  25
TORSDOF 4
ENDMDL
MODEL 8
REMARK VINA RESULT:      -6.1     13.751     15.932
REMARK  Name = 3341
REMARK  4 active torsions:
REMARK  status: ('A' for Active; 'I' for Inactive)
REMARK    1  A    between atoms: C_3  and  C_15
REMARK    2  A    between atoms: C_11  and  O_23
REMARK    3  A    between atoms: C_12  and  O_25
REMARK    4  A    between atoms: C_20  and  O_21
REMARK                            x       y       z     vdW  Elec       q    Type
REMARK                         _______ _______ _______ _____ _____    ______ ____
ROOT
ATOM      1 CL   UNL     1      37.341 -27.014 -14.353  0.00  0.00    -0.079 Cl
ATOM      2  N   UNL     1      34.405 -23.073 -16.585  0.00  0.00    +0.384 N 
ATOM      3  C   UNL     1      33.872 -22.957 -14.093  0.00  0.00    +0.023 C 
ATOM      4  C   UNL     1      34.962 -23.840 -13.488  0.00  0.00    -0.021 C 
ATOM      5  C   UNL     1      34.412 -22.260 -15.369  0.00  0.00    -0.073 C 
ATOM      6  C   UNL     1      35.557 -24.904 -14.196  0.00  0.00    -0.014 C 
ATOM      7  C   UNL     1      35.164 -25.245 -15.611  0.00  0.00    +0.004 C 
ATOM      8  C   UNL     1      35.430 -24.114 -16.600  0.00  0.00    -0.077 C 
ATOM      9  C   UNL     1      35.380 -23.582 -12.167  0.00  0.00    +0.035 C 
ATOM     10  C   UNL     1      36.543 -25.682 -13.562  0.00  0.00    +0.090 C 
ATOM     11  C   UNL     1      36.361 -24.361 -11.556  0.00  0.00    +0.168 C 
ATOM     12  C   UNL     1      36.943 -25.412 -12.254  0.00  0.00    +0.178 C 
ATOM     13  H   UNL     1      34.557 -22.459 -17.386  0.00  0.00    -0.084 HD
ATOM     14  H   UNL     1      33.500 -23.544 -16.624  0.00  0.00    -0.084 HD
ENDROOT
BRANCH   3  15
ATOM     15  C   UNL     1      32.486 -23.606 -14.202  0.00  0.00    -0.020 C 
ATOM     16  C   UNL     1      32.233 -24.813 -13.554  0.00  0.00    -0.001 C 
ATOM     17  C   UNL     1      31.487 -22.986 -14.947  0.00  0.00    -0.001 C 
ATOM     18  C   UNL     1      30.974 -25.403 -13.654  0.00  0.00    +0.036 C 
ATOM     19  C   UNL     1      30.226 -23.576 -15.047  0.00  0.00    +0.036 C 
ATOM     20  C   UNL     1      29.971 -24.785 -14.400  0.00  0.00    +0.134 C 
BRANCH  20  21
ATOM     21  O   UNL     1      28.741 -25.361 -14.495  0.00  0.00    -0.506 OA
ATOM     22  H   UNL     1      28.665 -26.285 -14.632  0.00  0.00    +0.292 HD
ENDBRANCH  20  21
ENDBRANCH   3  15
BRANCH  11  23
ATOM     23  O   UNL     1      36.737 -24.080 -10.278  0.00  0.00    -0.503 OA
ATOM     24  H   UNL     1      36.772 -23.191  -9.985  0.00  0.00    +0.292 HD
ENDBRANCH  11  23
BRANCH  12  25
ATOM     25  O   UNL     1      37.902 -26.161 -11.634  0.00  0.00    -0.502 OA
ATOM     26  H   UNL     1      37.654 -26.869 -11.074  0.00  0.00    +0.292 HD
ENDBRANCH  12  25
TORSDOF 4
ENDMDL
MODEL 9
REMARK VINA RESULT:      -6.0     12.378     14.597
REMARK  Name = 3341
REMARK  4 active torsions:
REMARK  status: ('A' for Active; 'I' for Inactive)
REMARK    1  A    between atoms: C_3  and  C_15
REMARK    2  A    between atoms: C_11  and  O_23
REMARK    3  A    between atoms: C_12  and  O_25
REMARK    4  A    between atoms: C_20  and  O_21
REMARK                            x       y       z     vdW  Elec       q    Type
REMARK                         _______ _______ _______ _____ _____    ______ ____
ROOT
ATOM      1 CL   UNL     1      38.333 -23.646 -12.046  0.00  0.00    -0.079 Cl
ATOM      2  N   UNL     1      33.269 -23.319 -13.886  0.00  0.00    +0.384 N 
ATOM      3  C   UNL     1      34.495 -24.769 -15.591  0.00  0.00    +0.023 C 
ATOM      4  C   UNL     1      35.792 -25.103 -14.858  0.00  0.00    -0.021 C 
ATOM      5  C   UNL     1      33.341 -24.613 -14.566  0.00  0.00    -0.073 C 
ATOM      6  C   UNL     1      36.355 -24.253 -13.883  0.00  0.00    -0.014 C 
ATOM      7  C   UNL     1      35.708 -22.949 -13.487  0.00  0.00    +0.004 C 
ATOM      8  C   UNL     1      34.316 -23.124 -12.886  0.00  0.00    -0.077 C 
ATOM      9  C   UNL     1      36.455 -26.305 -15.178  0.00  0.00    +0.035 C 
ATOM     10  C   UNL     1      37.563 -24.624 -13.264  0.00  0.00    +0.090 C 
ATOM     11  C   UNL     1      37.649 -26.658 -14.552  0.00  0.00    +0.168 C 
ATOM     12  C   UNL     1      38.203 -25.817 -13.595  0.00  0.00    +0.178 C 
ATOM     13  H   UNL     1      32.363 -23.247 -13.423  0.00  0.00    -0.084 HD
ATOM     14  H   UNL     1      33.399 -22.600 -14.599  0.00  0.00    -0.084 HD
ENDROOT
BRANCH   3  15
ATOM     15  C   UNL     1      34.609 -23.680 -16.665  0.00  0.00    -0.020 C 
ATOM     16  C   UNL     1      35.785 -22.944 -16.784  0.00  0.00    -0.001 C 
ATOM     17  C   UNL     1      33.536 -23.431 -17.517  0.00  0.00    -0.001 C 
ATOM     18  C   UNL     1      35.889 -21.953 -17.760  0.00  0.00    +0.036 C 
ATOM     19  C   UNL     1      33.639 -22.440 -18.494  0.00  0.00    +0.036 C 
ATOM     20  C   UNL     1      34.816 -21.702 -18.615  0.00  0.00    +0.134 C 
BRANCH  20  21
ATOM     21  O   UNL     1      34.919 -20.735 -19.568  0.00  0.00    -0.506 OA
ATOM     22  H   UNL     1      34.765 -20.946 -20.468  0.00  0.00    +0.292 HD
ENDBRANCH  20  21
ENDBRANCH   3  15
BRANCH  11  23
ATOM     23  O   UNL     1      38.259 -27.828 -14.889  0.00  0.00    -0.503 OA
ATOM     24  H   UNL     1      37.786 -28.635 -14.838  0.00  0.00    +0.292 HD
ENDBRANCH  11  23
BRANCH  12  25
ATOM     25  O   UNL     1      39.374 -26.185 -12.996  0.00  0.00    -0.502 OA
ATOM     26  H   UNL     1      40.035 -25.543 -12.826  0.00  0.00    +0.292 HD
ENDBRANCH  12  25
TORSDOF 4
ENDMDL
