MODEL 1
REMARK VINA RESULT:      -6.8      0.000      0.000
REMARK  Name = 439781
REMARK  5 active torsions:
REMARK  status: ('A' for Active; 'I' for Inactive)
REMARK    1  A    between atoms: C_3  and  O_8
REMARK    2  A    between atoms: C_4  and  O_10
REMARK    3  A    between atoms: C_5  and  C_14
REMARK    4  A    between atoms: C_6  and  O_12
REMARK    5  A    between atoms: C_14  and  O_15
REMARK                            x       y       z     vdW  Elec       q    Type
REMARK                         _______ _______ _______ _____ _____    ______ ____
ROOT
ATOM      1  O   UNL     1      39.016 -24.689 -12.955  0.00  0.00    -0.445 OA
ATOM      2  O   UNL     1      37.816 -24.133 -11.130  0.00  0.00    -0.247 OA
ATOM      3  C   UNL     1      38.010 -25.905 -14.856  0.00  0.00    +0.183 C 
ATOM      4  C   UNL     1      36.807 -26.172 -13.963  0.00  0.00    +0.179 C 
ATOM      5  C   UNL     1      39.231 -25.704 -13.966  0.00  0.00    +0.227 C 
ATOM      6  C   UNL     1      36.597 -25.007 -13.011  0.00  0.00    +0.239 C 
ATOM      7  C   UNL     1      37.852 -24.609 -12.262  0.00  0.00    +0.347 C 
ENDROOT
BRANCH   3   8
ATOM      8  O   UNL     1      37.792 -24.730 -15.638  0.00  0.00    -0.378 OA
ATOM      9  H   UNL     1      38.603 -24.195 -15.650  0.00  0.00    +0.211 HD
ENDBRANCH   3   8
BRANCH   4  10
ATOM     10  O   UNL     1      35.655 -26.340 -14.785  0.00  0.00    -0.379 OA
ATOM     11  H   UNL     1      35.102 -27.051 -14.424  0.00  0.00    +0.211 HD
ENDBRANCH   4  10
BRANCH   6  12
ATOM     12  O   UNL     1      35.609 -25.376 -12.059  0.00  0.00    -0.373 OA
ATOM     13  H   UNL     1      35.743 -26.299 -11.794  0.00  0.00    +0.211 HD
ENDBRANCH   6  12
BRANCH   5  14
ATOM     14  C   UNL     1      40.471 -25.295 -14.755  0.00  0.00    +0.184 C 
BRANCH  14  15
ATOM     15  O   UNL     1      40.424 -25.920 -16.025  0.00  0.00    -0.378 OA
ATOM     16  H   UNL     1      40.514 -26.880 -15.916  0.00  0.00    +0.211 HD
ENDBRANCH  14  15
ENDBRANCH   5  14
TORSDOF 5
ENDMDL
MODEL 2
REMARK VINA RESULT:      -6.5      1.239      3.676
REMARK  Name = 439781
REMARK  5 active torsions:
REMARK  status: ('A' for Active; 'I' for Inactive)
REMARK    1  A    between atoms: C_3  and  O_8
REMARK    2  A    between atoms: C_4  and  O_10
REMARK    3  A    between atoms: C_5  and  C_14
REMARK    4  A    between atoms: C_6  and  O_12
REMARK    5  A    between atoms: C_14  and  O_15
REMARK                            x       y       z     vdW  Elec       q    Type
REMARK                         _______ _______ _______ _____ _____    ______ ____
ROOT
ATOM      1  O   UNL     1      38.552 -24.707 -12.702  0.00  0.00    -0.445 OA
ATOM      2  O   UNL     1      40.622 -24.657 -13.594  0.00  0.00    -0.247 OA
ATOM      3  C   UNL     1      36.654 -25.770 -13.871  0.00  0.00    +0.183 C 
ATOM      4  C   UNL     1      37.534 -25.824 -15.111  0.00  0.00    +0.179 C 
ATOM      5  C   UNL     1      37.136 -24.622 -12.993  0.00  0.00    +0.227 C 
ATOM      6  C   UNL     1      38.986 -26.021 -14.712  0.00  0.00    +0.239 C 
ATOM      7  C   UNL     1      39.457 -25.043 -13.656  0.00  0.00    +0.347 C 
ENDROOT
BRANCH   3   8
ATOM      8  O   UNL     1      36.748 -26.997 -13.146  0.00  0.00    -0.378 OA
ATOM      9  H   UNL     1      35.987 -27.560 -13.365  0.00  0.00    +0.211 HD
ENDBRANCH   3   8
BRANCH   4  10
ATOM     10  O   UNL     1      37.105 -26.909 -15.930  0.00  0.00    -0.379 OA
ATOM     11  H   UNL     1      36.194 -27.149 -15.697  0.00  0.00    +0.211 HD
ENDBRANCH   4  10
BRANCH   6  12
ATOM     12  O   UNL     1      39.798 -25.857 -15.866  0.00  0.00    -0.373 OA
ATOM     13  H   UNL     1      39.677 -26.616 -16.457  0.00  0.00    +0.211 HD
ENDBRANCH   6  12
BRANCH   5  14
ATOM     14  C   UNL     1      36.407 -24.561 -11.654  0.00  0.00    +0.184 C 
BRANCH  14  15
ATOM     15  O   UNL     1      35.074 -25.000 -11.846  0.00  0.00    -0.378 OA
ATOM     16  H   UNL     1      34.463 -24.271 -11.656  0.00  0.00    +0.211 HD
ENDBRANCH  14  15
ENDBRANCH   5  14
TORSDOF 5
ENDMDL
MODEL 3
REMARK VINA RESULT:      -6.4      1.922      2.552
REMARK  Name = 439781
REMARK  5 active torsions:
REMARK  status: ('A' for Active; 'I' for Inactive)
REMARK    1  A    between atoms: C_3  and  O_8
REMARK    2  A    between atoms: C_4  and  O_10
REMARK    3  A    between atoms: C_5  and  C_14
REMARK    4  A    between atoms: C_6  and  O_12
REMARK    5  A    between atoms: C_14  and  O_15
REMARK                            x       y       z     vdW  Elec       q    Type
REMARK                         _______ _______ _______ _____ _____    ______ ____
ROOT
ATOM      1  O   UNL     1      38.816 -23.885 -15.329  0.00  0.00    -0.445 OA
ATOM      2  O   UNL     1      37.803 -21.956 -15.908  0.00  0.00    -0.247 OA
ATOM      3  C   UNL     1      37.535 -25.840 -14.529  0.00  0.00    +0.183 C 
ATOM      4  C   UNL     1      36.333 -24.917 -14.401  0.00  0.00    +0.179 C 
ATOM      5  C   UNL     1      38.800 -24.999 -14.403  0.00  0.00    +0.227 C 
ATOM      6  C   UNL     1      36.381 -23.847 -15.479  0.00  0.00    +0.239 C 
ATOM      7  C   UNL     1      37.712 -23.129 -15.554  0.00  0.00    +0.347 C 
ENDROOT
BRANCH   3   8
ATOM      8  O   UNL     1      37.523 -26.494 -15.799  0.00  0.00    -0.378 OA
ATOM      9  H   UNL     1      37.467 -27.454 -15.667  0.00  0.00    +0.211 HD
ENDBRANCH   3   8
BRANCH   4  10
ATOM     10  O   UNL     1      35.144 -25.691 -14.540  0.00  0.00    -0.379 OA
ATOM     11  H   UNL     1      35.293 -26.398 -15.188  0.00  0.00    +0.211 HD
ENDBRANCH   4  10
BRANCH   6  12
ATOM     12  O   UNL     1      35.370 -22.886 -15.206  0.00  0.00    -0.373 OA
ATOM     13  H   UNL     1      35.499 -22.112 -15.776  0.00  0.00    +0.211 HD
ENDBRANCH   6  12
BRANCH   5  14
ATOM     14  C   UNL     1      40.070 -25.807 -14.652  0.00  0.00    +0.184 C 
BRANCH  14  15
ATOM     15  O   UNL     1      40.319 -25.836 -16.045  0.00  0.00    -0.378 OA
ATOM     16  H   UNL     1      40.901 -25.098 -16.285  0.00  0.00    +0.211 HD
ENDBRANCH  14  15
ENDBRANCH   5  14
TORSDOF 5
ENDMDL
MODEL 4
REMARK VINA RESULT:      -6.3      1.331      3.353
REMARK  Name = 439781
REMARK  5 active torsions:
REMARK  status: ('A' for Active; 'I' for Inactive)
REMARK    1  A    between atoms: C_3  and  O_8
REMARK    2  A    between atoms: C_4  and  O_10
REMARK    3  A    between atoms: C_5  and  C_14
REMARK    4  A    between atoms: C_6  and  O_12
REMARK    5  A    between atoms: C_14  and  O_15
REMARK                            x       y       z     vdW  Elec       q    Type
REMARK                         _______ _______ _______ _____ _____    ______ ____
ROOT
ATOM      1  O   UNL     1      38.567 -24.995 -13.350  0.00  0.00    -0.445 OA
ATOM      2  O   UNL     1      39.611 -26.487 -14.679  0.00  0.00    -0.247 OA
ATOM      3  C   UNL     1      36.136 -24.589 -13.505  0.00  0.00    +0.183 C 
ATOM      4  C   UNL     1      36.155 -25.378 -14.806  0.00  0.00    +0.179 C 
ATOM      5  C   UNL     1      37.522 -23.994 -13.287  0.00  0.00    +0.227 C 
ATOM      6  C   UNL     1      37.207 -26.471 -14.737  0.00  0.00    +0.239 C 
ATOM      7  C   UNL     1      38.566 -25.970 -14.294  0.00  0.00    +0.347 C 
ENDROOT
BRANCH   3   8
ATOM      8  O   UNL     1      35.808 -25.447 -12.412  0.00  0.00    -0.378 OA
ATOM      9  H   UNL     1      36.236 -26.310 -12.539  0.00  0.00    +0.211 HD
ENDBRANCH   3   8
BRANCH   4  10
ATOM     10  O   UNL     1      34.868 -25.957 -15.009  0.00  0.00    -0.379 OA
ATOM     11  H   UNL     1      34.704 -26.628 -14.327  0.00  0.00    +0.211 HD
ENDBRANCH   4  10
BRANCH   6  12
ATOM     12  O   UNL     1      37.344 -27.047 -16.029  0.00  0.00    -0.373 OA
ATOM     13  H   UNL     1      36.496 -27.429 -16.304  0.00  0.00    +0.211 HD
ENDBRANCH   6  12
BRANCH   5  14
ATOM     14  C   UNL     1      37.654 -23.292 -11.939  0.00  0.00    +0.184 C 
BRANCH  14  15
ATOM     15  O   UNL     1      39.031 -23.140 -11.644  0.00  0.00    -0.378 OA
ATOM     16  H   UNL     1      39.198 -22.233 -11.341  0.00  0.00    +0.211 HD
ENDBRANCH  14  15
ENDBRANCH   5  14
TORSDOF 5
ENDMDL
MODEL 5
REMARK VINA RESULT:      -6.3      1.352      4.353
REMARK  Name = 439781
REMARK  5 active torsions:
REMARK  status: ('A' for Active; 'I' for Inactive)
REMARK    1  A    between atoms: C_3  and  O_8
REMARK    2  A    between atoms: C_4  and  O_10
REMARK    3  A    between atoms: C_5  and  C_14
REMARK    4  A    between atoms: C_6  and  O_12
REMARK    5  A    between atoms: C_14  and  O_15
REMARK                            x       y       z     vdW  Elec       q    Type
REMARK                         _______ _______ _______ _____ _____    ______ ____
ROOT
ATOM      1  O   UNL     1      35.925 -25.226 -13.544  0.00  0.00    -0.445 OA
ATOM      2  O   UNL     1      35.997 -26.252 -15.550  0.00  0.00    -0.247 OA
ATOM      3  C   UNL     1      37.974 -24.454 -12.401  0.00  0.00    +0.183 C 
ATOM      4  C   UNL     1      38.766 -25.265 -13.416  0.00  0.00    +0.179 C 
ATOM      5  C   UNL     1      36.590 -25.079 -12.266  0.00  0.00    +0.227 C 
ATOM      6  C   UNL     1      38.044 -25.274 -14.752  0.00  0.00    +0.239 C 
ATOM      7  C   UNL     1      36.585 -25.666 -14.645  0.00  0.00    +0.347 C 
ENDROOT
BRANCH   3   8
ATOM      8  O   UNL     1      37.845 -23.102 -12.841  0.00  0.00    -0.378 OA
ATOM      9  H   UNL     1      38.039 -22.503 -12.102  0.00  0.00    +0.211 HD
ENDBRANCH   3   8
BRANCH   4  10
ATOM     10  O   UNL     1      40.055 -24.676 -13.566  0.00  0.00    -0.379 OA
ATOM     11  H   UNL     1      40.413 -24.456 -12.691  0.00  0.00    +0.211 HD
ENDBRANCH   4  10
BRANCH   6  12
ATOM     12  O   UNL     1      38.694 -26.202 -15.610  0.00  0.00    -0.373 OA
ATOM     13  H   UNL     1      38.194 -26.282 -16.437  0.00  0.00    +0.211 HD
ENDBRANCH   6  12
BRANCH   5  14
ATOM     14  C   UNL     1      35.663 -24.264 -11.370  0.00  0.00    +0.184 C 
BRANCH  14  15
ATOM     15  O   UNL     1      35.280 -25.066 -10.268  0.00  0.00    -0.378 OA
ATOM     16  H   UNL     1      34.465 -25.545 -10.484  0.00  0.00    +0.211 HD
ENDBRANCH  14  15
ENDBRANCH   5  14
TORSDOF 5
ENDMDL
MODEL 6
REMARK VINA RESULT:      -6.2      1.828      3.074
REMARK  Name = 439781
REMARK  5 active torsions:
REMARK  status: ('A' for Active; 'I' for Inactive)
REMARK    1  A    between atoms: C_3  and  O_8
REMARK    2  A    between atoms: C_4  and  O_10
REMARK    3  A    between atoms: C_5  and  C_14
REMARK    4  A    between atoms: C_6  and  O_12
REMARK    5  A    between atoms: C_14  and  O_15
REMARK                            x       y       z     vdW  Elec       q    Type
REMARK                         _______ _______ _______ _____ _____    ______ ____
ROOT
ATOM      1  O   UNL     1      36.656 -24.310 -14.576  0.00  0.00    -0.445 OA
ATOM      2  O   UNL     1      34.741 -23.199 -15.000  0.00  0.00    -0.247 OA
ATOM      3  C   UNL     1      37.133 -25.285 -12.358  0.00  0.00    +0.183 C 
ATOM      4  C   UNL     1      35.950 -24.489 -11.827  0.00  0.00    +0.179 C 
ATOM      5  C   UNL     1      37.681 -24.566 -13.585  0.00  0.00    +0.227 C 
ATOM      6  C   UNL     1      34.883 -24.364 -12.901  0.00  0.00    +0.239 C 
ATOM      7  C   UNL     1      35.421 -23.870 -14.228  0.00  0.00    +0.347 C 
ENDROOT
BRANCH   3   8
ATOM      8  O   UNL     1      36.719 -26.602 -12.722  0.00  0.00    -0.378 OA
ATOM      9  H   UNL     1      36.944 -27.220 -12.009  0.00  0.00    +0.211 HD
ENDBRANCH   3   8
BRANCH   4  10
ATOM     10  O   UNL     1      35.417 -25.165 -10.691  0.00  0.00    -0.379 OA
ATOM     11  H   UNL     1      35.775 -26.067 -10.654  0.00  0.00    +0.211 HD
ENDBRANCH   4  10
BRANCH   6  12
ATOM     12  O   UNL     1      33.895 -23.447 -12.451  0.00  0.00    -0.373 OA
ATOM     13  H   UNL     1      33.057 -23.626 -12.905  0.00  0.00    +0.211 HD
ENDBRANCH   6  12
BRANCH   5  14
ATOM     14  C   UNL     1      38.789 -25.351 -14.279  0.00  0.00    +0.184 C 
BRANCH  14  15
ATOM     15  O   UNL     1      38.209 -26.140 -15.302  0.00  0.00    -0.378 OA
ATOM     16  H   UNL     1      37.630 -25.587 -15.849  0.00  0.00    +0.211 HD
ENDBRANCH  14  15
ENDBRANCH   5  14
TORSDOF 5
ENDMDL
MODEL 7
REMARK VINA RESULT:      -6.2      1.588      2.214
REMARK  Name = 439781
REMARK  5 active torsions:
REMARK  status: ('A' for Active; 'I' for Inactive)
REMARK    1  A    between atoms: C_3  and  O_8
REMARK    2  A    between atoms: C_4  and  O_10
REMARK    3  A    between atoms: C_5  and  C_14
REMARK    4  A    between atoms: C_6  and  O_12
REMARK    5  A    between atoms: C_14  and  O_15
REMARK                            x       y       z     vdW  Elec       q    Type
REMARK                         _______ _______ _______ _____ _____    ______ ____
ROOT
ATOM      1  O   UNL     1      38.612 -24.323 -13.247  0.00  0.00    -0.445 OA
ATOM      2  O   UNL     1      39.095 -23.022 -11.471  0.00  0.00    -0.247 OA
ATOM      3  C   UNL     1      36.431 -25.458 -13.476  0.00  0.00    +0.183 C 
ATOM      4  C   UNL     1      36.164 -25.096 -12.023  0.00  0.00    +0.179 C 
ATOM      5  C   UNL     1      37.939 -25.529 -13.683  0.00  0.00    +0.227 C 
ATOM      6  C   UNL     1      36.818 -23.767 -11.689  0.00  0.00    +0.239 C 
ATOM      7  C   UNL     1      38.277 -23.697 -12.091  0.00  0.00    +0.347 C 
ENDROOT
BRANCH   3   8
ATOM      8  O   UNL     1      35.877 -24.467 -14.341  0.00  0.00    -0.378 OA
ATOM      9  H   UNL     1      35.002 -24.756 -14.646  0.00  0.00    +0.211 HD
ENDBRANCH   3   8
BRANCH   4  10
ATOM     10  O   UNL     1      34.756 -25.007 -11.824  0.00  0.00    -0.379 OA
ATOM     11  H   UNL     1      34.565 -24.973 -10.873  0.00  0.00    +0.211 HD
ENDBRANCH   4  10
BRANCH   6  12
ATOM     12  O   UNL     1      36.732 -23.561 -10.286  0.00  0.00    -0.373 OA
ATOM     13  H   UNL     1      37.293 -22.811 -10.034  0.00  0.00    +0.211 HD
ENDBRANCH   6  12
BRANCH   5  14
ATOM     14  C   UNL     1      38.322 -25.754 -15.142  0.00  0.00    +0.184 C 
BRANCH  14  15
ATOM     15  O   UNL     1      37.363 -26.611 -15.733  0.00  0.00    -0.378 OA
ATOM     16  H   UNL     1      36.544 -26.117 -15.897  0.00  0.00    +0.211 HD
ENDBRANCH  14  15
ENDBRANCH   5  14
TORSDOF 5
ENDMDL
MODEL 8
REMARK VINA RESULT:      -6.1      1.890      2.380
REMARK  Name = 439781
REMARK  5 active torsions:
REMARK  status: ('A' for Active; 'I' for Inactive)
REMARK    1  A    between atoms: C_3  and  O_8
REMARK    2  A    between atoms: C_4  and  O_10
REMARK    3  A    between atoms: C_5  and  C_14
REMARK    4  A    between atoms: C_6  and  O_12
REMARK    5  A    between atoms: C_14  and  O_15
REMARK                            x       y       z     vdW  Elec       q    Type
REMARK                         _______ _______ _______ _____ _____    ______ ____
ROOT
ATOM      1  O   UNL     1      36.956 -25.478 -12.365  0.00  0.00    -0.445 OA
ATOM      2  O   UNL     1      35.441 -25.168 -10.724  0.00  0.00    -0.247 OA
ATOM      3  C   UNL     1      36.813 -24.271 -14.515  0.00  0.00    +0.183 C 
ATOM      4  C   UNL     1      35.410 -23.847 -14.108  0.00  0.00    +0.179 C 
ATOM      5  C   UNL     1      37.146 -25.573 -13.797  0.00  0.00    +0.227 C 
ATOM      6  C   UNL     1      35.336 -23.668 -12.602  0.00  0.00    +0.239 C 
ATOM      7  C   UNL     1      35.877 -24.853 -11.828  0.00  0.00    +0.347 C 
ENDROOT
BRANCH   3   8
ATOM      8  O   UNL     1      37.759 -23.267 -14.144  0.00  0.00    -0.378 OA
ATOM      9  H   UNL     1      38.229 -23.548 -13.343  0.00  0.00    +0.211 HD
ENDBRANCH   3   8
BRANCH   4  10
ATOM     10  O   UNL     1      35.097 -22.618 -14.758  0.00  0.00    -0.379 OA
ATOM     11  H   UNL     1      35.878 -22.042 -14.755  0.00  0.00    +0.211 HD
ENDBRANCH   4  10
BRANCH   6  12
ATOM     12  O   UNL     1      33.976 -23.481 -12.236  0.00  0.00    -0.373 OA
ATOM     13  H   UNL     1      33.544 -22.900 -12.882  0.00  0.00    +0.211 HD
ENDBRANCH   6  12
BRANCH   5  14
ATOM     14  C   UNL     1      38.586 -26.020 -14.029  0.00  0.00    +0.184 C 
BRANCH  14  15
ATOM     15  O   UNL     1      38.876 -25.908 -15.410  0.00  0.00    -0.378 OA
ATOM     16  H   UNL     1      39.762 -26.263 -15.585  0.00  0.00    +0.211 HD
ENDBRANCH  14  15
ENDBRANCH   5  14
TORSDOF 5
ENDMDL
MODEL 9
REMARK VINA RESULT:      -6.1      2.695      3.049
REMARK  Name = 439781
REMARK  5 active torsions:
REMARK  status: ('A' for Active; 'I' for Inactive)
REMARK    1  A    between atoms: C_3  and  O_8
REMARK    2  A    between atoms: C_4  and  O_10
REMARK    3  A    between atoms: C_5  and  C_14
REMARK    4  A    between atoms: C_6  and  O_12
REMARK    5  A    between atoms: C_14  and  O_15
REMARK                            x       y       z     vdW  Elec       q    Type
REMARK                         _______ _______ _______ _____ _____    ______ ____
ROOT
ATOM      1  O   UNL     1      37.705 -22.977 -13.605  0.00  0.00    -0.445 OA
ATOM      2  O   UNL     1      38.469 -22.766 -11.495  0.00  0.00    -0.247 OA
ATOM      3  C   UNL     1      35.564 -24.101 -14.109  0.00  0.00    +0.183 C 
ATOM      4  C   UNL     1      35.567 -24.605 -12.673  0.00  0.00    +0.179 C 
ATOM      5  C   UNL     1      37.006 -23.847 -14.529  0.00  0.00    +0.227 C 
ATOM      6  C   UNL     1      36.222 -23.581 -11.763  0.00  0.00    +0.239 C 
ATOM      7  C   UNL     1      37.574 -23.113 -12.261  0.00  0.00    +0.347 C 
ENDROOT
BRANCH   3   8
ATOM      8  O   UNL     1      34.819 -22.887 -14.204  0.00  0.00    -0.378 OA
ATOM      9  H   UNL     1      33.969 -22.993 -13.747  0.00  0.00    +0.211 HD
ENDBRANCH   3   8
BRANCH   4  10
ATOM     10  O   UNL     1      34.219 -24.826 -12.263  0.00  0.00    -0.379 OA
ATOM     11  H   UNL     1      33.621 -24.311 -12.828  0.00  0.00    +0.211 HD
ENDBRANCH   4  10
BRANCH   6  12
ATOM     12  O   UNL     1      36.398 -24.166 -10.480  0.00  0.00    -0.373 OA
ATOM     13  H   UNL     1      35.771 -23.768  -9.855  0.00  0.00    +0.211 HD
ENDBRANCH   6  12
BRANCH   5  14
ATOM     14  C   UNL     1      37.112 -23.209 -15.911  0.00  0.00    +0.184 C 
BRANCH  14  15
ATOM     15  O   UNL     1      37.218 -21.806 -15.752  0.00  0.00    -0.378 OA
ATOM     16  H   UNL     1      36.500 -21.490 -15.181  0.00  0.00    +0.211 HD
ENDBRANCH  14  15
ENDBRANCH   5  14
TORSDOF 5
ENDMDL
