MODEL 1
REMARK VINA RESULT:      -4.4      0.000      0.000
REMARK  Name = 448166
REMARK  2 active torsions:
REMARK  status: ('A' for Active; 'I' for Inactive)
REMARK    1  A    between atoms: N_2  and  C_7
REMARK    2  A    between atoms: C_3  and  O_5
REMARK                            x       y       z     vdW  Elec       q    Type
REMARK                         _______ _______ _______ _____ _____    ______ ____
ROOT
ATOM      1  O   UNL     1      27.552 -23.504 -17.739  0.00  0.00    -0.226 OA
ATOM      2  N   UNL     1      28.651 -22.444 -15.992  0.00  0.00    -0.271 N 
ATOM      3  C   UNL     1      27.753 -22.519 -17.035  0.00  0.00    +0.402 C 
ATOM      4  H   UNL     1      28.722 -21.594 -15.501  0.00  0.00    +0.153 HD
ENDROOT
BRANCH   3   5
ATOM      5  O   UNL     1      27.109 -21.321 -17.175  0.00  0.00    -0.431 OA
ATOM      6  C   UNL     1      26.037 -21.297 -18.125  0.00  0.00    +0.257 C 
ENDBRANCH   3   5
BRANCH   2   7
ATOM      7  C   UNL     1      29.495 -23.542 -15.579  0.00  0.00    +0.093 C 
ATOM      8  C   UNL     1      30.922 -23.350 -16.065  0.00  0.00    +0.023 C 
ENDBRANCH   2   7
TORSDOF 2
ENDMDL
MODEL 2
REMARK VINA RESULT:      -4.2     10.756     11.268
REMARK  Name = 448166
REMARK  2 active torsions:
REMARK  status: ('A' for Active; 'I' for Inactive)
REMARK    1  A    between atoms: N_2  and  C_7
REMARK    2  A    between atoms: C_3  and  O_5
REMARK                            x       y       z     vdW  Elec       q    Type
REMARK                         _______ _______ _______ _____ _____    ______ ____
ROOT
ATOM      1  O   UNL     1      37.067 -26.339 -12.056  0.00  0.00    -0.226 OA
ATOM      2  N   UNL     1      38.558 -24.921 -13.125  0.00  0.00    -0.271 N 
ATOM      3  C   UNL     1      37.689 -25.284 -12.119  0.00  0.00    +0.402 C 
ATOM      4  H   UNL     1      38.999 -24.043 -13.063  0.00  0.00    +0.153 HD
ENDROOT
BRANCH   3   5
ATOM      5  O   UNL     1      37.619 -24.286 -11.188  0.00  0.00    -0.431 OA
ATOM      6  C   UNL     1      37.114 -23.030 -11.656  0.00  0.00    +0.257 C 
ENDBRANCH   3   5
BRANCH   2   7
ATOM      7  C   UNL     1      38.857 -25.755 -14.267  0.00  0.00    +0.093 C 
ATOM      8  C   UNL     1      40.357 -25.889 -14.469  0.00  0.00    +0.023 C 
ENDBRANCH   2   7
TORSDOF 2
ENDMDL
MODEL 3
REMARK VINA RESULT:      -4.1      8.652     10.074
REMARK  Name = 448166
REMARK  2 active torsions:
REMARK  status: ('A' for Active; 'I' for Inactive)
REMARK    1  A    between atoms: N_2  and  C_7
REMARK    2  A    between atoms: C_3  and  O_5
REMARK                            x       y       z     vdW  Elec       q    Type
REMARK                         _______ _______ _______ _____ _____    ______ ____
ROOT
ATOM      1  O   UNL     1      36.630 -27.291 -16.160  0.00  0.00    -0.226 OA
ATOM      2  N   UNL     1      36.595 -25.516 -14.667  0.00  0.00    -0.271 N 
ATOM      3  C   UNL     1      37.132 -26.646 -15.245  0.00  0.00    +0.402 C 
ATOM      4  H   UNL     1      37.095 -25.086 -13.937  0.00  0.00    +0.153 HD
ENDROOT
BRANCH   3   5
ATOM      5  O   UNL     1      38.321 -26.950 -14.643  0.00  0.00    -0.431 OA
ATOM      6  C   UNL     1      39.137 -25.833 -14.274  0.00  0.00    +0.257 C 
ENDBRANCH   3   5
BRANCH   2   7
ATOM      7  C   UNL     1      35.339 -24.927 -15.073  0.00  0.00    +0.093 C 
ATOM      8  C   UNL     1      35.516 -23.466 -15.453  0.00  0.00    +0.023 C 
ENDBRANCH   2   7
TORSDOF 2
ENDMDL
MODEL 4
REMARK VINA RESULT:      -4.1     11.063     11.287
REMARK  Name = 448166
REMARK  2 active torsions:
REMARK  status: ('A' for Active; 'I' for Inactive)
REMARK    1  A    between atoms: N_2  and  C_7
REMARK    2  A    between atoms: C_3  and  O_5
REMARK                            x       y       z     vdW  Elec       q    Type
REMARK                         _______ _______ _______ _____ _____    ______ ____
ROOT
ATOM      1  O   UNL     1      34.402 -18.751 -24.990  0.00  0.00    -0.226 OA
ATOM      2  N   UNL     1      35.400 -17.075 -23.736  0.00  0.00    -0.271 N 
ATOM      3  C   UNL     1      34.786 -17.594 -24.855  0.00  0.00    +0.402 C 
ATOM      4  H   UNL     1      35.663 -16.127 -23.749  0.00  0.00    +0.153 HD
ENDROOT
BRANCH   3   5
ATOM      5  O   UNL     1      34.666 -16.621 -25.808  0.00  0.00    -0.431 OA
ATOM      6  C   UNL     1      33.644 -15.645 -25.577  0.00  0.00    +0.257 C 
ENDBRANCH   3   5
BRANCH   2   7
ATOM      7  C   UNL     1      35.677 -17.843 -22.543  0.00  0.00    +0.093 C 
ATOM      8  C   UNL     1      35.038 -17.207 -21.320  0.00  0.00    +0.023 C 
ENDBRANCH   2   7
TORSDOF 2
ENDMDL
MODEL 5
REMARK VINA RESULT:      -4.1      6.750      7.878
REMARK  Name = 448166
REMARK  2 active torsions:
REMARK  status: ('A' for Active; 'I' for Inactive)
REMARK    1  A    between atoms: N_2  and  C_7
REMARK    2  A    between atoms: C_3  and  O_5
REMARK                            x       y       z     vdW  Elec       q    Type
REMARK                         _______ _______ _______ _____ _____    ______ ____
ROOT
ATOM      1  O   UNL     1      32.923 -22.151 -19.402  0.00  0.00    -0.226 OA
ATOM      2  N   UNL     1      34.588 -20.693 -20.095  0.00  0.00    -0.271 N 
ATOM      3  C   UNL     1      34.098 -21.799 -19.434  0.00  0.00    +0.402 C 
ATOM      4  H   UNL     1      35.555 -20.515 -20.046  0.00  0.00    +0.153 HD
ENDROOT
BRANCH   3   5
ATOM      5  O   UNL     1      35.122 -22.455 -18.811  0.00  0.00    -0.431 OA
ATOM      6  C   UNL     1      36.294 -21.676 -18.546  0.00  0.00    +0.257 C 
ENDBRANCH   3   5
BRANCH   2   7
ATOM      7  C   UNL     1      33.765 -19.781 -20.855  0.00  0.00    +0.093 C 
ATOM      8  C   UNL     1      34.466 -19.342 -22.129  0.00  0.00    +0.023 C 
ENDBRANCH   2   7
TORSDOF 2
ENDMDL
MODEL 6
REMARK VINA RESULT:      -4.0      8.085      9.314
REMARK  Name = 448166
REMARK  2 active torsions:
REMARK  status: ('A' for Active; 'I' for Inactive)
REMARK    1  A    between atoms: N_2  and  C_7
REMARK    2  A    between atoms: C_3  and  O_5
REMARK                            x       y       z     vdW  Elec       q    Type
REMARK                         _______ _______ _______ _____ _____    ______ ____
ROOT
ATOM      1  O   UNL     1      35.482 -25.001 -10.541  0.00  0.00    -0.226 OA
ATOM      2  N   UNL     1      36.176 -25.206 -12.744  0.00  0.00    -0.271 N 
ATOM      3  C   UNL     1      35.372 -24.729 -11.732  0.00  0.00    +0.402 C 
ATOM      4  H   UNL     1      35.987 -24.912 -13.665  0.00  0.00    +0.153 HD
ENDROOT
BRANCH   3   5
ATOM      5  O   UNL     1      34.421 -23.896 -12.252  0.00  0.00    -0.431 OA
ATOM      6  C   UNL     1      34.035 -24.159 -13.606  0.00  0.00    +0.257 C 
ENDBRANCH   3   5
BRANCH   2   7
ATOM      7  C   UNL     1      37.282 -26.112 -12.532  0.00  0.00    +0.093 C 
ATOM      8  C   UNL     1      38.530 -25.632 -13.254  0.00  0.00    +0.023 C 
ENDBRANCH   2   7
TORSDOF 2
ENDMDL
MODEL 7
REMARK VINA RESULT:      -4.0     11.733     12.030
REMARK  Name = 448166
REMARK  2 active torsions:
REMARK  status: ('A' for Active; 'I' for Inactive)
REMARK    1  A    between atoms: N_2  and  C_7
REMARK    2  A    between atoms: C_3  and  O_5
REMARK                            x       y       z     vdW  Elec       q    Type
REMARK                         _______ _______ _______ _____ _____    ______ ____
ROOT
ATOM      1  O   UNL     1      33.465 -15.274 -24.220  0.00  0.00    -0.226 OA
ATOM      2  N   UNL     1      34.618 -17.028 -25.206  0.00  0.00    -0.271 N 
ATOM      3  C   UNL     1      33.872 -15.869 -25.212  0.00  0.00    +0.402 C 
ATOM      4  H   UNL     1      34.887 -17.412 -26.072  0.00  0.00    +0.153 HD
ENDROOT
BRANCH   3   5
ATOM      5  O   UNL     1      33.648 -15.473 -26.501  0.00  0.00    -0.431 OA
ATOM      6  C   UNL     1      33.083 -14.166 -26.663  0.00  0.00    +0.257 C 
ENDBRANCH   3   5
BRANCH   2   7
ATOM      7  C   UNL     1      35.030 -17.712 -24.001  0.00  0.00    +0.093 C 
ATOM      8  C   UNL     1      34.813 -19.211 -24.119  0.00  0.00    +0.023 C 
ENDBRANCH   2   7
TORSDOF 2
ENDMDL
MODEL 8
REMARK VINA RESULT:      -4.0     11.726     11.928
REMARK  Name = 448166
REMARK  2 active torsions:
REMARK  status: ('A' for Active; 'I' for Inactive)
REMARK    1  A    between atoms: N_2  and  C_7
REMARK    2  A    between atoms: C_3  and  O_5
REMARK                            x       y       z     vdW  Elec       q    Type
REMARK                         _______ _______ _______ _____ _____    ______ ____
ROOT
ATOM      1  O   UNL     1      34.642 -17.632 -25.545  0.00  0.00    -0.226 OA
ATOM      2  N   UNL     1      34.307 -15.755 -24.225  0.00  0.00    -0.271 N 
ATOM      3  C   UNL     1      34.231 -16.487 -25.391  0.00  0.00    +0.402 C 
ATOM      4  H   UNL     1      33.939 -14.841 -24.227  0.00  0.00    +0.153 HD
ENDROOT
BRANCH   3   5
ATOM      5  O   UNL     1      33.624 -15.743 -26.364  0.00  0.00    -0.431 OA
ATOM      6  C   UNL     1      32.933 -14.572 -25.914  0.00  0.00    +0.257 C 
ENDBRANCH   3   5
BRANCH   2   7
ATOM      7  C   UNL     1      34.894 -16.251 -23.002  0.00  0.00    +0.093 C 
ATOM      8  C   UNL     1      34.476 -15.405 -21.811  0.00  0.00    +0.023 C 
ENDBRANCH   2   7
TORSDOF 2
ENDMDL
MODEL 9
REMARK VINA RESULT:      -4.0      8.822      9.390
REMARK  Name = 448166
REMARK  2 active torsions:
REMARK  status: ('A' for Active; 'I' for Inactive)
REMARK    1  A    between atoms: N_2  and  C_7
REMARK    2  A    between atoms: C_3  and  O_5
REMARK                            x       y       z     vdW  Elec       q    Type
REMARK                         _______ _______ _______ _____ _____    ______ ____
ROOT
ATOM      1  O   UNL     1      35.969 -18.595 -20.636  0.00  0.00    -0.226 OA
ATOM      2  N   UNL     1      34.685 -19.412 -22.385  0.00  0.00    -0.271 N 
ATOM      3  C   UNL     1      35.105 -19.347 -21.074  0.00  0.00    +0.402 C 
ATOM      4  H   UNL     1      33.981 -20.061 -22.615  0.00  0.00    +0.153 HD
ENDROOT
BRANCH   3   5
ATOM      5  O   UNL     1      34.412 -20.253 -20.322  0.00  0.00    -0.431 OA
ATOM      6  C   UNL     1      32.987 -20.220 -20.462  0.00  0.00    +0.257 C 
ENDBRANCH   3   5
BRANCH   2   7
ATOM      7  C   UNL     1      35.219 -18.584 -23.442  0.00  0.00    +0.093 C 
ATOM      8  C   UNL     1      34.461 -18.796 -24.742  0.00  0.00    +0.023 C 
ENDBRANCH   2   7
TORSDOF 2
ENDMDL
