MODEL 1
REMARK VINA RESULT:      -6.6      0.000      0.000
REMARK  Name = 3202
REMARK  3 active torsions:
REMARK  status: ('A' for Active; 'I' for Inactive)
REMARK    1  A    between atoms: C_1  and  N_7
REMARK    2  A    between atoms: C_4  and  O_12
REMARK    3  A    between atoms: N_7  and  C_10
REMARK                            x       y       z     vdW  Elec       q    Type
REMARK                         _______ _______ _______ _____ _____    ______ ____
ROOT
ATOM      1  C   UNL     1      35.085 -19.947 -20.773  0.00  0.00    +0.037 C 
ATOM      2  C   UNL     1      33.869 -20.430 -20.425  0.00  0.00    +0.050 C 
ATOM      3  C   UNL     1      36.281 -20.373 -20.300  0.00  0.00    +0.013 C 
ATOM      4  C   UNL     1      33.844 -21.465 -19.491  0.00  0.00    +0.135 C 
ATOM      5  C   UNL     1      36.257 -21.409 -19.366  0.00  0.00    +0.004 C 
ATOM      6  C   UNL     1      35.039 -21.955 -18.962  0.00  0.00    +0.037 C 
ENDROOT
BRANCH   1   7
ATOM      7  N   UNL     1      35.113 -18.809 -21.797  0.00  0.00    -0.352 NA
ATOM      8  C   UNL     1      36.556 -18.348 -21.980  0.00  0.00    +0.096 C 
ATOM      9  C   UNL     1      34.239 -17.667 -21.286  0.00  0.00    +0.096 C 
BRANCH   7  10
ATOM     10  C   UNL     1      34.577 -19.245 -23.159  0.00  0.00    +0.076 C 
ATOM     11  C   UNL     1      34.958 -18.213 -24.199  0.00  0.00    +0.022 C 
ENDBRANCH   7  10
ENDBRANCH   1   7
BRANCH   4  12
ATOM     12  O   UNL     1      32.656 -22.000 -19.098  0.00  0.00    -0.505 OA
ATOM     13  H   UNL     1      32.559 -22.930 -19.037  0.00  0.00    +0.292 HD
ENDBRANCH   4  12
TORSDOF 3
ENDMDL
MODEL 2
REMARK VINA RESULT:      -6.6      0.482      1.618
REMARK  Name = 3202
REMARK  3 active torsions:
REMARK  status: ('A' for Active; 'I' for Inactive)
REMARK    1  A    between atoms: C_1  and  N_7
REMARK    2  A    between atoms: C_4  and  O_12
REMARK    3  A    between atoms: N_7  and  C_10
REMARK                            x       y       z     vdW  Elec       q    Type
REMARK                         _______ _______ _______ _____ _____    ______ ____
ROOT
ATOM      1  C   UNL     1      35.009 -19.960 -20.750  0.00  0.00    +0.037 C 
ATOM      2  C   UNL     1      33.806 -20.456 -20.376  0.00  0.00    +0.050 C 
ATOM      3  C   UNL     1      36.220 -20.385 -20.315  0.00  0.00    +0.013 C 
ATOM      4  C   UNL     1      33.813 -21.504 -19.456  0.00  0.00    +0.135 C 
ATOM      5  C   UNL     1      36.228 -21.433 -19.395  0.00  0.00    +0.004 C 
ATOM      6  C   UNL     1      35.025 -21.992 -18.965  0.00  0.00    +0.037 C 
ENDROOT
BRANCH   1   7
ATOM      7  N   UNL     1      35.002 -18.809 -21.759  0.00  0.00    -0.352 NA
ATOM      8  C   UNL     1      34.532 -19.343 -23.109  0.00  0.00    +0.096 C 
ATOM      9  C   UNL     1      36.413 -18.237 -21.862  0.00  0.00    +0.096 C 
BRANCH   7  10
ATOM     10  C   UNL     1      34.061 -17.681 -21.340  0.00  0.00    +0.076 C 
ATOM     11  C   UNL     1      34.879 -16.470 -20.948  0.00  0.00    +0.022 C 
ENDBRANCH   7  10
ENDBRANCH   1   7
BRANCH   4  12
ATOM     12  O   UNL     1      32.639 -22.052 -19.037  0.00  0.00    -0.505 OA
ATOM     13  H   UNL     1      32.590 -22.970 -18.853  0.00  0.00    +0.292 HD
ENDBRANCH   4  12
TORSDOF 3
ENDMDL
MODEL 3
REMARK VINA RESULT:      -6.5      1.133      1.844
REMARK  Name = 3202
REMARK  3 active torsions:
REMARK  status: ('A' for Active; 'I' for Inactive)
REMARK    1  A    between atoms: C_1  and  N_7
REMARK    2  A    between atoms: C_4  and  O_12
REMARK    3  A    between atoms: N_7  and  C_10
REMARK                            x       y       z     vdW  Elec       q    Type
REMARK                         _______ _______ _______ _____ _____    ______ ____
ROOT
ATOM      1  C   UNL     1      34.642 -19.711 -20.999  0.00  0.00    +0.037 C 
ATOM      2  C   UNL     1      35.526 -20.493 -20.334  0.00  0.00    +0.050 C 
ATOM      3  C   UNL     1      33.292 -19.763 -20.894  0.00  0.00    +0.013 C 
ATOM      4  C   UNL     1      34.997 -21.440 -19.458  0.00  0.00    +0.135 C 
ATOM      5  C   UNL     1      32.763 -20.710 -20.017  0.00  0.00    +0.004 C 
ATOM      6  C   UNL     1      33.615 -21.549 -19.299  0.00  0.00    +0.037 C 
ENDROOT
BRANCH   1   7
ATOM      7  N   UNL     1      35.221 -18.673 -21.962  0.00  0.00    -0.352 NA
ATOM      8  C   UNL     1      36.735 -18.623 -21.777  0.00  0.00    +0.096 C 
ATOM      9  C   UNL     1      34.592 -17.316 -21.659  0.00  0.00    +0.096 C 
BRANCH   7  10
ATOM     10  C   UNL     1      34.931 -19.016 -23.423  0.00  0.00    +0.076 C 
ATOM     11  C   UNL     1      34.888 -17.740 -24.235  0.00  0.00    +0.022 C 
ENDBRANCH   7  10
ENDBRANCH   1   7
BRANCH   4  12
ATOM     12  O   UNL     1      35.829 -22.258 -18.755  0.00  0.00    -0.505 OA
ATOM     13  H   UNL     1      35.652 -23.177 -18.708  0.00  0.00    +0.292 HD
ENDBRANCH   4  12
TORSDOF 3
ENDMDL
MODEL 4
REMARK VINA RESULT:      -6.1      3.269      5.329
REMARK  Name = 3202
REMARK  3 active torsions:
REMARK  status: ('A' for Active; 'I' for Inactive)
REMARK    1  A    between atoms: C_1  and  N_7
REMARK    2  A    between atoms: C_4  and  O_12
REMARK    3  A    between atoms: N_7  and  C_10
REMARK                            x       y       z     vdW  Elec       q    Type
REMARK                         _______ _______ _______ _____ _____    ______ ____
ROOT
ATOM      1  C   UNL     1      34.698 -16.992 -21.991  0.00  0.00    +0.037 C 
ATOM      2  C   UNL     1      34.437 -16.419 -23.191  0.00  0.00    +0.050 C 
ATOM      3  C   UNL     1      34.744 -16.358 -20.795  0.00  0.00    +0.013 C 
ATOM      4  C   UNL     1      34.192 -15.046 -23.195  0.00  0.00    +0.135 C 
ATOM      5  C   UNL     1      34.500 -14.985 -20.799  0.00  0.00    +0.004 C 
ATOM      6  C   UNL     1      34.224 -14.329 -21.999  0.00  0.00    +0.037 C 
ENDROOT
BRANCH   1   7
ATOM      7  N   UNL     1      34.968 -18.499 -21.986  0.00  0.00    -0.352 NA
ATOM      8  C   UNL     1      36.292 -18.757 -21.271  0.00  0.00    +0.096 C 
ATOM      9  C   UNL     1      35.024 -18.994 -23.428  0.00  0.00    +0.096 C 
BRANCH   7  10
ATOM     10  C   UNL     1      33.874 -19.278 -21.258  0.00  0.00    +0.076 C 
ATOM     11  C   UNL     1      34.513 -20.349 -20.399  0.00  0.00    +0.022 C 
ENDBRANCH   7  10
ENDBRANCH   1   7
BRANCH   4  12
ATOM     12  O   UNL     1      33.921 -14.406 -24.366  0.00  0.00    -0.505 OA
ATOM     13  H   UNL     1      34.138 -13.500 -24.465  0.00  0.00    +0.292 HD
ENDBRANCH   4  12
TORSDOF 3
ENDMDL
MODEL 5
REMARK VINA RESULT:      -6.1      9.616     11.262
REMARK  Name = 3202
REMARK  3 active torsions:
REMARK  status: ('A' for Active; 'I' for Inactive)
REMARK    1  A    between atoms: C_1  and  N_7
REMARK    2  A    between atoms: C_4  and  O_12
REMARK    3  A    between atoms: N_7  and  C_10
REMARK                            x       y       z     vdW  Elec       q    Type
REMARK                         _______ _______ _______ _____ _____    ______ ____
ROOT
ATOM      1  C   UNL     1      32.004  -9.117 -21.244  0.00  0.00    +0.037 C 
ATOM      2  C   UNL     1      31.816 -10.199 -22.036  0.00  0.00    +0.050 C 
ATOM      3  C   UNL     1      31.986  -9.105 -19.889  0.00  0.00    +0.013 C 
ATOM      4  C   UNL     1      31.583 -11.417 -21.398  0.00  0.00    +0.135 C 
ATOM      5  C   UNL     1      31.752 -10.322 -19.250  0.00  0.00    +0.004 C 
ATOM      6  C   UNL     1      31.550 -11.478 -20.005  0.00  0.00    +0.037 C 
ENDROOT
BRANCH   1   7
ATOM      7  N   UNL     1      32.260  -7.780 -21.944  0.00  0.00    -0.352 NA
ATOM      8  C   UNL     1      32.053  -6.652 -20.936  0.00  0.00    +0.096 C 
ATOM      9  C   UNL     1      31.292  -7.645 -23.115  0.00  0.00    +0.096 C 
BRANCH   7  10
ATOM     10  C   UNL     1      33.683  -7.676 -22.489  0.00  0.00    +0.076 C 
ATOM     11  C   UNL     1      33.645  -7.056 -23.868  0.00  0.00    +0.022 C 
ENDBRANCH   7  10
ENDBRANCH   1   7
BRANCH   4  12
ATOM     12  O   UNL     1      31.388 -12.546 -22.134  0.00  0.00    -0.505 OA
ATOM     13  H   UNL     1      31.920 -12.711 -22.887  0.00  0.00    +0.292 HD
ENDBRANCH   4  12
TORSDOF 3
ENDMDL
MODEL 6
REMARK VINA RESULT:      -5.9      3.476      5.842
REMARK  Name = 3202
REMARK  3 active torsions:
REMARK  status: ('A' for Active; 'I' for Inactive)
REMARK    1  A    between atoms: C_1  and  N_7
REMARK    2  A    between atoms: C_4  and  O_12
REMARK    3  A    between atoms: N_7  and  C_10
REMARK                            x       y       z     vdW  Elec       q    Type
REMARK                         _______ _______ _______ _____ _____    ______ ____
ROOT
ATOM      1  C   UNL     1      34.602 -16.963 -23.289  0.00  0.00    +0.037 C 
ATOM      2  C   UNL     1      34.291 -16.903 -24.606  0.00  0.00    +0.050 C 
ATOM      3  C   UNL     1      34.579 -15.929 -22.414  0.00  0.00    +0.013 C 
ATOM      4  C   UNL     1      33.910 -15.659 -25.109  0.00  0.00    +0.135 C 
ATOM      5  C   UNL     1      34.200 -14.685 -22.916  0.00  0.00    +0.004 C 
ATOM      6  C   UNL     1      33.865 -14.550 -24.264  0.00  0.00    +0.037 C 
ENDROOT
BRANCH   1   7
ATOM      7  N   UNL     1      35.020 -18.328 -22.737  0.00  0.00    -0.352 NA
ATOM      8  C   UNL     1      34.918 -19.362 -23.855  0.00  0.00    +0.096 C 
ATOM      9  C   UNL     1      34.100 -18.692 -21.575  0.00  0.00    +0.096 C 
BRANCH   7  10
ATOM     10  C   UNL     1      36.458 -18.325 -22.221  0.00  0.00    +0.076 C 
ATOM     11  C   UNL     1      36.520 -19.082 -20.912  0.00  0.00    +0.022 C 
ENDBRANCH   7  10
ENDBRANCH   1   7
BRANCH   4  12
ATOM     12  O   UNL     1      33.582 -15.526 -26.423  0.00  0.00    -0.505 OA
ATOM     13  H   UNL     1      32.964 -16.113 -26.813  0.00  0.00    +0.292 HD
ENDBRANCH   4  12
TORSDOF 3
ENDMDL
MODEL 7
REMARK VINA RESULT:      -5.9      2.814      5.077
REMARK  Name = 3202
REMARK  3 active torsions:
REMARK  status: ('A' for Active; 'I' for Inactive)
REMARK    1  A    between atoms: C_1  and  N_7
REMARK    2  A    between atoms: C_4  and  O_12
REMARK    3  A    between atoms: N_7  and  C_10
REMARK                            x       y       z     vdW  Elec       q    Type
REMARK                         _______ _______ _______ _____ _____    ______ ____
ROOT
ATOM      1  C   UNL     1      34.508 -17.051 -22.180  0.00  0.00    +0.037 C 
ATOM      2  C   UNL     1      33.787 -16.568 -21.140  0.00  0.00    +0.050 C 
ATOM      3  C   UNL     1      34.918 -16.348 -23.263  0.00  0.00    +0.013 C 
ATOM      4  C   UNL     1      33.433 -15.220 -21.188  0.00  0.00    +0.135 C 
ATOM      5  C   UNL     1      34.564 -15.000 -23.312  0.00  0.00    +0.004 C 
ATOM      6  C   UNL     1      33.822 -14.436 -22.275  0.00  0.00    +0.037 C 
ENDROOT
BRANCH   1   7
ATOM      7  N   UNL     1      34.896 -18.531 -22.128  0.00  0.00    -0.352 NA
ATOM      8  C   UNL     1      36.243 -18.661 -21.424  0.00  0.00    +0.096 C 
ATOM      9  C   UNL     1      34.974 -19.068 -23.554  0.00  0.00    +0.096 C 
BRANCH   7  10
ATOM     10  C   UNL     1      33.875 -19.368 -21.360  0.00  0.00    +0.076 C 
ATOM     11  C   UNL     1      34.604 -20.322 -20.440  0.00  0.00    +0.022 C 
ENDBRANCH   7  10
ENDBRANCH   1   7
BRANCH   4  12
ATOM     12  O   UNL     1      32.710 -14.668 -20.175  0.00  0.00    -0.505 OA
ATOM     13  H   UNL     1      33.046 -14.679 -19.301  0.00  0.00    +0.292 HD
ENDBRANCH   4  12
TORSDOF 3
ENDMDL
MODEL 8
REMARK VINA RESULT:      -5.9      3.611      5.104
REMARK  Name = 3202
REMARK  3 active torsions:
REMARK  status: ('A' for Active; 'I' for Inactive)
REMARK    1  A    between atoms: C_1  and  N_7
REMARK    2  A    between atoms: C_4  and  O_12
REMARK    3  A    between atoms: N_7  and  C_10
REMARK                            x       y       z     vdW  Elec       q    Type
REMARK                         _______ _______ _______ _____ _____    ______ ____
ROOT
ATOM      1  C   UNL     1      34.266 -16.605 -22.462  0.00  0.00    +0.037 C 
ATOM      2  C   UNL     1      34.363 -16.591 -23.812  0.00  0.00    +0.050 C 
ATOM      3  C   UNL     1      34.409 -17.688 -21.660  0.00  0.00    +0.013 C 
ATOM      4  C   UNL     1      34.637 -17.807 -24.439  0.00  0.00    +0.135 C 
ATOM      5  C   UNL     1      34.682 -18.904 -22.286  0.00  0.00    +0.004 C 
ATOM      6  C   UNL     1      34.796 -18.964 -23.675  0.00  0.00    +0.037 C 
ENDROOT
BRANCH   1   7
ATOM      7  N   UNL     1      33.965 -15.271 -21.774  0.00  0.00    -0.352 NA
ATOM      8  C   UNL     1      34.451 -14.136 -22.671  0.00  0.00    +0.096 C 
ATOM      9  C   UNL     1      34.678 -15.240 -20.425  0.00  0.00    +0.096 C 
BRANCH   7  10
ATOM     10  C   UNL     1      32.470 -15.074 -21.526  0.00  0.00    +0.076 C 
ATOM     11  C   UNL     1      32.210 -13.627 -21.167  0.00  0.00    +0.022 C 
ENDBRANCH   7  10
ENDBRANCH   1   7
BRANCH   4  12
ATOM     12  O   UNL     1      34.750 -17.865 -25.794  0.00  0.00    -0.505 OA
ATOM     13  H   UNL     1      34.334 -17.217 -26.327  0.00  0.00    +0.292 HD
ENDBRANCH   4  12
TORSDOF 3
ENDMDL
MODEL 9
REMARK VINA RESULT:      -5.8     10.129     11.335
REMARK  Name = 3202
REMARK  3 active torsions:
REMARK  status: ('A' for Active; 'I' for Inactive)
REMARK    1  A    between atoms: C_1  and  N_7
REMARK    2  A    between atoms: C_4  and  O_12
REMARK    3  A    between atoms: N_7  and  C_10
REMARK                            x       y       z     vdW  Elec       q    Type
REMARK                         _______ _______ _______ _____ _____    ______ ____
ROOT
ATOM      1  C   UNL     1      31.980  -9.264 -21.848  0.00  0.00    +0.037 C 
ATOM      2  C   UNL     1      32.273  -9.052 -20.543  0.00  0.00    +0.050 C 
ATOM      3  C   UNL     1      31.314 -10.329 -22.355  0.00  0.00    +0.013 C 
ATOM      4  C   UNL     1      31.848 -10.020 -19.634  0.00  0.00    +0.135 C 
ATOM      5  C   UNL     1      30.889 -11.299 -21.447  0.00  0.00    +0.004 C 
ATOM      6  C   UNL     1      31.156 -11.144 -20.087  0.00  0.00    +0.037 C 
ENDROOT
BRANCH   1   7
ATOM      7  N   UNL     1      32.448  -8.202 -22.846  0.00  0.00    -0.352 NA
ATOM      8  C   UNL     1      32.757  -6.916 -22.085  0.00  0.00    +0.096 C 
ATOM      9  C   UNL     1      31.345  -7.973 -23.874  0.00  0.00    +0.096 C 
BRANCH   7  10
ATOM     10  C   UNL     1      33.712  -8.628 -23.592  0.00  0.00    +0.076 C 
ATOM     11  C   UNL     1      34.742  -7.523 -23.499  0.00  0.00    +0.022 C 
ENDBRANCH   7  10
ENDBRANCH   1   7
BRANCH   4  12
ATOM     12  O   UNL     1      32.106  -9.870 -18.306  0.00  0.00    -0.505 OA
ATOM     13  H   UNL     1      32.460 -10.584 -17.814  0.00  0.00    +0.292 HD
ENDBRANCH   4  12
TORSDOF 3
ENDMDL
