MODEL 1
REMARK VINA RESULT:      -6.0      0.000      0.000
REMARK  Name = 3492020
REMARK  9 active torsions:
REMARK  status: ('A' for Active; 'I' for Inactive)
REMARK    1  A    between atoms: C_1  and  C_2
REMARK    2  A    between atoms: C_1  and  C_8
REMARK    3  A    between atoms: C_2  and  C_3
REMARK    4  A    between atoms: C_3  and  P_4
REMARK    5  A    between atoms: C_8  and  C_9
REMARK    6  A    between atoms: C_9  and  C_10
REMARK    7  A    between atoms: C_10  and  C_11
REMARK    8  A    between atoms: C_11  and  C_12
REMARK    9  A    between atoms: C_12  and  C_13
REMARK                            x       y       z     vdW  Elec       q    Type
REMARK                         _______ _______ _______ _____ _____    ______ ____
ROOT
ATOM      1  C   UNL     1      34.663 -17.285 -24.310  0.00  0.00    +0.000 C 
ENDROOT
BRANCH   1   2
ATOM      2  C   UNL     1      34.840 -15.915 -23.652  0.00  0.00    +0.008 C 
BRANCH   2   3
ATOM      3  C   UNL     1      33.524 -15.154 -23.548  0.00  0.00    +0.060 C 
BRANCH   3   4
ATOM      4  P   UNL     1      33.017 -14.805 -21.850  0.00  0.00    +0.115 P 
ATOM      5  O   UNL     1      32.071 -15.831 -21.325  0.00  0.00    -0.319 OA
ATOM      6  C   UNL     1      34.533 -14.690 -20.934  0.00  0.00    +0.068 C 
ATOM      7  C   UNL     1      32.341 -13.165 -21.901  0.00  0.00    +0.068 C 
ENDBRANCH   3   4
ENDBRANCH   2   3
ENDBRANCH   1   2
BRANCH   1   8
ATOM      8  C   UNL     1      35.355 -18.419 -23.547  0.00  0.00    +0.000 C 
BRANCH   8   9
ATOM      9  C   UNL     1      35.720 -18.051 -22.108  0.00  0.00    +0.000 C 
BRANCH   9  10
ATOM     10  C   UNL     1      34.602 -18.442 -21.135  0.00  0.00    +0.000 C 
BRANCH  10  11
ATOM     11  C   UNL     1      34.454 -19.962 -21.045  0.00  0.00    +0.000 C 
BRANCH  11  12
ATOM     12  C   UNL     1      33.194 -20.407 -20.297  0.00  0.00    +0.000 C 
BRANCH  12  13
ATOM     13  C   UNL     1      33.426 -21.602 -19.371  0.00  0.00    +0.000 C 
ATOM     14  C   UNL     1      34.910 -21.868 -19.170  0.00  0.00    +0.000 C 
ENDBRANCH  12  13
ENDBRANCH  11  12
ENDBRANCH  10  11
ENDBRANCH   9  10
ENDBRANCH   8   9
ENDBRANCH   1   8
TORSDOF 9
ENDMDL
MODEL 2
REMARK VINA RESULT:      -6.0      6.260      9.617
REMARK  Name = 3492020
REMARK  9 active torsions:
REMARK  status: ('A' for Active; 'I' for Inactive)
REMARK    1  A    between atoms: C_1  and  C_2
REMARK    2  A    between atoms: C_1  and  C_8
REMARK    3  A    between atoms: C_2  and  C_3
REMARK    4  A    between atoms: C_3  and  P_4
REMARK    5  A    between atoms: C_8  and  C_9
REMARK    6  A    between atoms: C_9  and  C_10
REMARK    7  A    between atoms: C_10  and  C_11
REMARK    8  A    between atoms: C_11  and  C_12
REMARK    9  A    between atoms: C_12  and  C_13
REMARK                            x       y       z     vdW  Elec       q    Type
REMARK                         _______ _______ _______ _____ _____    ______ ____
ROOT
ATOM      1  C   UNL     1      36.929 -21.692 -16.453  0.00  0.00    +0.000 C 
ENDROOT
BRANCH   1   2
ATOM      2  C   UNL     1      37.857 -22.825 -16.008  0.00  0.00    +0.008 C 
BRANCH   2   3
ATOM      3  C   UNL     1      37.149 -23.822 -15.097  0.00  0.00    +0.060 C 
BRANCH   3   4
ATOM      4  P   UNL     1      38.270 -24.963 -14.258  0.00  0.00    +0.115 P 
ATOM      5  O   UNL     1      39.675 -24.819 -14.733  0.00  0.00    -0.319 OA
ATOM      6  C   UNL     1      38.057 -24.626 -12.530  0.00  0.00    +0.068 C 
ATOM      7  C   UNL     1      37.578 -26.574 -14.540  0.00  0.00    +0.068 C 
ENDBRANCH   3   4
ENDBRANCH   2   3
ENDBRANCH   1   2
BRANCH   1   8
ATOM      8  C   UNL     1      36.645 -21.696 -17.959  0.00  0.00    +0.000 C 
BRANCH   8   9
ATOM      9  C   UNL     1      35.234 -22.170 -18.312  0.00  0.00    +0.000 C 
BRANCH   9  10
ATOM     10  C   UNL     1      34.799 -21.643 -19.682  0.00  0.00    +0.000 C 
BRANCH  10  11
ATOM     11  C   UNL     1      33.339 -21.182 -19.661  0.00  0.00    +0.000 C 
BRANCH  11  12
ATOM     12  C   UNL     1      33.049 -20.035 -20.633  0.00  0.00    +0.000 C 
BRANCH  12  13
ATOM     13  C   UNL     1      34.286 -19.206 -20.982  0.00  0.00    +0.000 C 
ATOM     14  C   UNL     1      34.533 -19.181 -22.482  0.00  0.00    +0.000 C 
ENDBRANCH  12  13
ENDBRANCH  11  12
ENDBRANCH  10  11
ENDBRANCH   9  10
ENDBRANCH   8   9
ENDBRANCH   1   8
TORSDOF 9
ENDMDL
MODEL 3
REMARK VINA RESULT:      -6.0      5.764      9.172
REMARK  Name = 3492020
REMARK  9 active torsions:
REMARK  status: ('A' for Active; 'I' for Inactive)
REMARK    1  A    between atoms: C_1  and  C_2
REMARK    2  A    between atoms: C_1  and  C_8
REMARK    3  A    between atoms: C_2  and  C_3
REMARK    4  A    between atoms: C_3  and  P_4
REMARK    5  A    between atoms: C_8  and  C_9
REMARK    6  A    between atoms: C_9  and  C_10
REMARK    7  A    between atoms: C_10  and  C_11
REMARK    8  A    between atoms: C_11  and  C_12
REMARK    9  A    between atoms: C_12  and  C_13
REMARK                            x       y       z     vdW  Elec       q    Type
REMARK                         _______ _______ _______ _____ _____    ______ ____
ROOT
ATOM      1  C   UNL     1      36.977 -21.692 -16.439  0.00  0.00    +0.000 C 
ENDROOT
BRANCH   1   2
ATOM      2  C   UNL     1      37.590 -22.983 -15.888  0.00  0.00    +0.008 C 
BRANCH   2   3
ATOM      3  C   UNL     1      37.145 -23.263 -14.458  0.00  0.00    +0.060 C 
BRANCH   3   4
ATOM      4  P   UNL     1      36.115 -24.738 -14.293  0.00  0.00    +0.115 P 
ATOM      5  O   UNL     1      35.641 -25.242 -15.614  0.00  0.00    -0.319 OA
ATOM      6  C   UNL     1      37.115 -25.898 -13.398  0.00  0.00    +0.068 C 
ATOM      7  C   UNL     1      34.804 -24.260 -13.196  0.00  0.00    +0.068 C 
ENDBRANCH   3   4
ENDBRANCH   2   3
ENDBRANCH   1   2
BRANCH   1   8
ATOM      8  C   UNL     1      36.778 -21.715 -17.958  0.00  0.00    +0.000 C 
BRANCH   8   9
ATOM      9  C   UNL     1      35.353 -22.081 -18.379  0.00  0.00    +0.000 C 
BRANCH   9  10
ATOM     10  C   UNL     1      34.950 -21.350 -19.664  0.00  0.00    +0.000 C 
BRANCH  10  11
ATOM     11  C   UNL     1      33.440 -21.111 -19.714  0.00  0.00    +0.000 C 
BRANCH  11  12
ATOM     12  C   UNL     1      33.023 -20.071 -20.758  0.00  0.00    +0.000 C 
BRANCH  12  13
ATOM     13  C   UNL     1      34.140 -19.090 -21.119  0.00  0.00    +0.000 C 
ATOM     14  C   UNL     1      34.526 -19.204 -22.585  0.00  0.00    +0.000 C 
ENDBRANCH  12  13
ENDBRANCH  11  12
ENDBRANCH  10  11
ENDBRANCH   9  10
ENDBRANCH   8   9
ENDBRANCH   1   8
TORSDOF 9
ENDMDL
MODEL 4
REMARK VINA RESULT:      -6.0      3.345      6.368
REMARK  Name = 3492020
REMARK  9 active torsions:
REMARK  status: ('A' for Active; 'I' for Inactive)
REMARK    1  A    between atoms: C_1  and  C_2
REMARK    2  A    between atoms: C_1  and  C_8
REMARK    3  A    between atoms: C_2  and  C_3
REMARK    4  A    between atoms: C_3  and  P_4
REMARK    5  A    between atoms: C_8  and  C_9
REMARK    6  A    between atoms: C_9  and  C_10
REMARK    7  A    between atoms: C_10  and  C_11
REMARK    8  A    between atoms: C_11  and  C_12
REMARK    9  A    between atoms: C_12  and  C_13
REMARK                            x       y       z     vdW  Elec       q    Type
REMARK                         _______ _______ _______ _____ _____    ______ ____
ROOT
ATOM      1  C   UNL     1      34.014 -19.393 -21.588  0.00  0.00    +0.000 C 
ENDROOT
BRANCH   1   2
ATOM      2  C   UNL     1      34.536 -20.288 -20.460  0.00  0.00    +0.008 C 
BRANCH   2   3
ATOM      3  C   UNL     1      33.421 -21.094 -19.806  0.00  0.00    +0.060 C 
BRANCH   3   4
ATOM      4  P   UNL     1      34.005 -22.553 -18.915  0.00  0.00    +0.115 P 
ATOM      5  O   UNL     1      34.104 -23.749 -19.801  0.00  0.00    -0.319 OA
ATOM      6  C   UNL     1      35.551 -22.063 -18.196  0.00  0.00    +0.068 C 
ATOM      7  C   UNL     1      32.869 -22.752 -17.566  0.00  0.00    +0.068 C 
ENDBRANCH   3   4
ENDBRANCH   2   3
ENDBRANCH   1   2
BRANCH   1   8
ATOM      8  C   UNL     1      35.085 -19.033 -22.622  0.00  0.00    +0.000 C 
BRANCH   8   9
ATOM      9  C   UNL     1      34.514 -18.731 -24.009  0.00  0.00    +0.000 C 
BRANCH   9  10
ATOM     10  C   UNL     1      35.067 -17.413 -24.561  0.00  0.00    +0.000 C 
BRANCH  10  11
ATOM     11  C   UNL     1      34.070 -16.269 -24.364  0.00  0.00    +0.000 C 
BRANCH  11  12
ATOM     12  C   UNL     1      34.473 -15.296 -23.253  0.00  0.00    +0.000 C 
BRANCH  12  13
ATOM     13  C   UNL     1      33.722 -15.527 -21.940  0.00  0.00    +0.000 C 
ATOM     14  C   UNL     1      34.681 -15.820 -20.797  0.00  0.00    +0.000 C 
ENDBRANCH  12  13
ENDBRANCH  11  12
ENDBRANCH  10  11
ENDBRANCH   9  10
ENDBRANCH   8   9
ENDBRANCH   1   8
TORSDOF 9
ENDMDL
MODEL 5
REMARK VINA RESULT:      -5.9      6.536      9.900
REMARK  Name = 3492020
REMARK  9 active torsions:
REMARK  status: ('A' for Active; 'I' for Inactive)
REMARK    1  A    between atoms: C_1  and  C_2
REMARK    2  A    between atoms: C_1  and  C_8
REMARK    3  A    between atoms: C_2  and  C_3
REMARK    4  A    between atoms: C_3  and  P_4
REMARK    5  A    between atoms: C_8  and  C_9
REMARK    6  A    between atoms: C_9  and  C_10
REMARK    7  A    between atoms: C_10  and  C_11
REMARK    8  A    between atoms: C_11  and  C_12
REMARK    9  A    between atoms: C_12  and  C_13
REMARK                            x       y       z     vdW  Elec       q    Type
REMARK                         _______ _______ _______ _____ _____    ______ ____
ROOT
ATOM      1  C   UNL     1      36.183 -22.850 -16.012  0.00  0.00    +0.000 C 
ENDROOT
BRANCH   1   2
ATOM      2  C   UNL     1      36.822 -23.516 -14.791  0.00  0.00    +0.008 C 
BRANCH   2   3
ATOM      3  C   UNL     1      36.072 -23.195 -13.504  0.00  0.00    +0.060 C 
BRANCH   3   4
ATOM      4  P   UNL     1      36.920 -23.751 -12.009  0.00  0.00    +0.115 P 
ATOM      5  O   UNL     1      37.537 -22.619 -11.261  0.00  0.00    -0.319 OA
ATOM      6  C   UNL     1      35.691 -24.637 -11.088  0.00  0.00    +0.068 C 
ATOM      7  C   UNL     1      38.091 -24.962 -12.571  0.00  0.00    +0.068 C 
ENDBRANCH   3   4
ENDBRANCH   2   3
ENDBRANCH   1   2
BRANCH   1   8
ATOM      8  C   UNL     1      37.097 -21.826 -16.693  0.00  0.00    +0.000 C 
BRANCH   8   9
ATOM      9  C   UNL     1      36.734 -21.564 -18.156  0.00  0.00    +0.000 C 
BRANCH   9  10
ATOM     10  C   UNL     1      35.274 -21.931 -18.439  0.00  0.00    +0.000 C 
BRANCH  10  11
ATOM     11  C   UNL     1      34.788 -21.300 -19.746  0.00  0.00    +0.000 C 
BRANCH  11  12
ATOM     12  C   UNL     1      33.264 -21.177 -19.832  0.00  0.00    +0.000 C 
BRANCH  12  13
ATOM     13  C   UNL     1      32.797 -19.932 -20.588  0.00  0.00    +0.000 C 
ATOM     14  C   UNL     1      33.968 -19.186 -21.207  0.00  0.00    +0.000 C 
ENDBRANCH  12  13
ENDBRANCH  11  12
ENDBRANCH  10  11
ENDBRANCH   9  10
ENDBRANCH   8   9
ENDBRANCH   1   8
TORSDOF 9
ENDMDL
MODEL 6
REMARK VINA RESULT:      -5.9      5.210      8.588
REMARK  Name = 3492020
REMARK  9 active torsions:
REMARK  status: ('A' for Active; 'I' for Inactive)
REMARK    1  A    between atoms: C_1  and  C_2
REMARK    2  A    between atoms: C_1  and  C_8
REMARK    3  A    between atoms: C_2  and  C_3
REMARK    4  A    between atoms: C_3  and  P_4
REMARK    5  A    between atoms: C_8  and  C_9
REMARK    6  A    between atoms: C_9  and  C_10
REMARK    7  A    between atoms: C_10  and  C_11
REMARK    8  A    between atoms: C_11  and  C_12
REMARK    9  A    between atoms: C_12  and  C_13
REMARK                            x       y       z     vdW  Elec       q    Type
REMARK                         _______ _______ _______ _____ _____    ______ ____
ROOT
ATOM      1  C   UNL     1      32.953 -22.690 -17.833  0.00  0.00    +0.000 C 
ENDROOT
BRANCH   1   2
ATOM      2  C   UNL     1      33.408 -23.384 -16.546  0.00  0.00    +0.008 C 
BRANCH   2   3
ATOM      3  C   UNL     1      34.856 -23.056 -16.200  0.00  0.00    +0.060 C 
BRANCH   3   4
ATOM      4  P   UNL     1      35.589 -24.186 -14.996  0.00  0.00    +0.115 P 
ATOM      5  O   UNL     1      35.828 -25.540 -15.571  0.00  0.00    -0.319 OA
ATOM      6  C   UNL     1      37.064 -23.370 -14.442  0.00  0.00    +0.068 C 
ATOM      7  C   UNL     1      34.468 -24.179 -13.619  0.00  0.00    +0.068 C 
ENDBRANCH   3   4
ENDBRANCH   2   3
ENDBRANCH   1   2
BRANCH   1   8
ATOM      8  C   UNL     1      33.988 -22.762 -18.960  0.00  0.00    +0.000 C 
BRANCH   8   9
ATOM      9  C   UNL     1      34.343 -21.395 -19.549  0.00  0.00    +0.000 C 
BRANCH   9  10
ATOM     10  C   UNL     1      33.090 -20.658 -20.031  0.00  0.00    +0.000 C 
BRANCH  10  11
ATOM     11  C   UNL     1      33.455 -19.480 -20.937  0.00  0.00    +0.000 C 
BRANCH  11  12
ATOM     12  C   UNL     1      34.829 -19.623 -21.597  0.00  0.00    +0.000 C 
BRANCH  12  13
ATOM     13  C   UNL     1      35.101 -18.567 -22.670  0.00  0.00    +0.000 C 
ATOM     14  C   UNL     1      34.857 -19.118 -24.066  0.00  0.00    +0.000 C 
ENDBRANCH  12  13
ENDBRANCH  11  12
ENDBRANCH  10  11
ENDBRANCH   9  10
ENDBRANCH   8   9
ENDBRANCH   1   8
TORSDOF 9
ENDMDL
MODEL 7
REMARK VINA RESULT:      -5.9      1.633      2.334
REMARK  Name = 3492020
REMARK  9 active torsions:
REMARK  status: ('A' for Active; 'I' for Inactive)
REMARK    1  A    between atoms: C_1  and  C_2
REMARK    2  A    between atoms: C_1  and  C_8
REMARK    3  A    between atoms: C_2  and  C_3
REMARK    4  A    between atoms: C_3  and  P_4
REMARK    5  A    between atoms: C_8  and  C_9
REMARK    6  A    between atoms: C_9  and  C_10
REMARK    7  A    between atoms: C_10  and  C_11
REMARK    8  A    between atoms: C_11  and  C_12
REMARK    9  A    between atoms: C_12  and  C_13
REMARK                            x       y       z     vdW  Elec       q    Type
REMARK                         _______ _______ _______ _____ _____    ______ ____
ROOT
ATOM      1  C   UNL     1      33.809 -16.166 -21.210  0.00  0.00    +0.000 C 
ENDROOT
BRANCH   1   2
ATOM      2  C   UNL     1      34.182 -14.703 -21.461  0.00  0.00    +0.008 C 
BRANCH   2   3
ATOM      3  C   UNL     1      34.475 -14.429 -22.931  0.00  0.00    +0.060 C 
BRANCH   3   4
ATOM      4  P   UNL     1      33.205 -13.443 -23.754  0.00  0.00    +0.115 P 
ATOM      5  O   UNL     1      31.982 -13.290 -22.915  0.00  0.00    -0.319 OA
ATOM      6  C   UNL     1      34.003 -11.908 -24.148  0.00  0.00    +0.068 C 
ATOM      7  C   UNL     1      32.917 -14.265 -25.300  0.00  0.00    +0.068 C 
ENDBRANCH   3   4
ENDBRANCH   2   3
ENDBRANCH   1   2
BRANCH   1   8
ATOM      8  C   UNL     1      35.025 -17.090 -21.089  0.00  0.00    +0.000 C 
BRANCH   8   9
ATOM      9  C   UNL     1      35.250 -17.965 -22.324  0.00  0.00    +0.000 C 
BRANCH   9  10
ATOM     10  C   UNL     1      34.493 -19.292 -22.208  0.00  0.00    +0.000 C 
BRANCH  10  11
ATOM     11  C   UNL     1      34.493 -19.806 -20.767  0.00  0.00    +0.000 C 
BRANCH  11  12
ATOM     12  C   UNL     1      33.198 -20.523 -20.376  0.00  0.00    +0.000 C 
BRANCH  12  13
ATOM     13  C   UNL     1      33.396 -21.596 -19.304  0.00  0.00    +0.000 C 
ATOM     14  C   UNL     1      34.857 -22.005 -19.192  0.00  0.00    +0.000 C 
ENDBRANCH  12  13
ENDBRANCH  11  12
ENDBRANCH  10  11
ENDBRANCH   9  10
ENDBRANCH   8   9
ENDBRANCH   1   8
TORSDOF 9
ENDMDL
MODEL 8
REMARK VINA RESULT:      -5.9      1.434      2.085
REMARK  Name = 3492020
REMARK  9 active torsions:
REMARK  status: ('A' for Active; 'I' for Inactive)
REMARK    1  A    between atoms: C_1  and  C_2
REMARK    2  A    between atoms: C_1  and  C_8
REMARK    3  A    between atoms: C_2  and  C_3
REMARK    4  A    between atoms: C_3  and  P_4
REMARK    5  A    between atoms: C_8  and  C_9
REMARK    6  A    between atoms: C_9  and  C_10
REMARK    7  A    between atoms: C_10  and  C_11
REMARK    8  A    between atoms: C_11  and  C_12
REMARK    9  A    between atoms: C_12  and  C_13
REMARK                            x       y       z     vdW  Elec       q    Type
REMARK                         _______ _______ _______ _____ _____    ______ ____
ROOT
ATOM      1  C   UNL     1      34.987 -16.648 -24.423  0.00  0.00    +0.000 C 
ENDROOT
BRANCH   1   2
ATOM      2  C   UNL     1      33.890 -15.693 -23.945  0.00  0.00    +0.008 C 
BRANCH   2   3
ATOM      3  C   UNL     1      34.427 -14.638 -22.986  0.00  0.00    +0.060 C 
BRANCH   3   4
ATOM      4  P   UNL     1      33.857 -14.845 -21.284  0.00  0.00    +0.115 P 
ATOM      5  O   UNL     1      34.973 -14.732 -20.302  0.00  0.00    -0.319 OA
ATOM      6  C   UNL     1      32.588 -13.623 -21.074  0.00  0.00    +0.068 C 
ATOM      7  C   UNL     1      33.040 -16.420 -21.263  0.00  0.00    +0.068 C 
ENDBRANCH   3   4
ENDBRANCH   2   3
ENDBRANCH   1   2
BRANCH   1   8
ATOM      8  C   UNL     1      34.516 -18.101 -24.544  0.00  0.00    +0.000 C 
BRANCH   8   9
ATOM      9  C   UNL     1      35.126 -19.029 -23.492  0.00  0.00    +0.000 C 
BRANCH   9  10
ATOM     10  C   UNL     1      35.975 -18.245 -22.487  0.00  0.00    +0.000 C 
BRANCH  10  11
ATOM     11  C   UNL     1      35.932 -18.892 -21.101  0.00  0.00    +0.000 C 
BRANCH  11  12
ATOM     12  C   UNL     1      35.324 -20.297 -21.105  0.00  0.00    +0.000 C 
BRANCH  12  13
ATOM     13  C   UNL     1      34.171 -20.464 -20.113  0.00  0.00    +0.000 C 
ATOM     14  C   UNL     1      32.846 -20.040 -20.727  0.00  0.00    +0.000 C 
ENDBRANCH  12  13
ENDBRANCH  11  12
ENDBRANCH  10  11
ENDBRANCH   9  10
ENDBRANCH   8   9
ENDBRANCH   1   8
TORSDOF 9
ENDMDL
MODEL 9
REMARK VINA RESULT:      -5.9      5.448      8.789
REMARK  Name = 3492020
REMARK  9 active torsions:
REMARK  status: ('A' for Active; 'I' for Inactive)
REMARK    1  A    between atoms: C_1  and  C_2
REMARK    2  A    between atoms: C_1  and  C_8
REMARK    3  A    between atoms: C_2  and  C_3
REMARK    4  A    between atoms: C_3  and  P_4
REMARK    5  A    between atoms: C_8  and  C_9
REMARK    6  A    between atoms: C_9  and  C_10
REMARK    7  A    between atoms: C_10  and  C_11
REMARK    8  A    between atoms: C_11  and  C_12
REMARK    9  A    between atoms: C_12  and  C_13
REMARK                            x       y       z     vdW  Elec       q    Type
REMARK                         _______ _______ _______ _____ _____    ______ ____
ROOT
ATOM      1  C   UNL     1      33.567 -23.277 -17.205  0.00  0.00    +0.000 C 
ENDROOT
BRANCH   1   2
ATOM      2  C   UNL     1      32.230 -23.174 -16.467  0.00  0.00    +0.008 C 
BRANCH   2   3
ATOM      3  C   UNL     1      32.274 -23.855 -15.104  0.00  0.00    +0.060 C 
BRANCH   3   4
ATOM      4  P   UNL     1      30.674 -23.908 -14.266  0.00  0.00    +0.115 P 
ATOM      5  O   UNL     1      30.806 -23.714 -12.794  0.00  0.00    -0.319 OA
ATOM      6  C   UNL     1      29.696 -22.665 -15.069  0.00  0.00    +0.068 C 
ATOM      7  C   UNL     1      29.968 -25.471 -14.724  0.00  0.00    +0.068 C 
ENDBRANCH   3   4
ENDBRANCH   2   3
ENDBRANCH   1   2
BRANCH   1   8
ATOM      8  C   UNL     1      33.605 -22.474 -18.509  0.00  0.00    +0.000 C 
BRANCH   8   9
ATOM      9  C   UNL     1      35.022 -22.132 -18.973  0.00  0.00    +0.000 C 
BRANCH   9  10
ATOM     10  C   UNL     1      35.019 -20.935 -19.928  0.00  0.00    +0.000 C 
BRANCH  10  11
ATOM     11  C   UNL     1      33.591 -20.507 -20.275  0.00  0.00    +0.000 C 
BRANCH  11  12
ATOM     12  C   UNL     1      33.512 -19.128 -20.936  0.00  0.00    +0.000 C 
BRANCH  12  13
ATOM     13  C   UNL     1      34.777 -18.752 -21.711  0.00  0.00    +0.000 C 
ATOM     14  C   UNL     1      34.698 -19.213 -23.158  0.00  0.00    +0.000 C 
ENDBRANCH  12  13
ENDBRANCH  11  12
ENDBRANCH  10  11
ENDBRANCH   9  10
ENDBRANCH   8   9
ENDBRANCH   1   8
TORSDOF 9
ENDMDL
