MODEL 1
REMARK VINA RESULT:      -9.5      0.000      0.000
REMARK  Name = 763808
REMARK  4 active torsions:
REMARK  status: ('A' for Active; 'I' for Inactive)
REMARK    1  A    between atoms: C_2  and  C_9
REMARK    2  A    between atoms: C_5  and  N_19
REMARK    3  A    between atoms: C_11  and  C_14
REMARK    4  A    between atoms: C_14  and  O_15
REMARK                            x       y       z     vdW  Elec       q    Type
REMARK                         _______ _______ _______ _____ _____    ______ ____
ROOT
ATOM      1 CL   UNL     1      37.324 -19.268 -20.975  0.00  0.00    -0.082 Cl
ATOM      2  C   UNL     1      34.588 -19.239 -21.053  0.00  0.00    +0.045 C 
ATOM      3  C   UNL     1      35.747 -19.877 -20.609  0.00  0.00    +0.062 C 
ATOM      4  C   UNL     1      33.336 -19.764 -20.733  0.00  0.00    +0.006 C 
ATOM      5  C   UNL     1      34.401 -21.566 -19.525  0.00  0.00    +0.144 C 
ATOM      6  C   UNL     1      35.652 -21.041 -19.846  0.00  0.00    +0.036 C 
ATOM      7  C   UNL     1      33.242 -20.928 -19.970  0.00  0.00    +0.024 C 
ENDROOT
BRANCH   2   9
ATOM      8  O   UNL     1      34.503 -18.221 -23.184  0.00  0.00    -0.447 OA
ATOM      9  C   UNL     1      34.638 -18.032 -21.849  0.00  0.00    +0.146 C 
ATOM     10  C   UNL     1      34.796 -16.707 -21.548  0.00  0.00    +0.041 C 
ATOM     11  C   UNL     1      34.576 -16.989 -23.751  0.00  0.00    +0.220 C 
ATOM     12  C   UNL     1      34.755 -16.024 -22.787  0.00  0.00    +0.047 C 
BRANCH  11  14
ATOM     13  O   UNL     1      34.264 -15.859 -25.836  0.00  0.00    -0.242 OA
ATOM     14  C   UNL     1      34.462 -16.900 -25.167  0.00  0.00    +0.373 C 
BRANCH  14  15
ATOM     15  O   UNL     1      34.595 -18.107 -25.808  0.00  0.00    -0.475 OA
ATOM     16  H   UNL     1      33.946 -18.383 -26.425  0.00  0.00    +0.296 HD
ENDBRANCH  14  15
ENDBRANCH  11  14
ENDBRANCH   2   9
BRANCH   5  19
ATOM     17  O   UNL     1      34.701 -22.726 -17.556  0.00  0.00    -0.126 OA
ATOM     18  O   UNL     1      33.827 -23.783 -19.269  0.00  0.00    -0.126 OA
ATOM     19  N   UNL     1      34.305 -22.749 -18.746  0.00  0.00    +0.058 N 
ENDBRANCH   5  19
TORSDOF 4
ENDMDL
MODEL 2
REMARK VINA RESULT:      -9.1      2.898      6.723
REMARK  Name = 763808
REMARK  4 active torsions:
REMARK  status: ('A' for Active; 'I' for Inactive)
REMARK    1  A    between atoms: C_2  and  C_9
REMARK    2  A    between atoms: C_5  and  N_19
REMARK    3  A    between atoms: C_11  and  C_14
REMARK    4  A    between atoms: C_14  and  O_15
REMARK                            x       y       z     vdW  Elec       q    Type
REMARK                         _______ _______ _______ _____ _____    ______ ____
ROOT
ATOM      1 CL   UNL     1      34.702 -16.149 -20.554  0.00  0.00    -0.082 Cl
ATOM      2  C   UNL     1      34.950 -17.997 -22.558  0.00  0.00    +0.045 C 
ATOM      3  C   UNL     1      34.608 -16.695 -22.194  0.00  0.00    +0.062 C 
ATOM      4  C   UNL     1      34.860 -18.394 -23.893  0.00  0.00    +0.006 C 
ATOM      5  C   UNL     1      34.087 -16.186 -24.497  0.00  0.00    +0.144 C 
ATOM      6  C   UNL     1      34.176 -15.790 -23.164  0.00  0.00    +0.036 C 
ATOM      7  C   UNL     1      34.429 -17.489 -24.862  0.00  0.00    +0.024 C 
ENDROOT
BRANCH   2   9
ATOM      8  O   UNL     1      34.440 -19.814 -21.137  0.00  0.00    -0.447 OA
ATOM      9  C   UNL     1      35.400 -18.970 -21.586  0.00  0.00    +0.146 C 
ATOM     10  C   UNL     1      36.608 -19.234 -21.004  0.00  0.00    +0.041 C 
ATOM     11  C   UNL     1      35.049 -20.639 -20.245  0.00  0.00    +0.220 C 
ATOM     12  C   UNL     1      36.383 -20.324 -20.128  0.00  0.00    +0.047 C 
BRANCH  11  14
ATOM     13  O   UNL     1      33.018 -21.792 -19.728  0.00  0.00    -0.242 OA
ATOM     14  C   UNL     1      34.256 -21.638 -19.613  0.00  0.00    +0.373 C 
BRANCH  14  15
ATOM     15  O   UNL     1      34.977 -22.490 -18.813  0.00  0.00    -0.475 OA
ATOM     16  H   UNL     1      35.638 -23.038 -19.188  0.00  0.00    +0.296 HD
ENDBRANCH  14  15
ENDBRANCH  11  14
ENDBRANCH   2   9
BRANCH   5  19
ATOM     17  O   UNL     1      33.484 -15.668 -26.661  0.00  0.00    -0.126 OA
ATOM     18  O   UNL     1      33.442 -14.073 -25.154  0.00  0.00    -0.126 OA
ATOM     19  N   UNL     1      33.650 -15.264 -25.485  0.00  0.00    +0.058 N 
ENDBRANCH   5  19
TORSDOF 4
ENDMDL
MODEL 3
REMARK VINA RESULT:      -9.1      1.510      2.199
REMARK  Name = 763808
REMARK  4 active torsions:
REMARK  status: ('A' for Active; 'I' for Inactive)
REMARK    1  A    between atoms: C_2  and  C_9
REMARK    2  A    between atoms: C_5  and  N_19
REMARK    3  A    between atoms: C_11  and  C_14
REMARK    4  A    between atoms: C_14  and  O_15
REMARK                            x       y       z     vdW  Elec       q    Type
REMARK                         _______ _______ _______ _____ _____    ______ ____
ROOT
ATOM      1 CL   UNL     1      37.389 -19.375 -20.949  0.00  0.00    -0.082 Cl
ATOM      2  C   UNL     1      34.658 -19.458 -21.119  0.00  0.00    +0.045 C 
ATOM      3  C   UNL     1      35.820 -20.002 -20.573  0.00  0.00    +0.062 C 
ATOM      4  C   UNL     1      33.413 -19.995 -20.787  0.00  0.00    +0.006 C 
ATOM      5  C   UNL     1      34.495 -21.619 -19.361  0.00  0.00    +0.144 C 
ATOM      6  C   UNL     1      35.738 -21.082 -19.694  0.00  0.00    +0.036 C 
ATOM      7  C   UNL     1      33.332 -21.075 -19.908  0.00  0.00    +0.024 C 
ENDROOT
BRANCH   2   9
ATOM      8  O   UNL     1      34.544 -17.123 -21.460  0.00  0.00    -0.447 OA
ATOM      9  C   UNL     1      34.695 -18.340 -22.036  0.00  0.00    +0.146 C 
ATOM     10  C   UNL     1      34.852 -18.233 -23.390  0.00  0.00    +0.041 C 
ATOM     11  C   UNL     1      34.607 -16.216 -22.470  0.00  0.00    +0.220 C 
ATOM     12  C   UNL     1      34.795 -16.848 -23.677  0.00  0.00    +0.047 C 
BRANCH  11  14
ATOM     13  O   UNL     1      34.290 -13.890 -22.935  0.00  0.00    -0.242 OA
ATOM     14  C   UNL     1      34.474 -14.839 -22.136  0.00  0.00    +0.373 C 
BRANCH  14  15
ATOM     15  O   UNL     1      34.561 -14.587 -20.789  0.00  0.00    -0.475 OA
ATOM     16  H   UNL     1      34.291 -13.755 -20.450  0.00  0.00    +0.296 HD
ENDBRANCH  14  15
ENDBRANCH  11  14
ENDBRANCH   2   9
BRANCH   5  19
ATOM     17  O   UNL     1      33.646 -23.671 -18.744  0.00  0.00    -0.126 OA
ATOM     18  O   UNL     1      35.106 -22.703 -17.421  0.00  0.00    -0.126 OA
ATOM     19  N   UNL     1      34.412 -22.717 -18.465  0.00  0.00    +0.058 N 
ENDBRANCH   5  19
TORSDOF 4
ENDMDL
MODEL 4
REMARK VINA RESULT:      -9.0      2.911      6.671
REMARK  Name = 763808
REMARK  4 active torsions:
REMARK  status: ('A' for Active; 'I' for Inactive)
REMARK    1  A    between atoms: C_2  and  C_9
REMARK    2  A    between atoms: C_5  and  N_19
REMARK    3  A    between atoms: C_11  and  C_14
REMARK    4  A    between atoms: C_14  and  O_15
REMARK                            x       y       z     vdW  Elec       q    Type
REMARK                         _______ _______ _______ _____ _____    ______ ____
ROOT
ATOM      1 CL   UNL     1      35.052 -19.426 -24.039  0.00  0.00    -0.082 Cl
ATOM      2  C   UNL     1      35.079 -17.933 -21.745  0.00  0.00    +0.045 C 
ATOM      3  C   UNL     1      34.864 -17.970 -23.123  0.00  0.00    +0.062 C 
ATOM      4  C   UNL     1      34.915 -16.737 -21.045  0.00  0.00    +0.006 C 
ATOM      5  C   UNL     1      34.320 -15.616 -23.102  0.00  0.00    +0.144 C 
ATOM      6  C   UNL     1      34.484 -16.812 -23.801  0.00  0.00    +0.036 C 
ATOM      7  C   UNL     1      34.536 -15.579 -21.724  0.00  0.00    +0.024 C 
ENDROOT
BRANCH   2   9
ATOM      8  O   UNL     1      34.454 -19.904 -20.601  0.00  0.00    -0.447 OA
ATOM      9  C   UNL     1      35.476 -19.109 -21.002  0.00  0.00    +0.146 C 
ATOM     10  C   UNL     1      36.683 -19.611 -20.602  0.00  0.00    +0.041 C 
ATOM     11  C   UNL     1      35.021 -20.939 -19.928  0.00  0.00    +0.220 C 
ATOM     12  C   UNL     1      36.390 -20.806 -19.901  0.00  0.00    +0.047 C 
BRANCH  11  14
ATOM     13  O   UNL     1      32.953 -22.116 -19.682  0.00  0.00    -0.242 OA
ATOM     14  C   UNL     1      34.159 -21.936 -19.391  0.00  0.00    +0.373 C 
BRANCH  14  15
ATOM     15  O   UNL     1      34.767 -22.754 -18.471  0.00  0.00    -0.475 OA
ATOM     16  H   UNL     1      35.455 -23.331 -18.740  0.00  0.00    +0.296 HD
ENDBRANCH  14  15
ENDBRANCH  11  14
ENDBRANCH   2   9
BRANCH   5  19
ATOM     17  O   UNL     1      33.404 -14.543 -24.925  0.00  0.00    -0.126 OA
ATOM     18  O   UNL     1      34.126 -13.324 -23.248  0.00  0.00    -0.126 OA
ATOM     19  N   UNL     1      33.932 -14.437 -23.791  0.00  0.00    +0.058 N 
ENDBRANCH   5  19
TORSDOF 4
ENDMDL
MODEL 5
REMARK VINA RESULT:      -8.8      7.515      9.416
REMARK  Name = 763808
REMARK  4 active torsions:
REMARK  status: ('A' for Active; 'I' for Inactive)
REMARK    1  A    between atoms: C_2  and  C_9
REMARK    2  A    between atoms: C_5  and  N_19
REMARK    3  A    between atoms: C_11  and  C_14
REMARK    4  A    between atoms: C_14  and  O_15
REMARK                            x       y       z     vdW  Elec       q    Type
REMARK                         _______ _______ _______ _____ _____    ______ ____
ROOT
ATOM      1 CL   UNL     1      34.207 -22.795 -17.868  0.00  0.00    -0.082 Cl
ATOM      2  C   UNL     1      33.466 -23.731 -15.405  0.00  0.00    +0.045 C 
ATOM      3  C   UNL     1      33.067 -23.191 -16.628  0.00  0.00    +0.062 C 
ATOM      4  C   UNL     1      32.512 -24.037 -14.433  0.00  0.00    +0.006 C 
ATOM      5  C   UNL     1      30.762 -23.260 -15.907  0.00  0.00    +0.144 C 
ATOM      6  C   UNL     1      31.715 -22.955 -16.878  0.00  0.00    +0.036 C 
ATOM      7  C   UNL     1      31.161 -23.801 -14.684  0.00  0.00    +0.024 C 
ENDROOT
BRANCH   2   9
ATOM      8  O   UNL     1      35.280 -25.246 -15.384  0.00  0.00    -0.447 OA
ATOM      9  C   UNL     1      34.857 -23.990 -15.101  0.00  0.00    +0.146 C 
ATOM     10  C   UNL     1      35.866 -23.231 -14.577  0.00  0.00    +0.041 C 
ATOM     11  C   UNL     1      36.592 -25.291 -15.033  0.00  0.00    +0.220 C 
ATOM     12  C   UNL     1      37.000 -24.078 -14.532  0.00  0.00    +0.047 C 
BRANCH  11  14
ATOM     13  O   UNL     1      38.261 -26.938 -14.557  0.00  0.00    -0.242 OA
ATOM     14  C   UNL     1      37.290 -26.516 -15.229  0.00  0.00    +0.373 C 
BRANCH  14  15
ATOM     15  O   UNL     1      36.805 -27.268 -16.270  0.00  0.00    -0.475 OA
ATOM     16  H   UNL     1      36.459 -28.124 -16.108  0.00  0.00    +0.296 HD
ENDBRANCH  14  15
ENDBRANCH  11  14
ENDBRANCH   2   9
BRANCH   5  19
ATOM     17  O   UNL     1      28.528 -23.669 -15.516  0.00  0.00    -0.126 OA
ATOM     18  O   UNL     1      29.067 -22.173 -17.028  0.00  0.00    -0.126 OA
ATOM     19  N   UNL     1      29.386 -23.023 -16.163  0.00  0.00    +0.058 N 
ENDBRANCH   5  19
TORSDOF 4
ENDMDL
MODEL 6
REMARK VINA RESULT:      -8.5      3.371      6.839
REMARK  Name = 763808
REMARK  4 active torsions:
REMARK  status: ('A' for Active; 'I' for Inactive)
REMARK    1  A    between atoms: C_2  and  C_9
REMARK    2  A    between atoms: C_5  and  N_19
REMARK    3  A    between atoms: C_11  and  C_14
REMARK    4  A    between atoms: C_14  and  O_15
REMARK                            x       y       z     vdW  Elec       q    Type
REMARK                         _______ _______ _______ _____ _____    ______ ____
ROOT
ATOM      1 CL   UNL     1      34.815 -17.906 -24.355  0.00  0.00    -0.082 Cl
ATOM      2  C   UNL     1      34.720 -16.892 -21.814  0.00  0.00    +0.045 C 
ATOM      3  C   UNL     1      34.545 -16.665 -23.179  0.00  0.00    +0.062 C 
ATOM      4  C   UNL     1      34.490 -15.862 -20.901  0.00  0.00    +0.006 C 
ATOM      5  C   UNL     1      33.909 -14.380 -22.719  0.00  0.00    +0.144 C 
ATOM      6  C   UNL     1      34.139 -15.409 -23.631  0.00  0.00    +0.036 C 
ATOM      7  C   UNL     1      34.085 -14.607 -21.354  0.00  0.00    +0.024 C 
ENDROOT
BRANCH   2   9
ATOM      8  O   UNL     1      34.142 -18.961 -20.832  0.00  0.00    -0.447 OA
ATOM      9  C   UNL     1      35.142 -18.177 -21.301  0.00  0.00    +0.146 C 
ATOM     10  C   UNL     1      36.357 -18.793 -21.179  0.00  0.00    +0.041 C 
ATOM     11  C   UNL     1      34.731 -20.107 -20.400  0.00  0.00    +0.220 C 
ATOM     12  C   UNL     1      36.092 -20.054 -20.591  0.00  0.00    +0.047 C 
BRANCH  11  14
ATOM     13  O   UNL     1      32.649 -21.064 -19.709  0.00  0.00    -0.242 OA
ATOM     14  C   UNL     1      33.894 -21.119 -19.850  0.00  0.00    +0.373 C 
BRANCH  14  15
ATOM     15  O   UNL     1      34.574 -22.244 -19.456  0.00  0.00    -0.475 OA
ATOM     16  H   UNL     1      35.502 -22.209 -19.325  0.00  0.00    +0.296 HD
ENDBRANCH  14  15
ENDBRANCH  11  14
ENDBRANCH   2   9
BRANCH   5  19
ATOM     17  O   UNL     1      34.083 -12.591 -24.161  0.00  0.00    -0.126 OA
ATOM     18  O   UNL     1      32.551 -12.522 -22.591  0.00  0.00    -0.126 OA
ATOM     19  N   UNL     1      33.494 -13.103 -23.179  0.00  0.00    +0.058 N 
ENDBRANCH   5  19
TORSDOF 4
ENDMDL
MODEL 7
REMARK VINA RESULT:      -8.3      6.588      8.495
REMARK  Name = 763808
REMARK  4 active torsions:
REMARK  status: ('A' for Active; 'I' for Inactive)
REMARK    1  A    between atoms: C_2  and  C_9
REMARK    2  A    between atoms: C_5  and  N_19
REMARK    3  A    between atoms: C_11  and  C_14
REMARK    4  A    between atoms: C_14  and  O_15
REMARK                            x       y       z     vdW  Elec       q    Type
REMARK                         _______ _______ _______ _____ _____    ______ ____
ROOT
ATOM      1 CL   UNL     1      32.816 -23.693 -13.467  0.00  0.00    -0.082 Cl
ATOM      2  C   UNL     1      32.475 -23.366 -16.163  0.00  0.00    +0.045 C 
ATOM      3  C   UNL     1      33.349 -23.344 -15.076  0.00  0.00    +0.062 C 
ATOM      4  C   UNL     1      32.948 -23.080 -17.444  0.00  0.00    +0.006 C 
ATOM      5  C   UNL     1      35.169 -22.750 -16.550  0.00  0.00    +0.144 C 
ATOM      6  C   UNL     1      34.695 -23.036 -15.270  0.00  0.00    +0.036 C 
ATOM      7  C   UNL     1      34.295 -22.771 -17.637  0.00  0.00    +0.024 C 
ENDROOT
BRANCH   2   9
ATOM      8  O   UNL     1      30.229 -22.895 -16.727  0.00  0.00    -0.447 OA
ATOM      9  C   UNL     1      31.070 -23.678 -16.009  0.00  0.00    +0.146 C 
ATOM     10  C   UNL     1      30.384 -24.610 -15.282  0.00  0.00    +0.041 C 
ATOM     11  C   UNL     1      28.974 -23.337 -16.452  0.00  0.00    +0.220 C 
ATOM     12  C   UNL     1      29.015 -24.390 -15.569  0.00  0.00    +0.047 C 
BRANCH  11  14
ATOM     13  O   UNL     1      27.462 -21.523 -16.837  0.00  0.00    -0.242 OA
ATOM     14  C   UNL     1      27.883 -22.677 -17.085  0.00  0.00    +0.373 C 
BRANCH  14  15
ATOM     15  O   UNL     1      27.273 -23.430 -18.059  0.00  0.00    -0.475 OA
ATOM     16  H   UNL     1      26.467 -23.872 -17.873  0.00  0.00    +0.296 HD
ENDBRANCH  14  15
ENDBRANCH  11  14
ENDBRANCH   2   9
BRANCH   5  19
ATOM     17  O   UNL     1      37.399 -22.987 -16.015  0.00  0.00    -0.126 OA
ATOM     18  O   UNL     1      36.854 -21.624 -17.647  0.00  0.00    -0.126 OA
ATOM     19  N   UNL     1      36.540 -22.438 -16.747  0.00  0.00    +0.058 N 
ENDBRANCH   5  19
TORSDOF 4
ENDMDL
MODEL 8
REMARK VINA RESULT:      -8.3      7.916     10.180
REMARK  Name = 763808
REMARK  4 active torsions:
REMARK  status: ('A' for Active; 'I' for Inactive)
REMARK    1  A    between atoms: C_2  and  C_9
REMARK    2  A    between atoms: C_5  and  N_19
REMARK    3  A    between atoms: C_11  and  C_14
REMARK    4  A    between atoms: C_14  and  O_15
REMARK                            x       y       z     vdW  Elec       q    Type
REMARK                         _______ _______ _______ _____ _____    ______ ____
ROOT
ATOM      1 CL   UNL     1      33.856 -23.220 -17.449  0.00  0.00    -0.082 Cl
ATOM      2  C   UNL     1      32.761 -23.274 -14.941  0.00  0.00    +0.045 C 
ATOM      3  C   UNL     1      32.551 -23.151 -16.314  0.00  0.00    +0.062 C 
ATOM      4  C   UNL     1      31.679 -23.213 -14.062  0.00  0.00    +0.006 C 
ATOM      5  C   UNL     1      30.178 -22.908 -15.931  0.00  0.00    +0.144 C 
ATOM      6  C   UNL     1      31.260 -22.968 -16.809  0.00  0.00    +0.036 C 
ATOM      7  C   UNL     1      30.388 -23.030 -14.557  0.00  0.00    +0.024 C 
ENDROOT
BRANCH   2   9
ATOM      8  O   UNL     1      34.125 -24.207 -13.252  0.00  0.00    -0.447 OA
ATOM      9  C   UNL     1      34.083 -23.462 -14.383  0.00  0.00    +0.146 C 
ATOM     10  C   UNL     1      35.332 -23.046 -14.752  0.00  0.00    +0.041 C 
ATOM     11  C   UNL     1      35.433 -24.269 -12.888  0.00  0.00    +0.220 C 
ATOM     12  C   UNL     1      36.215 -23.571 -13.778  0.00  0.00    +0.047 C 
BRANCH  11  14
ATOM     13  O   UNL     1      35.239 -24.876 -10.582  0.00  0.00    -0.242 OA
ATOM     14  C   UNL     1      35.763 -25.002 -11.714  0.00  0.00    +0.373 C 
BRANCH  14  15
ATOM     15  O   UNL     1      36.759 -25.928 -11.904  0.00  0.00    -0.475 OA
ATOM     16  H   UNL     1      36.634 -26.814 -11.624  0.00  0.00    +0.296 HD
ENDBRANCH  14  15
ENDBRANCH  11  14
ENDBRANCH   2   9
BRANCH   5  19
ATOM     17  O   UNL     1      28.530 -23.312 -17.491  0.00  0.00    -0.126 OA
ATOM     18  O   UNL     1      28.072 -21.978 -15.809  0.00  0.00    -0.126 OA
ATOM     19  N   UNL     1      28.864 -22.724 -16.434  0.00  0.00    +0.058 N 
ENDBRANCH   5  19
TORSDOF 4
ENDMDL
MODEL 9
REMARK VINA RESULT:      -8.1      3.305      4.537
REMARK  Name = 763808
REMARK  4 active torsions:
REMARK  status: ('A' for Active; 'I' for Inactive)
REMARK    1  A    between atoms: C_2  and  C_9
REMARK    2  A    between atoms: C_5  and  N_19
REMARK    3  A    between atoms: C_11  and  C_14
REMARK    4  A    between atoms: C_14  and  O_15
REMARK                            x       y       z     vdW  Elec       q    Type
REMARK                         _______ _______ _______ _____ _____    ______ ____
ROOT
ATOM      1 CL   UNL     1      34.579 -17.863 -25.426  0.00  0.00    -0.082 Cl
ATOM      2  C   UNL     1      34.436 -16.308 -23.178  0.00  0.00    +0.045 C 
ATOM      3  C   UNL     1      34.734 -17.553 -23.731  0.00  0.00    +0.062 C 
ATOM      4  C   UNL     1      34.577 -16.102 -21.805  0.00  0.00    +0.006 C 
ATOM      5  C   UNL     1      35.313 -18.388 -21.539  0.00  0.00    +0.144 C 
ATOM      6  C   UNL     1      35.172 -18.593 -22.910  0.00  0.00    +0.036 C 
ATOM      7  C   UNL     1      35.014 -17.142 -20.986  0.00  0.00    +0.024 C 
ENDROOT
BRANCH   2   9
ATOM      8  O   UNL     1      34.153 -13.976 -23.439  0.00  0.00    -0.447 OA
ATOM      9  C   UNL     1      33.976 -15.201 -23.990  0.00  0.00    +0.146 C 
ATOM     10  C   UNL     1      33.387 -15.114 -25.221  0.00  0.00    +0.041 C 
ATOM     11  C   UNL     1      33.666 -13.083 -24.340  0.00  0.00    +0.220 C 
ATOM     12  C   UNL     1      33.183 -13.732 -25.452  0.00  0.00    +0.047 C 
BRANCH  11  14
ATOM     13  O   UNL     1      32.916 -11.066 -23.292  0.00  0.00    -0.242 OA
ATOM     14  C   UNL     1      33.729 -11.701 -24.006  0.00  0.00    +0.373 C 
BRANCH  14  15
ATOM     15  O   UNL     1      34.811 -11.051 -24.547  0.00  0.00    -0.475 OA
ATOM     16  H   UNL     1      35.182 -11.350 -25.354  0.00  0.00    +0.296 HD
ENDBRANCH  14  15
ENDBRANCH  11  14
ENDBRANCH   2   9
BRANCH   5  19
ATOM     17  O   UNL     1      36.946 -19.434 -20.293  0.00  0.00    -0.126 OA
ATOM     18  O   UNL     1      34.959 -20.360 -20.400  0.00  0.00    -0.126 OA
ATOM     19  N   UNL     1      35.761 -19.445 -20.704  0.00  0.00    +0.058 N 
ENDBRANCH   5  19
TORSDOF 4
ENDMDL
