MODEL 1
REMARK VINA RESULT:      -8.1      0.000      0.000
REMARK  Name = 27501
REMARK  6 active torsions:
REMARK  status: ('A' for Active; 'I' for Inactive)
REMARK    1  A    between atoms: N_2  and  C_14
REMARK    2  A    between atoms: C_5  and  C_8
REMARK    3  A    between atoms: C_14  and  C_15
REMARK    4  A    between atoms: C_15  and  N_16
REMARK    5  A    between atoms: N_16  and  C_18
REMARK    6  A    between atoms: N_16  and  C_20
REMARK                            x       y       z     vdW  Elec       q    Type
REMARK                         _______ _______ _______ _____ _____    ______ ____
ROOT
ATOM      1  O   UNL     1      33.906 -17.924 -25.833  0.00  0.00    -0.314 OA
ATOM      2  N   UNL     1      34.558 -16.815 -24.036  0.00  0.00    -0.266 N 
ATOM      3  N   UNL     1      34.301 -18.870 -24.811  0.00  0.00    -0.055 NA
ATOM      4  N   UNL     1      33.817 -15.619 -26.016  0.00  0.00    -0.249 NA
ATOM      5  C   UNL     1      34.690 -18.153 -23.779  0.00  0.00    +0.186 A 
ATOM      6  C   UNL     1      34.089 -16.661 -25.311  0.00  0.00    +0.322 A 
ATOM      7  H   UNL     1      33.482 -15.720 -26.936  0.00  0.00    +0.191 HD
ENDROOT
BRANCH   5   8
ATOM      8  C   UNL     1      35.186 -18.786 -22.548  0.00  0.00    +0.037 C 
ATOM      9  C   UNL     1      36.513 -18.603 -22.150  0.00  0.00    +0.003 C 
ATOM     10  C   UNL     1      34.333 -19.573 -21.770  0.00  0.00    +0.003 C 
ATOM     11  C   UNL     1      36.985 -19.202 -20.983  0.00  0.00    +0.000 C 
ATOM     12  C   UNL     1      34.804 -20.172 -20.602  0.00  0.00    +0.000 C 
ATOM     13  C   UNL     1      36.130 -19.987 -20.209  0.00  0.00    +0.000 C 
ENDBRANCH   5   8
BRANCH   2  14
ATOM     14  C   UNL     1      34.812 -15.713 -23.136  0.00  0.00    +0.089 C 
BRANCH  14  15
ATOM     15  C   UNL     1      33.525 -15.327 -22.421  0.00  0.00    -0.052 C 
BRANCH  15  16
ATOM     16  N   UNL     1      32.960 -14.112 -23.008  0.00  0.00    +0.388 N 
ATOM     17  H   UNL     1      32.328 -14.381 -23.762  0.00  0.00    -0.080 HD
BRANCH  16  18
ATOM     18  C   UNL     1      34.021 -13.277 -23.570  0.00  0.00    -0.077 C 
ATOM     19  C   UNL     1      33.507 -11.885 -23.901  0.00  0.00    -0.025 C 
ENDBRANCH  16  18
BRANCH  16  20
ATOM     20  C   UNL     1      32.198 -13.367 -22.007  0.00  0.00    -0.077 C 
ATOM     21  C   UNL     1      32.537 -13.831 -20.601  0.00  0.00    -0.025 C 
ENDBRANCH  16  20
ENDBRANCH  15  16
ENDBRANCH  14  15
ENDBRANCH   2  14
TORSDOF 6
ENDMDL
MODEL 2
REMARK VINA RESULT:      -8.0      5.001      9.590
REMARK  Name = 27501
REMARK  6 active torsions:
REMARK  status: ('A' for Active; 'I' for Inactive)
REMARK    1  A    between atoms: N_2  and  C_14
REMARK    2  A    between atoms: C_5  and  C_8
REMARK    3  A    between atoms: C_14  and  C_15
REMARK    4  A    between atoms: C_15  and  N_16
REMARK    5  A    between atoms: N_16  and  C_18
REMARK    6  A    between atoms: N_16  and  C_20
REMARK                            x       y       z     vdW  Elec       q    Type
REMARK                         _______ _______ _______ _____ _____    ______ ____
ROOT
ATOM      1  O   UNL     1      32.176  -8.721 -19.158  0.00  0.00    -0.314 OA
ATOM      2  N   UNL     1      31.863  -9.511 -21.198  0.00  0.00    -0.266 N 
ATOM      3  N   UNL     1      32.707  -7.776 -20.119  0.00  0.00    -0.055 NA
ATOM      4  N   UNL     1      31.135 -10.784 -19.262  0.00  0.00    -0.249 NA
ATOM      5  C   UNL     1      32.505  -8.307 -21.305  0.00  0.00    +0.186 A 
ATOM      6  C   UNL     1      31.669  -9.786 -19.872  0.00  0.00    +0.322 A 
ATOM      7  H   UNL     1      31.091 -10.794 -18.279  0.00  0.00    +0.191 HD
ENDROOT
BRANCH   5   8
ATOM      8  C   UNL     1      32.940  -7.628 -22.534  0.00  0.00    +0.037 C 
ATOM      9  C   UNL     1      32.064  -6.776 -23.213  0.00  0.00    +0.003 C 
ATOM     10  C   UNL     1      34.230  -7.831 -23.030  0.00  0.00    +0.003 C 
ATOM     11  C   UNL     1      32.476  -6.131 -24.379  0.00  0.00    +0.000 C 
ATOM     12  C   UNL     1      34.642  -7.186 -24.195  0.00  0.00    +0.000 C 
ATOM     13  C   UNL     1      33.765  -6.336 -24.870  0.00  0.00    +0.000 C 
ENDBRANCH   5   8
BRANCH   2  14
ATOM     14  C   UNL     1      31.406 -10.367 -22.269  0.00  0.00    +0.089 C 
BRANCH  14  15
ATOM     15  C   UNL     1      32.507 -11.347 -22.648  0.00  0.00    -0.052 C 
BRANCH  15  16
ATOM     16  N   UNL     1      31.998 -12.718 -22.629  0.00  0.00    +0.388 N 
ATOM     17  H   UNL     1      30.992 -12.691 -22.791  0.00  0.00    -0.080 HD
BRANCH  16  18
ATOM     18  C   UNL     1      32.240 -13.335 -21.325  0.00  0.00    -0.077 C 
ATOM     19  C   UNL     1      32.598 -14.804 -21.470  0.00  0.00    -0.025 C 
ENDBRANCH  16  18
BRANCH  16  20
ATOM     20  C   UNL     1      32.618 -13.509 -23.692  0.00  0.00    -0.077 C 
ATOM     21  C   UNL     1      33.707 -12.720 -24.399  0.00  0.00    -0.025 C 
ENDBRANCH  16  20
ENDBRANCH  15  16
ENDBRANCH  14  15
ENDBRANCH   2  14
TORSDOF 6
ENDMDL
MODEL 3
REMARK VINA RESULT:      -7.8      1.358      5.697
REMARK  Name = 27501
REMARK  6 active torsions:
REMARK  status: ('A' for Active; 'I' for Inactive)
REMARK    1  A    between atoms: N_2  and  C_14
REMARK    2  A    between atoms: C_5  and  C_8
REMARK    3  A    between atoms: C_14  and  C_15
REMARK    4  A    between atoms: C_15  and  N_16
REMARK    5  A    between atoms: N_16  and  C_18
REMARK    6  A    between atoms: N_16  and  C_20
REMARK                            x       y       z     vdW  Elec       q    Type
REMARK                         _______ _______ _______ _____ _____    ______ ____
ROOT
ATOM      1  O   UNL     1      33.911 -16.864 -25.820  0.00  0.00    -0.314 OA
ATOM      2  N   UNL     1      34.372 -16.323 -23.727  0.00  0.00    -0.266 N 
ATOM      3  N   UNL     1      33.383 -15.544 -25.544  0.00  0.00    -0.055 NA
ATOM      4  N   UNL     1      35.062 -18.474 -24.621  0.00  0.00    -0.249 NA
ATOM      5  C   UNL     1      33.675 -15.287 -24.288  0.00  0.00    +0.186 A 
ATOM      6  C   UNL     1      34.509 -17.312 -24.661  0.00  0.00    +0.322 A 
ATOM      7  H   UNL     1      35.055 -19.050 -25.418  0.00  0.00    +0.191 HD
ENDROOT
BRANCH   5   8
ATOM      8  C   UNL     1      33.270 -14.027 -23.648  0.00  0.00    +0.037 C 
ATOM      9  C   UNL     1      32.457 -14.047 -22.511  0.00  0.00    +0.003 C 
ATOM     10  C   UNL     1      33.695 -12.804 -24.173  0.00  0.00    +0.003 C 
ATOM     11  C   UNL     1      32.072 -12.852 -21.904  0.00  0.00    +0.000 C 
ATOM     12  C   UNL     1      33.312 -11.610 -23.565  0.00  0.00    +0.000 C 
ATOM     13  C   UNL     1      32.500 -11.634 -22.430  0.00  0.00    +0.000 C 
ENDBRANCH   5   8
BRANCH   2  14
ATOM     14  C   UNL     1      34.929 -16.394 -22.395  0.00  0.00    +0.089 C 
BRANCH  14  15
ATOM     15  C   UNL     1      33.957 -17.115 -21.471  0.00  0.00    -0.052 C 
BRANCH  15  16
ATOM     16  N   UNL     1      34.571 -18.329 -20.933  0.00  0.00    +0.388 N 
ATOM     17  H   UNL     1      34.478 -18.315 -19.917  0.00  0.00    -0.080 HD
BRANCH  16  18
ATOM     18  C   UNL     1      35.995 -18.372 -21.266  0.00  0.00    -0.077 C 
ATOM     19  C   UNL     1      36.689 -19.525 -20.562  0.00  0.00    -0.025 C 
ENDBRANCH  16  18
BRANCH  16  20
ATOM     20  C   UNL     1      33.890 -19.517 -21.445  0.00  0.00    -0.077 C 
ATOM     21  C   UNL     1      33.038 -20.168 -20.368  0.00  0.00    -0.025 C 
ENDBRANCH  16  20
ENDBRANCH  15  16
ENDBRANCH  14  15
ENDBRANCH   2  14
TORSDOF 6
ENDMDL
MODEL 4
REMARK VINA RESULT:      -7.6      4.985      9.462
REMARK  Name = 27501
REMARK  6 active torsions:
REMARK  status: ('A' for Active; 'I' for Inactive)
REMARK    1  A    between atoms: N_2  and  C_14
REMARK    2  A    between atoms: C_5  and  C_8
REMARK    3  A    between atoms: C_14  and  C_15
REMARK    4  A    between atoms: C_15  and  N_16
REMARK    5  A    between atoms: N_16  and  C_18
REMARK    6  A    between atoms: N_16  and  C_20
REMARK                            x       y       z     vdW  Elec       q    Type
REMARK                         _______ _______ _______ _____ _____    ______ ____
ROOT
ATOM      1  O   UNL     1      32.188  -8.902 -19.287  0.00  0.00    -0.314 OA
ATOM      2  N   UNL     1      31.944  -9.635 -21.358  0.00  0.00    -0.266 N 
ATOM      3  N   UNL     1      32.710  -7.911 -20.205  0.00  0.00    -0.055 NA
ATOM      4  N   UNL     1      31.214 -10.991 -19.480  0.00  0.00    -0.249 NA
ATOM      5  C   UNL     1      32.550  -8.408 -21.411  0.00  0.00    +0.186 A 
ATOM      6  C   UNL     1      31.730  -9.958 -20.046  0.00  0.00    +0.322 A 
ATOM      7  H   UNL     1      31.149 -11.035 -18.499  0.00  0.00    +0.191 HD
ENDROOT
BRANCH   5   8
ATOM      8  C   UNL     1      32.991  -7.677 -22.608  0.00  0.00    +0.037 C 
ATOM      9  C   UNL     1      32.076  -6.915 -23.341  0.00  0.00    +0.003 C 
ATOM     10  C   UNL     1      34.324  -7.740 -23.019  0.00  0.00    +0.003 C 
ATOM     11  C   UNL     1      32.493  -6.221 -24.476  0.00  0.00    +0.000 C 
ATOM     12  C   UNL     1      34.741  -7.046 -24.153  0.00  0.00    +0.000 C 
ATOM     13  C   UNL     1      33.826  -6.286 -24.882  0.00  0.00    +0.000 C 
ENDBRANCH   5   8
BRANCH   2  14
ATOM     14  C   UNL     1      31.536 -10.468 -22.466  0.00  0.00    +0.089 C 
BRANCH  14  15
ATOM     15  C   UNL     1      32.170 -11.846 -22.331  0.00  0.00    -0.052 C 
BRANCH  15  16
ATOM     16  N   UNL     1      33.274 -11.994 -23.278  0.00  0.00    +0.388 N 
ATOM     17  H   UNL     1      34.152 -11.906 -22.766  0.00  0.00    -0.080 HD
BRANCH  16  18
ATOM     18  C   UNL     1      33.221 -10.942 -24.292  0.00  0.00    -0.077 C 
ATOM     19  C   UNL     1      34.540 -10.833 -25.039  0.00  0.00    -0.025 C 
ENDBRANCH  16  18
BRANCH  16  20
ATOM     20  C   UNL     1      33.235 -13.314 -23.907  0.00  0.00    -0.077 C 
ATOM     21  C   UNL     1      34.189 -14.278 -23.221  0.00  0.00    -0.025 C 
ENDBRANCH  16  20
ENDBRANCH  15  16
ENDBRANCH  14  15
ENDBRANCH   2  14
TORSDOF 6
ENDMDL
MODEL 5
REMARK VINA RESULT:      -7.6     10.547     13.064
REMARK  Name = 27501
REMARK  6 active torsions:
REMARK  status: ('A' for Active; 'I' for Inactive)
REMARK    1  A    between atoms: N_2  and  C_14
REMARK    2  A    between atoms: C_5  and  C_8
REMARK    3  A    between atoms: C_14  and  C_15
REMARK    4  A    between atoms: C_15  and  N_16
REMARK    5  A    between atoms: N_16  and  C_18
REMARK    6  A    between atoms: N_16  and  C_20
REMARK                            x       y       z     vdW  Elec       q    Type
REMARK                         _______ _______ _______ _____ _____    ______ ____
ROOT
ATOM      1  O   UNL     1      34.961 -24.711 -11.452  0.00  0.00    -0.314 OA
ATOM      2  N   UNL     1      35.966 -23.796 -13.194  0.00  0.00    -0.266 N 
ATOM      3  N   UNL     1      34.001 -24.556 -12.524  0.00  0.00    -0.055 NA
ATOM      4  N   UNL     1      37.204 -24.229 -11.150  0.00  0.00    -0.249 NA
ATOM      5  C   UNL     1      34.651 -23.996 -13.521  0.00  0.00    +0.186 A 
ATOM      6  C   UNL     1      36.165 -24.220 -11.909  0.00  0.00    +0.322 A 
ATOM      7  H   UNL     1      37.141 -24.584 -10.234  0.00  0.00    +0.191 HD
ENDROOT
BRANCH   5   8
ATOM      8  C   UNL     1      33.981 -23.665 -14.786  0.00  0.00    +0.037 C 
ATOM      9  C   UNL     1      32.586 -23.585 -14.841  0.00  0.00    +0.003 C 
ATOM     10  C   UNL     1      34.733 -23.428 -15.939  0.00  0.00    +0.003 C 
ATOM     11  C   UNL     1      31.949 -23.271 -16.041  0.00  0.00    +0.000 C 
ATOM     12  C   UNL     1      34.096 -23.113 -17.139  0.00  0.00    +0.000 C 
ATOM     13  C   UNL     1      32.704 -23.034 -17.190  0.00  0.00    +0.000 C 
ENDBRANCH   5   8
BRANCH   2  14
ATOM     14  C   UNL     1      37.015 -23.271 -14.038  0.00  0.00    +0.089 C 
BRANCH  14  15
ATOM     15  C   UNL     1      37.687 -24.412 -14.790  0.00  0.00    -0.052 C 
BRANCH  15  16
ATOM     16  N   UNL     1      38.118 -25.453 -13.857  0.00  0.00    +0.388 N 
ATOM     17  H   UNL     1      37.687 -25.274 -12.951  0.00  0.00    -0.080 HD
BRANCH  16  18
ATOM     18  C   UNL     1      39.571 -25.421 -13.693  0.00  0.00    -0.077 C 
ATOM     19  C   UNL     1      40.278 -25.491 -15.037  0.00  0.00    -0.025 C 
ENDBRANCH  16  18
BRANCH  16  20
ATOM     20  C   UNL     1      37.685 -26.770 -14.324  0.00  0.00    -0.077 C 
ATOM     21  C   UNL     1      36.584 -26.649 -15.364  0.00  0.00    -0.025 C 
ENDBRANCH  16  20
ENDBRANCH  15  16
ENDBRANCH  14  15
ENDBRANCH   2  14
TORSDOF 6
ENDMDL
MODEL 6
REMARK VINA RESULT:      -7.5      8.622     12.048
REMARK  Name = 27501
REMARK  6 active torsions:
REMARK  status: ('A' for Active; 'I' for Inactive)
REMARK    1  A    between atoms: N_2  and  C_14
REMARK    2  A    between atoms: C_5  and  C_8
REMARK    3  A    between atoms: C_14  and  C_15
REMARK    4  A    between atoms: C_15  and  N_16
REMARK    5  A    between atoms: N_16  and  C_18
REMARK    6  A    between atoms: N_16  and  C_20
REMARK                            x       y       z     vdW  Elec       q    Type
REMARK                         _______ _______ _______ _____ _____    ______ ____
ROOT
ATOM      1  O   UNL     1      33.106 -23.622 -13.624  0.00  0.00    -0.314 OA
ATOM      2  N   UNL     1      34.951 -24.176 -14.708  0.00  0.00    -0.266 N 
ATOM      3  N   UNL     1      33.091 -23.002 -14.933  0.00  0.00    -0.055 NA
ATOM      4  N   UNL     1      34.560 -24.988 -12.452  0.00  0.00    -0.249 NA
ATOM      5  C   UNL     1      34.214 -23.355 -15.519  0.00  0.00    +0.186 A 
ATOM      6  C   UNL     1      34.282 -24.335 -13.526  0.00  0.00    +0.322 A 
ATOM      7  H   UNL     1      33.934 -24.976 -11.693  0.00  0.00    +0.191 HD
ENDROOT
BRANCH   5   8
ATOM      8  C   UNL     1      34.556 -22.887 -16.870  0.00  0.00    +0.037 C 
ATOM      9  C   UNL     1      33.650 -23.056 -17.921  0.00  0.00    +0.003 C 
ATOM     10  C   UNL     1      35.786 -22.271 -17.110  0.00  0.00    +0.003 C 
ATOM     11  C   UNL     1      33.972 -22.612 -19.203  0.00  0.00    +0.000 C 
ATOM     12  C   UNL     1      36.109 -21.827 -18.391  0.00  0.00    +0.000 C 
ATOM     13  C   UNL     1      35.202 -21.997 -19.438  0.00  0.00    +0.000 C 
ENDBRANCH   5   8
BRANCH   2  14
ATOM     14  C   UNL     1      36.204 -24.827 -15.015  0.00  0.00    +0.089 C 
BRANCH  14  15
ATOM     15  C   UNL     1      37.335 -24.141 -14.260  0.00  0.00    -0.052 C 
BRANCH  15  16
ATOM     16  N   UNL     1      37.793 -24.981 -13.154  0.00  0.00    +0.388 N 
ATOM     17  H   UNL     1      37.006 -25.542 -12.827  0.00  0.00    -0.080 HD
BRANCH  16  18
ATOM     18  C   UNL     1      38.261 -24.152 -12.044  0.00  0.00    -0.077 C 
ATOM     19  C   UNL     1      37.434 -22.884 -11.917  0.00  0.00    -0.025 C 
ENDBRANCH  16  18
BRANCH  16  20
ATOM     20  C   UNL     1      38.853 -25.884 -13.601  0.00  0.00    -0.077 C 
ATOM     21  C   UNL     1      39.811 -25.180 -14.546  0.00  0.00    -0.025 C 
ENDBRANCH  16  20
ENDBRANCH  15  16
ENDBRANCH  14  15
ENDBRANCH   2  14
TORSDOF 6
ENDMDL
MODEL 7
REMARK VINA RESULT:      -7.5      1.581      2.481
REMARK  Name = 27501
REMARK  6 active torsions:
REMARK  status: ('A' for Active; 'I' for Inactive)
REMARK    1  A    between atoms: N_2  and  C_14
REMARK    2  A    between atoms: C_5  and  C_8
REMARK    3  A    between atoms: C_14  and  C_15
REMARK    4  A    between atoms: C_15  and  N_16
REMARK    5  A    between atoms: N_16  and  C_18
REMARK    6  A    between atoms: N_16  and  C_20
REMARK                            x       y       z     vdW  Elec       q    Type
REMARK                         _______ _______ _______ _____ _____    ______ ____
ROOT
ATOM      1  O   UNL     1      33.781 -15.482 -26.704  0.00  0.00    -0.314 OA
ATOM      2  N   UNL     1      33.825 -14.890 -24.575  0.00  0.00    -0.266 N 
ATOM      3  N   UNL     1      34.160 -16.627 -25.902  0.00  0.00    -0.055 NA
ATOM      4  N   UNL     1      33.249 -13.269 -26.290  0.00  0.00    -0.249 NA
ATOM      5  C   UNL     1      34.182 -16.210 -24.655  0.00  0.00    +0.186 A 
ATOM      6  C   UNL     1      33.590 -14.425 -25.840  0.00  0.00    +0.322 A 
ATOM      7  H   UNL     1      33.127 -13.133 -27.257  0.00  0.00    +0.191 HD
ENDROOT
BRANCH   5   8
ATOM      8  C   UNL     1      34.551 -17.108 -23.551  0.00  0.00    +0.037 C 
ATOM      9  C   UNL     1      34.475 -18.493 -23.718  0.00  0.00    +0.003 C 
ATOM     10  C   UNL     1      34.980 -16.581 -22.330  0.00  0.00    +0.003 C 
ATOM     11  C   UNL     1      34.824 -19.346 -22.672  0.00  0.00    +0.000 C 
ATOM     12  C   UNL     1      35.330 -17.433 -21.284  0.00  0.00    +0.000 C 
ATOM     13  C   UNL     1      35.253 -18.816 -21.455  0.00  0.00    +0.000 C 
ENDBRANCH   5   8
BRANCH   2  14
ATOM     14  C   UNL     1      33.664 -14.089 -23.383  0.00  0.00    +0.089 C 
BRANCH  14  15
ATOM     15  C   UNL     1      32.197 -13.722 -23.207  0.00  0.00    -0.052 C 
BRANCH  15  16
ATOM     16  N   UNL     1      31.933 -13.327 -21.824  0.00  0.00    +0.388 N 
ATOM     17  H   UNL     1      31.024 -13.698 -21.549  0.00  0.00    -0.080 HD
BRANCH  16  18
ATOM     18  C   UNL     1      31.892 -11.869 -21.708  0.00  0.00    -0.077 C 
ATOM     19  C   UNL     1      31.435 -11.441 -20.324  0.00  0.00    -0.025 C 
ENDBRANCH  16  18
BRANCH  16  20
ATOM     20  C   UNL     1      32.949 -13.882 -20.930  0.00  0.00    -0.077 C 
ATOM     21  C   UNL     1      32.466 -15.168 -20.281  0.00  0.00    -0.025 C 
ENDBRANCH  16  20
ENDBRANCH  15  16
ENDBRANCH  14  15
ENDBRANCH   2  14
TORSDOF 6
ENDMDL
MODEL 8
REMARK VINA RESULT:      -7.5      1.408      5.863
REMARK  Name = 27501
REMARK  6 active torsions:
REMARK  status: ('A' for Active; 'I' for Inactive)
REMARK    1  A    between atoms: N_2  and  C_14
REMARK    2  A    between atoms: C_5  and  C_8
REMARK    3  A    between atoms: C_14  and  C_15
REMARK    4  A    between atoms: C_15  and  N_16
REMARK    5  A    between atoms: N_16  and  C_18
REMARK    6  A    between atoms: N_16  and  C_20
REMARK                            x       y       z     vdW  Elec       q    Type
REMARK                         _______ _______ _______ _____ _____    ______ ____
ROOT
ATOM      1  O   UNL     1      33.412 -16.064 -26.408  0.00  0.00    -0.314 OA
ATOM      2  N   UNL     1      34.153 -15.637 -24.370  0.00  0.00    -0.266 N 
ATOM      3  N   UNL     1      32.953 -14.752 -26.002  0.00  0.00    -0.055 NA
ATOM      4  N   UNL     1      34.675 -17.749 -25.451  0.00  0.00    -0.249 NA
ATOM      5  C   UNL     1      33.411 -14.563 -24.783  0.00  0.00    +0.186 A 
ATOM      6  C   UNL     1      34.147 -16.579 -25.361  0.00  0.00    +0.322 A 
ATOM      7  H   UNL     1      34.552 -18.284 -26.267  0.00  0.00    +0.191 HD
ENDROOT
BRANCH   5   8
ATOM      8  C   UNL     1      33.120 -13.332 -24.035  0.00  0.00    +0.037 C 
ATOM      9  C   UNL     1      33.689 -12.119 -24.432  0.00  0.00    +0.003 C 
ATOM     10  C   UNL     1      32.274 -13.368 -22.924  0.00  0.00    +0.003 C 
ATOM     11  C   UNL     1      33.414 -10.950 -23.723  0.00  0.00    +0.000 C 
ATOM     12  C   UNL     1      31.998 -12.200 -22.215  0.00  0.00    +0.000 C 
ATOM     13  C   UNL     1      32.568 -10.991 -22.615  0.00  0.00    +0.000 C 
ENDBRANCH   5   8
BRANCH   2  14
ATOM     14  C   UNL     1      34.877 -15.784 -23.128  0.00  0.00    +0.089 C 
BRANCH  14  15
ATOM     15  C   UNL     1      34.147 -16.766 -22.222  0.00  0.00    -0.052 C 
BRANCH  15  16
ATOM     16  N   UNL     1      34.849 -18.048 -22.188  0.00  0.00    +0.388 N 
ATOM     17  H   UNL     1      35.450 -18.110 -23.010  0.00  0.00    -0.080 HD
BRANCH  16  18
ATOM     18  C   UNL     1      33.894 -19.154 -22.229  0.00  0.00    -0.077 C 
ATOM     19  C   UNL     1      33.430 -19.532 -20.832  0.00  0.00    -0.025 C 
ENDBRANCH  16  18
BRANCH  16  20
ATOM     20  C   UNL     1      35.688 -18.140 -20.993  0.00  0.00    -0.077 C 
ATOM     21  C   UNL     1      36.904 -19.016 -21.242  0.00  0.00    -0.025 C 
ENDBRANCH  16  20
ENDBRANCH  15  16
ENDBRANCH  14  15
ENDBRANCH   2  14
TORSDOF 6
ENDMDL
MODEL 9
REMARK VINA RESULT:      -7.5      2.585      6.714
REMARK  Name = 27501
REMARK  6 active torsions:
REMARK  status: ('A' for Active; 'I' for Inactive)
REMARK    1  A    between atoms: N_2  and  C_14
REMARK    2  A    between atoms: C_5  and  C_8
REMARK    3  A    between atoms: C_14  and  C_15
REMARK    4  A    between atoms: C_15  and  N_16
REMARK    5  A    between atoms: N_16  and  C_18
REMARK    6  A    between atoms: N_16  and  C_20
REMARK                            x       y       z     vdW  Elec       q    Type
REMARK                         _______ _______ _______ _____ _____    ______ ____
ROOT
ATOM      1  O   UNL     1      33.617 -13.900 -27.365  0.00  0.00    -0.314 OA
ATOM      2  N   UNL     1      33.287 -13.679 -25.191  0.00  0.00    -0.266 N 
ATOM      3  N   UNL     1      33.906 -12.535 -26.979  0.00  0.00    -0.055 NA
ATOM      4  N   UNL     1      32.905 -15.816 -26.281  0.00  0.00    -0.249 NA
ATOM      5  C   UNL     1      33.678 -12.463 -25.686  0.00  0.00    +0.186 A 
ATOM      6  C   UNL     1      33.229 -14.572 -26.225  0.00  0.00    +0.322 A 
ATOM      7  H   UNL     1      32.928 -16.293 -27.141  0.00  0.00    +0.191 HD
ENDROOT
BRANCH   5   8
ATOM      8  C   UNL     1      33.849 -11.206 -24.944  0.00  0.00    +0.037 C 
ATOM      9  C   UNL     1      32.897 -10.814 -23.999  0.00  0.00    +0.003 C 
ATOM     10  C   UNL     1      34.962 -10.396 -25.181  0.00  0.00    +0.003 C 
ATOM     11  C   UNL     1      33.057  -9.621 -23.295  0.00  0.00    +0.000 C 
ATOM     12  C   UNL     1      35.124  -9.204 -24.477  0.00  0.00    +0.000 C 
ATOM     13  C   UNL     1      34.171  -8.816 -23.534  0.00  0.00    +0.000 C 
ENDBRANCH   5   8
BRANCH   2  14
ATOM     14  C   UNL     1      33.012 -14.025 -23.816  0.00  0.00    +0.089 C 
BRANCH  14  15
ATOM     15  C   UNL     1      34.263 -14.613 -23.175  0.00  0.00    -0.052 C 
BRANCH  15  16
ATOM     16  N   UNL     1      34.134 -16.063 -23.041  0.00  0.00    +0.388 N 
ATOM     17  H   UNL     1      33.278 -16.357 -23.512  0.00  0.00    -0.080 HD
BRANCH  16  18
ATOM     18  C   UNL     1      34.037 -16.439 -21.631  0.00  0.00    -0.077 C 
ATOM     19  C   UNL     1      34.532 -15.320 -20.730  0.00  0.00    -0.025 C 
ENDBRANCH  16  18
BRANCH  16  20
ATOM     20  C   UNL     1      35.266 -16.739 -23.674  0.00  0.00    -0.077 C 
ATOM     21  C   UNL     1      34.878 -18.125 -24.158  0.00  0.00    -0.025 C 
ENDBRANCH  16  20
ENDBRANCH  15  16
ENDBRANCH  14  15
ENDBRANCH   2  14
TORSDOF 6
ENDMDL
