MODEL 1
REMARK VINA RESULT:      -8.5      0.000      0.000
REMARK  Name = 6102781
REMARK  11 active torsions:
REMARK  status: ('A' for Active; 'I' for Inactive)
REMARK    1  A    between atoms: P_1  and  O_3
REMARK    2  A    between atoms: P_1  and  C_5
REMARK    3  A    between atoms: P_1  and  C_17
REMARK    4  A    between atoms: C_5  and  C_6
REMARK    5  A    between atoms: C_6  and  C_8
REMARK    6  A    between atoms: C_6  and  C_11
REMARK    7  A    between atoms: C_8  and  O_9
REMARK    8  A    between atoms: C_11  and  C_12
REMARK    9  A    between atoms: C_12  and  C_14
REMARK   10  A    between atoms: C_14  and  O_15
REMARK   11  A    between atoms: C_17  and  C_19
REMARK                            x       y       z     vdW  Elec       q    Type
REMARK                         _______ _______ _______ _____ _____    ______ ____
ROOT
ATOM      1  P   UNL     1      34.979 -24.271 -13.816  0.00  0.00    +0.224 P 
ATOM      2  O   UNL     1      34.392 -24.259 -12.449  0.00  0.00    -0.289 OA
ENDROOT
BRANCH   1   3
ATOM      3  O   UNL     1      34.660 -25.590 -14.683  0.00  0.00    -0.343 OA
ATOM      4  H   UNL     1      35.421 -25.800 -15.245  0.00  0.00    +0.218 HD
ENDBRANCH   1   3
BRANCH   1   5
ATOM      5  C   UNL     1      36.787 -24.246 -13.811  0.00  0.00    +0.098 C 
BRANCH   5   6
ATOM      6  C   UNL     1      37.430 -24.874 -12.572  0.00  0.00    +0.109 C 
BRANCH   6   8
ATOM      7  O   UNL     1      38.643 -22.970 -11.651  0.00  0.00    -0.250 OA
ATOM      8  C   UNL     1      37.729 -23.778 -11.560  0.00  0.00    +0.314 C 
BRANCH   8   9
ATOM      9  O   UNL     1      36.844 -23.775 -10.531  0.00  0.00    -0.480 OA
ATOM     10  H   UNL     1      36.040 -24.252 -10.602  0.00  0.00    +0.295 HD
ENDBRANCH   8   9
ENDBRANCH   6   8
BRANCH   6  11
ATOM     11  C   UNL     1      38.696 -25.673 -12.940  0.00  0.00    +0.023 C 
BRANCH  11  12
ATOM     12  C   UNL     1      38.877 -25.878 -14.444  0.00  0.00    +0.110 C 
BRANCH  12  14
ATOM     13  O   UNL     1      40.960 -24.650 -14.330  0.00  0.00    -0.250 OA
ATOM     14  C   UNL     1      40.224 -25.418 -14.934  0.00  0.00    +0.314 C 
BRANCH  14  15
ATOM     15  O   UNL     1      40.523 -25.962 -16.139  0.00  0.00    -0.480 OA
ATOM     16  H   UNL     1      40.494 -26.892 -16.253  0.00  0.00    +0.295 HD
ENDBRANCH  14  15
ENDBRANCH  12  14
ENDBRANCH  11  12
ENDBRANCH   6  11
ENDBRANCH   5   6
ENDBRANCH   1   5
BRANCH   1  17
ATOM     17  C   UNL     1      34.480 -22.936 -14.866  0.00  0.00    +0.113 C 
BRANCH  17  19
ATOM     18  I   UNL     1      28.336 -23.135 -16.489  0.00  0.00    -0.043 I 
ATOM     19  C   UNL     1      33.029 -22.984 -15.249  0.00  0.00    -0.012 C 
ATOM     20  C   UNL     1      32.676 -23.128 -16.585  0.00  0.00    -0.003 C 
ATOM     21  C   UNL     1      32.055 -22.882 -14.264  0.00  0.00    -0.003 C 
ATOM     22  C   UNL     1      31.329 -23.172 -16.941  0.00  0.00    +0.005 C 
ATOM     23  C   UNL     1      30.707 -22.926 -14.620  0.00  0.00    +0.005 C 
ATOM     24  C   UNL     1      30.344 -23.072 -15.959  0.00  0.00    +0.030 C 
ENDBRANCH  17  19
ENDBRANCH   1  17
TORSDOF 11
ENDMDL
MODEL 2
REMARK VINA RESULT:      -8.4      1.560      2.203
REMARK  Name = 6102781
REMARK  11 active torsions:
REMARK  status: ('A' for Active; 'I' for Inactive)
REMARK    1  A    between atoms: P_1  and  O_3
REMARK    2  A    between atoms: P_1  and  C_5
REMARK    3  A    between atoms: P_1  and  C_17
REMARK    4  A    between atoms: C_5  and  C_6
REMARK    5  A    between atoms: C_6  and  C_8
REMARK    6  A    between atoms: C_6  and  C_11
REMARK    7  A    between atoms: C_8  and  O_9
REMARK    8  A    between atoms: C_11  and  C_12
REMARK    9  A    between atoms: C_12  and  C_14
REMARK   10  A    between atoms: C_14  and  O_15
REMARK   11  A    between atoms: C_17  and  C_19
REMARK                            x       y       z     vdW  Elec       q    Type
REMARK                         _______ _______ _______ _____ _____    ______ ____
ROOT
ATOM      1  P   UNL     1      36.512 -23.871 -15.273  0.00  0.00    +0.224 P 
ATOM      2  O   UNL     1      36.132 -25.263 -15.635  0.00  0.00    -0.289 OA
ENDROOT
BRANCH   1   3
ATOM      3  O   UNL     1      37.837 -23.316 -16.000  0.00  0.00    -0.343 OA
ATOM      4  H   UNL     1      37.587 -22.822 -16.796  0.00  0.00    +0.218 HD
ENDBRANCH   1   3
BRANCH   1   5
ATOM      5  C   UNL     1      36.929 -23.684 -13.523  0.00  0.00    +0.098 C 
BRANCH   5   6
ATOM      6  C   UNL     1      36.734 -24.947 -12.682  0.00  0.00    +0.109 C 
BRANCH   6   8
ATOM      7  O   UNL     1      35.382 -25.097 -10.658  0.00  0.00    -0.250 OA
ATOM      8  C   UNL     1      36.276 -24.547 -11.288  0.00  0.00    +0.314 C 
BRANCH   8   9
ATOM      9  O   UNL     1      36.991 -23.505 -10.792  0.00  0.00    -0.480 OA
ATOM     10  H   UNL     1      37.026 -23.357  -9.868  0.00  0.00    +0.295 HD
ENDBRANCH   8   9
ENDBRANCH   6   8
BRANCH   6  11
ATOM     11  C   UNL     1      38.018 -25.798 -12.639  0.00  0.00    +0.023 C 
BRANCH  11  12
ATOM     12  C   UNL     1      39.238 -25.099 -13.242  0.00  0.00    +0.110 C 
BRANCH  12  14
ATOM     13  O   UNL     1      41.024 -26.426 -14.196  0.00  0.00    -0.250 OA
ATOM     14  C   UNL     1      39.913 -25.926 -14.305  0.00  0.00    +0.314 C 
BRANCH  14  15
ATOM     15  O   UNL     1      39.132 -26.047 -15.406  0.00  0.00    -0.480 OA
ATOM     16  H   UNL     1      38.594 -26.805 -15.517  0.00  0.00    +0.295 HD
ENDBRANCH  14  15
ENDBRANCH  12  14
ENDBRANCH  11  12
ENDBRANCH   6  11
ENDBRANCH   5   6
ENDBRANCH   1   5
BRANCH   1  17
ATOM     17  C   UNL     1      35.287 -22.639 -15.612  0.00  0.00    +0.113 C 
BRANCH  17  19
ATOM     18  I   UNL     1      29.323 -24.769 -15.051  0.00  0.00    -0.043 I 
ATOM     19  C   UNL     1      33.878 -23.142 -15.479  0.00  0.00    -0.012 C 
ATOM     20  C   UNL     1      33.445 -23.659 -14.265  0.00  0.00    -0.003 C 
ATOM     21  C   UNL     1      33.024 -23.085 -16.573  0.00  0.00    -0.003 C 
ATOM     22  C   UNL     1      32.137 -24.126 -14.142  0.00  0.00    +0.005 C 
ATOM     23  C   UNL     1      31.715 -23.552 -16.450  0.00  0.00    +0.005 C 
ATOM     24  C   UNL     1      31.271 -24.072 -15.234  0.00  0.00    +0.030 C 
ENDBRANCH  17  19
ENDBRANCH   1  17
TORSDOF 11
ENDMDL
MODEL 3
REMARK VINA RESULT:      -8.4      3.360      4.992
REMARK  Name = 6102781
REMARK  11 active torsions:
REMARK  status: ('A' for Active; 'I' for Inactive)
REMARK    1  A    between atoms: P_1  and  O_3
REMARK    2  A    between atoms: P_1  and  C_5
REMARK    3  A    between atoms: P_1  and  C_17
REMARK    4  A    between atoms: C_5  and  C_6
REMARK    5  A    between atoms: C_6  and  C_8
REMARK    6  A    between atoms: C_6  and  C_11
REMARK    7  A    between atoms: C_8  and  O_9
REMARK    8  A    between atoms: C_11  and  C_12
REMARK    9  A    between atoms: C_12  and  C_14
REMARK   10  A    between atoms: C_14  and  O_15
REMARK   11  A    between atoms: C_17  and  C_19
REMARK                            x       y       z     vdW  Elec       q    Type
REMARK                         _______ _______ _______ _____ _____    ______ ____
ROOT
ATOM      1  P   UNL     1      34.961 -23.183 -15.725  0.00  0.00    +0.224 P 
ATOM      2  O   UNL     1      36.081 -22.213 -15.859  0.00  0.00    -0.289 OA
ENDROOT
BRANCH   1   3
ATOM      3  O   UNL     1      33.843 -22.787 -14.636  0.00  0.00    -0.343 OA
ATOM      4  H   UNL     1      33.101 -23.407 -14.695  0.00  0.00    +0.218 HD
ENDBRANCH   1   3
BRANCH   1   5
ATOM      5  C   UNL     1      35.500 -24.809 -15.144  0.00  0.00    +0.098 C 
BRANCH   5   6
ATOM      6  C   UNL     1      36.992 -24.908 -14.818  0.00  0.00    +0.109 C 
BRANCH   6   8
ATOM      7  O   UNL     1      38.410 -26.870 -14.524  0.00  0.00    -0.250 OA
ATOM      8  C   UNL     1      37.462 -26.331 -15.080  0.00  0.00    +0.314 C 
BRANCH   8   9
ATOM      9  O   UNL     1      36.693 -26.964 -16.002  0.00  0.00    -0.480 OA
ATOM     10  H   UNL     1      35.784 -27.116 -15.831  0.00  0.00    +0.295 HD
ENDBRANCH   8   9
ENDBRANCH   6   8
BRANCH   6  11
ATOM     11  C   UNL     1      37.280 -24.469 -13.370  0.00  0.00    +0.023 C 
BRANCH  11  12
ATOM     12  C   UNL     1      36.465 -25.229 -12.323  0.00  0.00    +0.110 C 
BRANCH  12  14
ATOM     13  O   UNL     1      36.085 -24.255 -10.140  0.00  0.00    -0.250 OA
ATOM     14  C   UNL     1      35.801 -24.314 -11.328  0.00  0.00    +0.314 C 
BRANCH  14  15
ATOM     15  O   UNL     1      34.842 -23.559 -11.917  0.00  0.00    -0.480 OA
ATOM     16  H   UNL     1      33.938 -23.759 -11.778  0.00  0.00    +0.295 HD
ENDBRANCH  14  15
ENDBRANCH  12  14
ENDBRANCH  11  12
ENDBRANCH   6  11
ENDBRANCH   5   6
ENDBRANCH   1   5
BRANCH   1  17
ATOM     17  C   UNL     1      34.035 -23.480 -17.203  0.00  0.00    +0.113 C 
BRANCH  17  19
ATOM     18  I   UNL     1      34.954 -19.082 -21.702  0.00  0.00    -0.043 I 
ATOM     19  C   UNL     1      34.252 -22.442 -18.266  0.00  0.00    -0.012 C 
ATOM     20  C   UNL     1      35.547 -22.088 -18.627  0.00  0.00    -0.003 C 
ATOM     21  C   UNL     1      33.156 -21.845 -18.877  0.00  0.00    -0.003 C 
ATOM     22  C   UNL     1      35.748 -21.124 -19.614  0.00  0.00    +0.005 C 
ATOM     23  C   UNL     1      33.358 -20.880 -19.864  0.00  0.00    +0.005 C 
ATOM     24  C   UNL     1      34.654 -20.520 -20.233  0.00  0.00    +0.030 C 
ENDBRANCH  17  19
ENDBRANCH   1  17
TORSDOF 11
ENDMDL
MODEL 4
REMARK VINA RESULT:      -8.2     10.093     12.364
REMARK  Name = 6102781
REMARK  11 active torsions:
REMARK  status: ('A' for Active; 'I' for Inactive)
REMARK    1  A    between atoms: P_1  and  O_3
REMARK    2  A    between atoms: P_1  and  C_5
REMARK    3  A    between atoms: P_1  and  C_17
REMARK    4  A    between atoms: C_5  and  C_6
REMARK    5  A    between atoms: C_6  and  C_8
REMARK    6  A    between atoms: C_6  and  C_11
REMARK    7  A    between atoms: C_8  and  O_9
REMARK    8  A    between atoms: C_11  and  C_12
REMARK    9  A    between atoms: C_12  and  C_14
REMARK   10  A    between atoms: C_14  and  O_15
REMARK   11  A    between atoms: C_17  and  C_19
REMARK                            x       y       z     vdW  Elec       q    Type
REMARK                         _______ _______ _______ _____ _____    ______ ____
ROOT
ATOM      1  P   UNL     1      34.376 -17.180 -21.560  0.00  0.00    +0.224 P 
ATOM      2  O   UNL     1      33.034 -16.762 -21.072  0.00  0.00    -0.289 OA
ENDROOT
BRANCH   1   3
ATOM      3  O   UNL     1      35.564 -17.051 -20.482  0.00  0.00    -0.343 OA
ATOM      4  H   UNL     1      35.702 -17.906 -20.047  0.00  0.00    +0.218 HD
ENDBRANCH   1   3
BRANCH   1   5
ATOM      5  C   UNL     1      34.984 -16.159 -22.922  0.00  0.00    +0.098 C 
BRANCH   5   6
ATOM      6  C   UNL     1      33.907 -15.708 -23.912  0.00  0.00    +0.109 C 
BRANCH   6   8
ATOM      7  O   UNL     1      34.829 -17.317 -25.496  0.00  0.00    -0.250 OA
ATOM      8  C   UNL     1      34.234 -16.268 -25.288  0.00  0.00    +0.314 C 
BRANCH   8   9
ATOM      9  O   UNL     1      33.769 -15.475 -26.288  0.00  0.00    -0.480 OA
ATOM     10  H   UNL     1      34.161 -14.640 -26.445  0.00  0.00    +0.295 HD
ENDBRANCH   8   9
ENDBRANCH   6   8
BRANCH   6  11
ATOM     11  C   UNL     1      33.773 -14.174 -23.937  0.00  0.00    +0.023 C 
BRANCH  11  12
ATOM     12  C   UNL     1      32.373 -13.674 -23.578  0.00  0.00    +0.110 C 
BRANCH  12  14
ATOM     13  O   UNL     1      32.027 -11.817 -22.063  0.00  0.00    -0.250 OA
ATOM     14  C   UNL     1      32.328 -12.990 -22.236  0.00  0.00    +0.314 C 
BRANCH  14  15
ATOM     15  O   UNL     1      32.669 -13.841 -21.238  0.00  0.00    -0.480 OA
ATOM     16  H   UNL     1      32.498 -14.758 -21.326  0.00  0.00    +0.295 HD
ENDBRANCH  14  15
ENDBRANCH  12  14
ENDBRANCH  11  12
ENDBRANCH   6  11
ENDBRANCH   5   6
ENDBRANCH   1   5
BRANCH   1  17
ATOM     17  C   UNL     1      34.488 -18.854 -22.124  0.00  0.00    +0.113 C 
BRANCH  17  19
ATOM     18  I   UNL     1      33.572 -23.152 -17.529  0.00  0.00    -0.043 I 
ATOM     19  C   UNL     1      34.272 -19.869 -21.038  0.00  0.00    -0.012 C 
ATOM     20  C   UNL     1      35.362 -20.541 -20.498  0.00  0.00    -0.003 C 
ATOM     21  C   UNL     1      32.984 -20.126 -20.586  0.00  0.00    -0.003 C 
ATOM     22  C   UNL     1      35.161 -21.483 -19.490  0.00  0.00    +0.005 C 
ATOM     23  C   UNL     1      32.782 -21.069 -19.577  0.00  0.00    +0.005 C 
ATOM     24  C   UNL     1      33.871 -21.747 -19.029  0.00  0.00    +0.030 C 
ENDBRANCH  17  19
ENDBRANCH   1  17
TORSDOF 11
ENDMDL
MODEL 5
REMARK VINA RESULT:      -8.1     10.049     12.334
REMARK  Name = 6102781
REMARK  11 active torsions:
REMARK  status: ('A' for Active; 'I' for Inactive)
REMARK    1  A    between atoms: P_1  and  O_3
REMARK    2  A    between atoms: P_1  and  C_5
REMARK    3  A    between atoms: P_1  and  C_17
REMARK    4  A    between atoms: C_5  and  C_6
REMARK    5  A    between atoms: C_6  and  C_8
REMARK    6  A    between atoms: C_6  and  C_11
REMARK    7  A    between atoms: C_8  and  O_9
REMARK    8  A    between atoms: C_11  and  C_12
REMARK    9  A    between atoms: C_12  and  C_14
REMARK   10  A    between atoms: C_14  and  O_15
REMARK   11  A    between atoms: C_17  and  C_19
REMARK                            x       y       z     vdW  Elec       q    Type
REMARK                         _______ _______ _______ _____ _____    ______ ____
ROOT
ATOM      1  P   UNL     1      34.420 -17.256 -21.587  0.00  0.00    +0.224 P 
ATOM      2  O   UNL     1      33.083 -16.832 -21.092  0.00  0.00    -0.289 OA
ENDROOT
BRANCH   1   3
ATOM      3  O   UNL     1      35.619 -17.111 -20.523  0.00  0.00    -0.343 OA
ATOM      4  H   UNL     1      35.621 -17.878 -19.930  0.00  0.00    +0.218 HD
ENDBRANCH   1   3
BRANCH   1   5
ATOM      5  C   UNL     1      35.014 -16.253 -22.970  0.00  0.00    +0.098 C 
BRANCH   5   6
ATOM      6  C   UNL     1      33.911 -15.683 -23.864  0.00  0.00    +0.109 C 
BRANCH   6   8
ATOM      7  O   UNL     1      33.830 -15.506 -26.295  0.00  0.00    -0.250 OA
ATOM      8  C   UNL     1      34.150 -16.137 -25.296  0.00  0.00    +0.314 C 
BRANCH   8   9
ATOM      9  O   UNL     1      34.788 -17.334 -25.355  0.00  0.00    -0.480 OA
ATOM     10  H   UNL     1      35.488 -17.522 -24.762  0.00  0.00    +0.295 HD
ENDBRANCH   8   9
ENDBRANCH   6   8
BRANCH   6  11
ATOM     11  C   UNL     1      33.839 -14.147 -23.756  0.00  0.00    +0.023 C 
BRANCH  11  12
ATOM     12  C   UNL     1      32.430 -13.616 -23.486  0.00  0.00    +0.110 C 
BRANCH  12  14
ATOM     13  O   UNL     1      31.894 -11.893 -21.872  0.00  0.00    -0.250 OA
ATOM     14  C   UNL     1      32.287 -13.027 -22.107  0.00  0.00    +0.314 C 
BRANCH  14  15
ATOM     15  O   UNL     1      32.654 -13.915 -21.152  0.00  0.00    -0.480 OA
ATOM     16  H   UNL     1      33.545 -14.200 -21.095  0.00  0.00    +0.295 HD
ENDBRANCH  14  15
ENDBRANCH  12  14
ENDBRANCH  11  12
ENDBRANCH   6  11
ENDBRANCH   5   6
ENDBRANCH   1   5
BRANCH   1  17
ATOM     17  C   UNL     1      34.528 -18.938 -22.129  0.00  0.00    +0.113 C 
BRANCH  17  19
ATOM     18  I   UNL     1      33.580 -23.169 -17.478  0.00  0.00    -0.043 I 
ATOM     19  C   UNL     1      34.304 -19.938 -21.031  0.00  0.00    -0.012 C 
ATOM     20  C   UNL     1      33.013 -20.186 -20.581  0.00  0.00    -0.003 C 
ATOM     21  C   UNL     1      35.390 -20.603 -20.476  0.00  0.00    -0.003 C 
ATOM     22  C   UNL     1      32.805 -21.114 -19.561  0.00  0.00    +0.005 C 
ATOM     23  C   UNL     1      35.182 -21.532 -19.456  0.00  0.00    +0.005 C 
ATOM     24  C   UNL     1      33.890 -21.787 -18.998  0.00  0.00    +0.030 C 
ENDBRANCH  17  19
ENDBRANCH   1  17
TORSDOF 11
ENDMDL
MODEL 6
REMARK VINA RESULT:      -8.1     11.089     13.120
REMARK  Name = 6102781
REMARK  11 active torsions:
REMARK  status: ('A' for Active; 'I' for Inactive)
REMARK    1  A    between atoms: P_1  and  O_3
REMARK    2  A    between atoms: P_1  and  C_5
REMARK    3  A    between atoms: P_1  and  C_17
REMARK    4  A    between atoms: C_5  and  C_6
REMARK    5  A    between atoms: C_6  and  C_8
REMARK    6  A    between atoms: C_6  and  C_11
REMARK    7  A    between atoms: C_8  and  O_9
REMARK    8  A    between atoms: C_11  and  C_12
REMARK    9  A    between atoms: C_12  and  C_14
REMARK   10  A    between atoms: C_14  and  O_15
REMARK   11  A    between atoms: C_17  and  C_19
REMARK                            x       y       z     vdW  Elec       q    Type
REMARK                         _______ _______ _______ _____ _____    ______ ____
ROOT
ATOM      1  P   UNL     1      34.165 -16.548 -21.749  0.00  0.00    +0.224 P 
ATOM      2  O   UNL     1      32.774 -16.432 -21.235  0.00  0.00    -0.289 OA
ENDROOT
BRANCH   1   3
ATOM      3  O   UNL     1      35.317 -16.195 -20.682  0.00  0.00    -0.343 OA
ATOM      4  H   UNL     1      35.239 -16.783 -19.915  0.00  0.00    +0.218 HD
ENDBRANCH   1   3
BRANCH   1   5
ATOM      5  C   UNL     1      34.522 -15.390 -23.092  0.00  0.00    +0.098 C 
BRANCH   5   6
ATOM      6  C   UNL     1      33.456 -15.337 -24.189  0.00  0.00    +0.109 C 
BRANCH   6   8
ATOM      7  O   UNL     1      34.913 -16.669 -25.621  0.00  0.00    -0.250 OA
ATOM      8  C   UNL     1      34.077 -15.783 -25.504  0.00  0.00    +0.314 C 
BRANCH   8   9
ATOM      9  O   UNL     1      33.580 -15.095 -26.564  0.00  0.00    -0.480 OA
ATOM     10  H   UNL     1      33.049 -15.531 -27.200  0.00  0.00    +0.295 HD
ENDBRANCH   8   9
ENDBRANCH   6   8
BRANCH   6  11
ATOM     11  C   UNL     1      32.833 -13.932 -24.298  0.00  0.00    +0.023 C 
BRANCH  11  12
ATOM     12  C   UNL     1      33.775 -12.807 -23.869  0.00  0.00    +0.110 C 
BRANCH  12  14
ATOM     13  O   UNL     1      33.718 -11.993 -26.148  0.00  0.00    -0.250 OA
ATOM     14  C   UNL     1      34.085 -11.851 -24.991  0.00  0.00    +0.314 C 
BRANCH  14  15
ATOM     15  O   UNL     1      34.830 -10.805 -24.555  0.00  0.00    -0.480 OA
ATOM     16  H   UNL     1      34.410 -10.052 -24.190  0.00  0.00    +0.295 HD
ENDBRANCH  14  15
ENDBRANCH  12  14
ENDBRANCH  11  12
ENDBRANCH   6  11
ENDBRANCH   5   6
ENDBRANCH   1   5
BRANCH   1  17
ATOM     17  C   UNL     1      34.617 -18.147 -22.357  0.00  0.00    +0.113 C 
BRANCH  17  19
ATOM     18  I   UNL     1      33.691 -22.822 -18.147  0.00  0.00    -0.043 I 
ATOM     19  C   UNL     1      34.398 -19.251 -21.362  0.00  0.00    -0.012 C 
ATOM     20  C   UNL     1      35.493 -19.914 -20.820  0.00  0.00    -0.003 C 
ATOM     21  C   UNL     1      33.104 -19.598 -20.995  0.00  0.00    -0.003 C 
ATOM     22  C   UNL     1      35.289 -20.939 -19.897  0.00  0.00    +0.005 C 
ATOM     23  C   UNL     1      32.901 -20.623 -20.071  0.00  0.00    +0.005 C 
ATOM     24  C   UNL     1      33.994 -21.294 -19.522  0.00  0.00    +0.030 C 
ENDBRANCH  17  19
ENDBRANCH   1  17
TORSDOF 11
ENDMDL
MODEL 7
REMARK VINA RESULT:      -8.1     10.240     12.248
REMARK  Name = 6102781
REMARK  11 active torsions:
REMARK  status: ('A' for Active; 'I' for Inactive)
REMARK    1  A    between atoms: P_1  and  O_3
REMARK    2  A    between atoms: P_1  and  C_5
REMARK    3  A    between atoms: P_1  and  C_17
REMARK    4  A    between atoms: C_5  and  C_6
REMARK    5  A    between atoms: C_6  and  C_8
REMARK    6  A    between atoms: C_6  and  C_11
REMARK    7  A    between atoms: C_8  and  O_9
REMARK    8  A    between atoms: C_11  and  C_12
REMARK    9  A    between atoms: C_12  and  C_14
REMARK   10  A    between atoms: C_14  and  O_15
REMARK   11  A    between atoms: C_17  and  C_19
REMARK                            x       y       z     vdW  Elec       q    Type
REMARK                         _______ _______ _______ _____ _____    ______ ____
ROOT
ATOM      1  P   UNL     1      34.773 -16.825 -21.911  0.00  0.00    +0.224 P 
ATOM      2  O   UNL     1      35.321 -16.738 -20.530  0.00  0.00    -0.289 OA
ENDROOT
BRANCH   1   3
ATOM      3  O   UNL     1      35.648 -16.083 -23.039  0.00  0.00    -0.343 OA
ATOM      4  H   UNL     1      36.590 -16.253 -22.884  0.00  0.00    +0.218 HD
ENDBRANCH   1   3
BRANCH   1   5
ATOM      5  C   UNL     1      33.163 -16.019 -22.085  0.00  0.00    +0.098 C 
BRANCH   5   6
ATOM      6  C   UNL     1      33.226 -14.502 -22.273  0.00  0.00    +0.109 C 
BRANCH   6   8
ATOM      7  O   UNL     1      32.038 -12.725 -21.098  0.00  0.00    -0.250 OA
ATOM      8  C   UNL     1      32.570 -13.827 -21.078  0.00  0.00    +0.314 C 
BRANCH   8   9
ATOM      9  O   UNL     1      32.619 -14.600 -19.962  0.00  0.00    -0.480 OA
ATOM     10  H   UNL     1      32.095 -15.374 -19.905  0.00  0.00    +0.295 HD
ENDBRANCH   8   9
ENDBRANCH   6   8
BRANCH   6  11
ATOM     11  C   UNL     1      32.572 -14.073 -23.601  0.00  0.00    +0.023 C 
BRANCH  11  12
ATOM     12  C   UNL     1      33.552 -13.997 -24.772  0.00  0.00    +0.110 C 
BRANCH  12  14
ATOM     13  O   UNL     1      34.191 -16.094 -25.799  0.00  0.00    -0.250 OA
ATOM     14  C   UNL     1      33.411 -15.156 -25.723  0.00  0.00    +0.314 C 
BRANCH  14  15
ATOM     15  O   UNL     1      32.303 -15.028 -26.493  0.00  0.00    -0.480 OA
ATOM     16  H   UNL     1      31.899 -15.788 -26.863  0.00  0.00    +0.295 HD
ENDBRANCH  14  15
ENDBRANCH  12  14
ENDBRANCH  11  12
ENDBRANCH   6  11
ENDBRANCH   5   6
ENDBRANCH   1   5
BRANCH   1  17
ATOM     17  C   UNL     1      34.562 -18.466 -22.540  0.00  0.00    +0.113 C 
BRANCH  17  19
ATOM     18  I   UNL     1      33.729 -22.837 -17.999  0.00  0.00    -0.043 I 
ATOM     19  C   UNL     1      34.365 -19.499 -21.468  0.00  0.00    -0.012 C 
ATOM     20  C   UNL     1      33.088 -19.750 -20.982  0.00  0.00    -0.003 C 
ATOM     21  C   UNL     1      35.463 -20.191 -20.972  0.00  0.00    -0.003 C 
ATOM     22  C   UNL     1      32.905 -20.709 -19.986  0.00  0.00    +0.005 C 
ATOM     23  C   UNL     1      35.280 -21.151 -19.976  0.00  0.00    +0.005 C 
ATOM     24  C   UNL     1      34.001 -21.410 -19.483  0.00  0.00    +0.030 C 
ENDBRANCH  17  19
ENDBRANCH   1  17
TORSDOF 11
ENDMDL
MODEL 8
REMARK VINA RESULT:      -7.9     10.630     12.527
REMARK  Name = 6102781
REMARK  11 active torsions:
REMARK  status: ('A' for Active; 'I' for Inactive)
REMARK    1  A    between atoms: P_1  and  O_3
REMARK    2  A    between atoms: P_1  and  C_5
REMARK    3  A    between atoms: P_1  and  C_17
REMARK    4  A    between atoms: C_5  and  C_6
REMARK    5  A    between atoms: C_6  and  C_8
REMARK    6  A    between atoms: C_6  and  C_11
REMARK    7  A    between atoms: C_8  and  O_9
REMARK    8  A    between atoms: C_11  and  C_12
REMARK    9  A    between atoms: C_12  and  C_14
REMARK   10  A    between atoms: C_14  and  O_15
REMARK   11  A    between atoms: C_17  and  C_19
REMARK                            x       y       z     vdW  Elec       q    Type
REMARK                         _______ _______ _______ _____ _____    ______ ____
ROOT
ATOM      1  P   UNL     1      34.795 -16.808 -21.944  0.00  0.00    +0.224 P 
ATOM      2  O   UNL     1      35.268 -16.725 -20.535  0.00  0.00    -0.289 OA
ENDROOT
BRANCH   1   3
ATOM      3  O   UNL     1      35.762 -16.117 -23.028  0.00  0.00    -0.343 OA
ATOM      4  H   UNL     1      35.731 -16.619 -23.857  0.00  0.00    +0.218 HD
ENDBRANCH   1   3
BRANCH   1   5
ATOM      5  C   UNL     1      33.232 -15.942 -22.218  0.00  0.00    +0.098 C 
BRANCH   5   6
ATOM      6  C   UNL     1      33.319 -14.418 -22.107  0.00  0.00    +0.109 C 
BRANCH   6   8
ATOM      7  O   UNL     1      32.212 -12.862 -20.590  0.00  0.00    -0.250 OA
ATOM      8  C   UNL     1      32.667 -13.978 -20.805  0.00  0.00    +0.314 C 
BRANCH   8   9
ATOM      9  O   UNL     1      32.622 -14.980 -19.890  0.00  0.00    -0.480 OA
ATOM     10  H   UNL     1      33.415 -15.377 -19.590  0.00  0.00    +0.295 HD
ENDBRANCH   8   9
ENDBRANCH   6   8
BRANCH   6  11
ATOM     11  C   UNL     1      32.679 -13.729 -23.328  0.00  0.00    +0.023 C 
BRANCH  11  12
ATOM     12  C   UNL     1      33.684 -12.990 -24.213  0.00  0.00    +0.110 C 
BRANCH  12  14
ATOM     13  O   UNL     1      32.878 -10.900 -23.296  0.00  0.00    -0.250 OA
ATOM     14  C   UNL     1      33.722 -11.510 -23.937  0.00  0.00    +0.314 C 
BRANCH  14  15
ATOM     15  O   UNL     1      34.814 -10.933 -24.494  0.00  0.00    -0.480 OA
ATOM     16  H   UNL     1      35.671 -11.179 -24.207  0.00  0.00    +0.295 HD
ENDBRANCH  14  15
ENDBRANCH  12  14
ENDBRANCH  11  12
ENDBRANCH   6  11
ENDBRANCH   5   6
ENDBRANCH   1   5
BRANCH   1  17
ATOM     17  C   UNL     1      34.554 -18.448 -22.565  0.00  0.00    +0.113 C 
BRANCH  17  19
ATOM     18  I   UNL     1      33.698 -22.796 -18.006  0.00  0.00    -0.043 I 
ATOM     19  C   UNL     1      34.352 -19.474 -21.488  0.00  0.00    -0.012 C 
ATOM     20  C   UNL     1      35.448 -20.158 -20.977  0.00  0.00    -0.003 C 
ATOM     21  C   UNL     1      33.071 -19.730 -21.015  0.00  0.00    -0.003 C 
ATOM     22  C   UNL     1      35.260 -21.112 -19.977  0.00  0.00    +0.005 C 
ATOM     23  C   UNL     1      32.883 -20.683 -20.014  0.00  0.00    +0.005 C 
ATOM     24  C   UNL     1      33.978 -21.374 -19.495  0.00  0.00    +0.030 C 
ENDBRANCH  17  19
ENDBRANCH   1  17
TORSDOF 11
ENDMDL
MODEL 9
REMARK VINA RESULT:      -7.7      1.601      2.074
REMARK  Name = 6102781
REMARK  11 active torsions:
REMARK  status: ('A' for Active; 'I' for Inactive)
REMARK    1  A    between atoms: P_1  and  O_3
REMARK    2  A    between atoms: P_1  and  C_5
REMARK    3  A    between atoms: P_1  and  C_17
REMARK    4  A    between atoms: C_5  and  C_6
REMARK    5  A    between atoms: C_6  and  C_8
REMARK    6  A    between atoms: C_6  and  C_11
REMARK    7  A    between atoms: C_8  and  O_9
REMARK    8  A    between atoms: C_11  and  C_12
REMARK    9  A    between atoms: C_12  and  C_14
REMARK   10  A    between atoms: C_14  and  O_15
REMARK   11  A    between atoms: C_17  and  C_19
REMARK                            x       y       z     vdW  Elec       q    Type
REMARK                         _______ _______ _______ _____ _____    ______ ____
ROOT
ATOM      1  P   UNL     1      35.358 -23.429 -14.890  0.00  0.00    +0.224 P 
ATOM      2  O   UNL     1      35.717 -24.026 -16.205  0.00  0.00    -0.289 OA
ENDROOT
BRANCH   1   3
ATOM      3  O   UNL     1      34.911 -21.884 -14.942  0.00  0.00    -0.343 OA
ATOM      4  H   UNL     1      34.477 -21.645 -14.109  0.00  0.00    +0.218 HD
ENDBRANCH   1   3
BRANCH   1   5
ATOM      5  C   UNL     1      36.744 -23.388 -13.729  0.00  0.00    +0.098 C 
BRANCH   5   6
ATOM      6  C   UNL     1      36.669 -24.426 -12.608  0.00  0.00    +0.109 C 
BRANCH   6   8
ATOM      7  O   UNL     1      37.554 -22.723 -11.103  0.00  0.00    -0.250 OA
ATOM      8  C   UNL     1      36.875 -23.727 -11.272  0.00  0.00    +0.314 C 
BRANCH   8   9
ATOM      9  O   UNL     1      36.197 -24.335 -10.265  0.00  0.00    -0.480 OA
ATOM     10  H   UNL     1      36.230 -23.984  -9.398  0.00  0.00    +0.295 HD
ENDBRANCH   8   9
ENDBRANCH   6   8
BRANCH   6  11
ATOM     11  C   UNL     1      37.689 -25.560 -12.823  0.00  0.00    +0.023 C 
BRANCH  11  12
ATOM     12  C   UNL     1      37.122 -26.760 -13.583  0.00  0.00    +0.110 C 
BRANCH  12  14
ATOM     13  O   UNL     1      36.751 -27.193 -15.935  0.00  0.00    -0.250 OA
ATOM     14  C   UNL     1      37.455 -26.726 -15.051  0.00  0.00    +0.314 C 
BRANCH  14  15
ATOM     15  O   UNL     1      38.642 -26.111 -15.273  0.00  0.00    -0.480 OA
ATOM     16  H   UNL     1      38.724 -25.188 -15.135  0.00  0.00    +0.295 HD
ENDBRANCH  14  15
ENDBRANCH  12  14
ENDBRANCH  11  12
ENDBRANCH   6  11
ENDBRANCH   5   6
ENDBRANCH   1   5
BRANCH   1  17
ATOM     17  C   UNL     1      34.034 -24.232 -14.032  0.00  0.00    +0.113 C 
BRANCH  17  19
ATOM     18  I   UNL     1      28.276 -22.731 -16.275  0.00  0.00    -0.043 I 
ATOM     19  C   UNL     1      32.674 -23.878 -14.562  0.00  0.00    -0.012 C 
ATOM     20  C   UNL     1      32.529 -23.519 -15.896  0.00  0.00    -0.003 C 
ATOM     21  C   UNL     1      31.576 -23.912 -13.711  0.00  0.00    -0.003 C 
ATOM     22  C   UNL     1      31.266 -23.190 -16.388  0.00  0.00    +0.005 C 
ATOM     23  C   UNL     1      30.312 -23.583 -14.204  0.00  0.00    +0.005 C 
ATOM     24  C   UNL     1      30.157 -23.222 -15.542  0.00  0.00    +0.030 C 
ENDBRANCH  17  19
ENDBRANCH   1  17
TORSDOF 11
ENDMDL
