MODEL 1
REMARK VINA RESULT:      -7.2      0.000      0.000
REMARK  Name = 9907289
REMARK  6 active torsions:
REMARK  status: ('A' for Active; 'I' for Inactive)
REMARK    1  A    between atoms: N_4  and  C_22
REMARK    2  A    between atoms: N_5  and  C_25
REMARK    3  A    between atoms: C_6  and  C_10
REMARK    4  A    between atoms: C_6  and  C_16
REMARK    5  A    between atoms: C_22  and  O_23
REMARK    6  A    between atoms: C_25  and  O_26
REMARK                            x       y       z     vdW  Elec       q    Type
REMARK                         _______ _______ _______ _____ _____    ______ ____
ROOT
ATOM      1  O   UNL     1      35.021 -22.313 -13.072  0.00  0.00    -0.273 OA
ATOM      2  O   UNL     1      35.438 -26.115 -15.942  0.00  0.00    -0.273 OA
ATOM      3  O   UNL     1      38.212 -25.561 -12.291  0.00  0.00    -0.251 OA
ATOM      4  N   UNL     1      36.706 -23.869 -12.762  0.00  0.00    -0.185 N 
ATOM      5  N   UNL     1      36.709 -25.890 -14.020  0.00  0.00    -0.185 N 
ATOM      6  C   UNL     1      35.236 -24.011 -14.779  0.00  0.00    +0.176 C 
ATOM      7  C   UNL     1      35.625 -23.321 -13.456  0.00  0.00    +0.249 C 
ATOM      8  C   UNL     1      35.785 -25.437 -14.967  0.00  0.00    +0.249 C 
ATOM      9  C   UNL     1      37.277 -25.136 -12.979  0.00  0.00    +0.322 C 
ENDROOT
BRANCH   6  10
ATOM     10  C   UNL     1      33.687 -24.191 -14.839  0.00  0.00    -0.003 C 
ATOM     11  C   UNL     1      32.964 -23.573 -15.852  0.00  0.00    -0.003 C 
ATOM     12  C   UNL     1      33.048 -24.966 -13.880  0.00  0.00    -0.003 C 
ATOM     13  C   UNL     1      31.579 -23.733 -15.907  0.00  0.00    -0.000 C 
ATOM     14  C   UNL     1      31.663 -25.126 -13.935  0.00  0.00    -0.000 C 
ATOM     15  C   UNL     1      30.929 -24.509 -14.948  0.00  0.00    -0.000 C 
ENDBRANCH   6  10
BRANCH   6  16
ATOM     16  C   UNL     1      35.801 -23.066 -15.882  0.00  0.00    -0.003 C 
ATOM     17  C   UNL     1      37.018 -22.427 -15.681  0.00  0.00    -0.003 C 
ATOM     18  C   UNL     1      35.080 -22.874 -17.055  0.00  0.00    -0.003 C 
ATOM     19  C   UNL     1      37.523 -21.583 -16.669  0.00  0.00    -0.000 C 
ATOM     20  C   UNL     1      35.586 -22.028 -18.043  0.00  0.00    -0.000 C 
ATOM     21  C   UNL     1      36.807 -21.383 -17.850  0.00  0.00    -0.000 C 
ENDBRANCH   6  16
BRANCH   4  22
ATOM     22  C   UNL     1      37.225 -23.109 -11.628  0.00  0.00    +0.250 C 
BRANCH  22  23
ATOM     23  O   UNL     1      36.952 -23.829 -10.435  0.00  0.00    -0.331 OA
ATOM     24  C   UNL     1      35.567 -24.121 -10.309  0.00  0.00    +0.176 C 
ENDBRANCH  22  23
ENDBRANCH   4  22
BRANCH   5  25
ATOM     25  C   UNL     1      37.212 -27.250 -14.202  0.00  0.00    +0.250 C 
BRANCH  25  26
ATOM     26  O   UNL     1      38.197 -27.237 -15.224  0.00  0.00    -0.331 OA
ATOM     27  C   UNL     1      39.275 -26.371 -14.898  0.00  0.00    +0.176 C 
ENDBRANCH  25  26
ENDBRANCH   5  25
TORSDOF 6
ENDMDL
MODEL 2
REMARK VINA RESULT:      -6.6      0.492      4.724
REMARK  Name = 9907289
REMARK  6 active torsions:
REMARK  status: ('A' for Active; 'I' for Inactive)
REMARK    1  A    between atoms: N_4  and  C_22
REMARK    2  A    between atoms: N_5  and  C_25
REMARK    3  A    between atoms: C_6  and  C_10
REMARK    4  A    between atoms: C_6  and  C_16
REMARK    5  A    between atoms: C_22  and  O_23
REMARK    6  A    between atoms: C_25  and  O_26
REMARK                            x       y       z     vdW  Elec       q    Type
REMARK                         _______ _______ _______ _____ _____    ______ ____
ROOT
ATOM      1  O   UNL     1      35.673 -26.018 -16.177  0.00  0.00    -0.273 OA
ATOM      2  O   UNL     1      35.634 -21.951 -13.662  0.00  0.00    -0.273 OA
ATOM      3  O   UNL     1      37.690 -25.750 -12.029  0.00  0.00    -0.251 OA
ATOM      4  N   UNL     1      36.563 -25.920 -14.043  0.00  0.00    -0.185 N 
ATOM      5  N   UNL     1      36.788 -23.822 -12.939  0.00  0.00    -0.185 N 
ATOM      6  C   UNL     1      35.319 -23.957 -14.964  0.00  0.00    +0.176 C 
ATOM      7  C   UNL     1      35.874 -25.386 -15.134  0.00  0.00    +0.249 C 
ATOM      8  C   UNL     1      35.932 -23.142 -13.811  0.00  0.00    +0.249 C 
ATOM      9  C   UNL     1      37.055 -25.203 -12.937  0.00  0.00    +0.322 C 
ENDROOT
BRANCH   6  10
ATOM     10  C   UNL     1      35.641 -23.115 -16.237  0.00  0.00    -0.003 C 
ATOM     11  C   UNL     1      34.680 -22.979 -17.231  0.00  0.00    -0.003 C 
ATOM     12  C   UNL     1      36.885 -22.510 -16.363  0.00  0.00    -0.003 C 
ATOM     13  C   UNL     1      34.968 -22.226 -18.370  0.00  0.00    -0.000 C 
ATOM     14  C   UNL     1      37.173 -21.757 -17.501  0.00  0.00    -0.000 C 
ATOM     15  C   UNL     1      36.214 -21.616 -18.505  0.00  0.00    -0.000 C 
ENDBRANCH   6  10
BRANCH   6  16
ATOM     16  C   UNL     1      33.793 -24.168 -14.722  0.00  0.00    -0.003 C 
ATOM     17  C   UNL     1      33.369 -24.951 -13.655  0.00  0.00    -0.003 C 
ATOM     18  C   UNL     1      32.874 -23.571 -15.576  0.00  0.00    -0.003 C 
ATOM     19  C   UNL     1      32.005 -25.139 -13.438  0.00  0.00    -0.000 C 
ATOM     20  C   UNL     1      31.509 -23.760 -15.359  0.00  0.00    -0.000 C 
ATOM     21  C   UNL     1      31.074 -24.544 -14.291  0.00  0.00    -0.000 C 
ENDBRANCH   6  16
BRANCH   4  22
ATOM     22  C   UNL     1      36.907 -27.339 -14.101  0.00  0.00    +0.250 C 
BRANCH  22  23
ATOM     23  O   UNL     1      38.046 -27.495 -14.933  0.00  0.00    -0.331 OA
ATOM     24  C   UNL     1      38.948 -26.406 -14.791  0.00  0.00    +0.176 C 
ENDBRANCH  22  23
ENDBRANCH   4  22
BRANCH   5  25
ATOM     25  C   UNL     1      37.375 -23.035 -11.857  0.00  0.00    +0.250 C 
BRANCH  25  26
ATOM     26  O   UNL     1      37.040 -23.642 -10.619  0.00  0.00    -0.331 OA
ATOM     27  C   UNL     1      35.632 -23.738 -10.450  0.00  0.00    +0.176 C 
ENDBRANCH  25  26
ENDBRANCH   5  25
TORSDOF 6
ENDMDL
MODEL 3
REMARK VINA RESULT:      -5.9      1.183      1.703
REMARK  Name = 9907289
REMARK  6 active torsions:
REMARK  status: ('A' for Active; 'I' for Inactive)
REMARK    1  A    between atoms: N_4  and  C_22
REMARK    2  A    between atoms: N_5  and  C_25
REMARK    3  A    between atoms: C_6  and  C_10
REMARK    4  A    between atoms: C_6  and  C_16
REMARK    5  A    between atoms: C_22  and  O_23
REMARK    6  A    between atoms: C_25  and  O_26
REMARK                            x       y       z     vdW  Elec       q    Type
REMARK                         _______ _______ _______ _____ _____    ______ ____
ROOT
ATOM      1  O   UNL     1      35.206 -21.744 -14.092  0.00  0.00    -0.273 OA
ATOM      2  O   UNL     1      35.277 -25.988 -16.294  0.00  0.00    -0.273 OA
ATOM      3  O   UNL     1      38.845 -24.567 -13.730  0.00  0.00    -0.251 OA
ATOM      4  N   UNL     1      37.081 -23.099 -14.024  0.00  0.00    -0.185 N 
ATOM      5  N   UNL     1      36.982 -25.318 -14.880  0.00  0.00    -0.185 N 
ATOM      6  C   UNL     1      35.150 -23.719 -15.485  0.00  0.00    +0.176 C 
ATOM      7  C   UNL     1      35.798 -22.765 -14.461  0.00  0.00    +0.249 C 
ATOM      8  C   UNL     1      35.791 -25.115 -15.585  0.00  0.00    +0.249 C 
ATOM      9  C   UNL     1      37.717 -24.343 -14.183  0.00  0.00    +0.322 C 
ENDROOT
BRANCH   6  10
ATOM     10  C   UNL     1      33.674 -24.009 -15.071  0.00  0.00    -0.003 C 
ATOM     11  C   UNL     1      33.416 -24.779 -13.944  0.00  0.00    -0.003 C 
ATOM     12  C   UNL     1      32.634 -23.493 -15.834  0.00  0.00    -0.003 C 
ATOM     13  C   UNL     1      32.096 -25.038 -13.574  0.00  0.00    -0.000 C 
ATOM     14  C   UNL     1      31.314 -23.752 -15.464  0.00  0.00    -0.000 C 
ATOM     15  C   UNL     1      31.046 -24.525 -14.334  0.00  0.00    -0.000 C 
ENDBRANCH   6  10
BRANCH   6  16
ATOM     16  C   UNL     1      35.284 -22.968 -16.844  0.00  0.00    -0.003 C 
ATOM     17  C   UNL     1      36.446 -22.260 -17.126  0.00  0.00    -0.003 C 
ATOM     18  C   UNL     1      34.239 -23.014 -17.759  0.00  0.00    -0.003 C 
ATOM     19  C   UNL     1      36.566 -21.588 -18.341  0.00  0.00    -0.000 C 
ATOM     20  C   UNL     1      34.359 -22.341 -18.975  0.00  0.00    -0.000 C 
ATOM     21  C   UNL     1      35.522 -21.628 -19.266  0.00  0.00    -0.000 C 
ENDBRANCH   6  16
BRANCH   4  22
ATOM     22  C   UNL     1      37.794 -22.103 -13.227  0.00  0.00    +0.250 C 
BRANCH  22  23
ATOM     23  O   UNL     1      38.074 -22.659 -11.951  0.00  0.00    -0.331 OA
ATOM     24  C   UNL     1      36.881 -22.932 -11.228  0.00  0.00    +0.176 C 
ENDBRANCH  22  23
ENDBRANCH   4  22
BRANCH   5  25
ATOM     25  C   UNL     1      37.573 -26.652 -14.971  0.00  0.00    +0.250 C 
BRANCH  25  26
ATOM     26  O   UNL     1      37.107 -27.431 -13.879  0.00  0.00    -0.331 OA
ATOM     27  C   UNL     1      37.119 -26.689 -12.667  0.00  0.00    +0.176 C 
ENDBRANCH  25  26
ENDBRANCH   5  25
TORSDOF 6
ENDMDL
MODEL 4
REMARK VINA RESULT:      -5.3      6.342      8.955
REMARK  Name = 9907289
REMARK  6 active torsions:
REMARK  status: ('A' for Active; 'I' for Inactive)
REMARK    1  A    between atoms: N_4  and  C_22
REMARK    2  A    between atoms: N_5  and  C_25
REMARK    3  A    between atoms: C_6  and  C_10
REMARK    4  A    between atoms: C_6  and  C_16
REMARK    5  A    between atoms: C_22  and  O_23
REMARK    6  A    between atoms: C_25  and  O_26
REMARK                            x       y       z     vdW  Elec       q    Type
REMARK                         _______ _______ _______ _____ _____    ______ ____
ROOT
ATOM      1  O   UNL     1      36.549 -18.181 -20.837  0.00  0.00    -0.273 OA
ATOM      2  O   UNL     1      31.975 -19.498 -21.292  0.00  0.00    -0.273 OA
ATOM      3  O   UNL     1      35.074 -22.277 -19.292  0.00  0.00    -0.251 OA
ATOM      4  N   UNL     1      35.838 -20.285 -20.188  0.00  0.00    -0.185 N 
ATOM      5  N   UNL     1      33.514 -20.802 -20.157  0.00  0.00    -0.185 N 
ATOM      6  C   UNL     1      34.268 -18.758 -21.393  0.00  0.00    +0.176 C 
ATOM      7  C   UNL     1      35.653 -19.030 -20.772  0.00  0.00    +0.249 C 
ATOM      8  C   UNL     1      33.142 -19.703 -20.937  0.00  0.00    +0.249 C 
ATOM      9  C   UNL     1      34.826 -21.200 -19.844  0.00  0.00    +0.322 C 
ENDROOT
BRANCH   6  10
ATOM     10  C   UNL     1      33.772 -17.342 -20.965  0.00  0.00    -0.003 C 
ATOM     11  C   UNL     1      32.412 -17.116 -20.789  0.00  0.00    -0.003 C 
ATOM     12  C   UNL     1      34.694 -16.323 -20.765  0.00  0.00    -0.003 C 
ATOM     13  C   UNL     1      31.968 -15.850 -20.406  0.00  0.00    -0.000 C 
ATOM     14  C   UNL     1      34.250 -15.057 -20.383  0.00  0.00    -0.000 C 
ATOM     15  C   UNL     1      32.887 -14.821 -20.204  0.00  0.00    -0.000 C 
ENDBRANCH   6  10
BRANCH   6  16
ATOM     16  C   UNL     1      34.504 -18.902 -22.927  0.00  0.00    -0.003 C 
ATOM     17  C   UNL     1      34.895 -20.128 -23.450  0.00  0.00    -0.003 C 
ATOM     18  C   UNL     1      34.320 -17.801 -23.756  0.00  0.00    -0.003 C 
ATOM     19  C   UNL     1      35.105 -20.257 -24.822  0.00  0.00    -0.000 C 
ATOM     20  C   UNL     1      34.530 -17.930 -25.129  0.00  0.00    -0.000 C 
ATOM     21  C   UNL     1      34.923 -19.158 -25.662  0.00  0.00    -0.000 C 
ENDBRANCH   6  16
BRANCH   4  22
ATOM     22  C   UNL     1      37.197 -20.642 -19.790  0.00  0.00    +0.250 C 
BRANCH  22  23
ATOM     23  O   UNL     1      37.428 -20.156 -18.476  0.00  0.00    -0.331 OA
ATOM     24  C   UNL     1      37.256 -21.178 -17.504  0.00  0.00    +0.176 C 
ENDBRANCH  22  23
ENDBRANCH   4  22
BRANCH   5  25
ATOM     25  C   UNL     1      32.434 -21.684 -19.719  0.00  0.00    +0.250 C 
BRANCH  25  26
ATOM     26  O   UNL     1      32.222 -21.486 -18.329  0.00  0.00    -0.331 OA
ATOM     27  C   UNL     1      32.372 -22.698 -17.601  0.00  0.00    +0.176 C 
ENDBRANCH  25  26
ENDBRANCH   5  25
TORSDOF 6
ENDMDL
MODEL 5
REMARK VINA RESULT:      -5.2      1.674      4.584
REMARK  Name = 9907289
REMARK  6 active torsions:
REMARK  status: ('A' for Active; 'I' for Inactive)
REMARK    1  A    between atoms: N_4  and  C_22
REMARK    2  A    between atoms: N_5  and  C_25
REMARK    3  A    between atoms: C_6  and  C_10
REMARK    4  A    between atoms: C_6  and  C_16
REMARK    5  A    between atoms: C_22  and  O_23
REMARK    6  A    between atoms: C_25  and  O_26
REMARK                            x       y       z     vdW  Elec       q    Type
REMARK                         _______ _______ _______ _____ _____    ______ ____
ROOT
ATOM      1  O   UNL     1      35.855 -26.311 -14.489  0.00  0.00    -0.273 OA
ATOM      2  O   UNL     1      35.573 -21.545 -14.766  0.00  0.00    -0.273 OA
ATOM      3  O   UNL     1      39.291 -23.812 -16.305  0.00  0.00    -0.251 OA
ATOM      4  N   UNL     1      37.630 -25.048 -15.272  0.00  0.00    -0.185 N 
ATOM      5  N   UNL     1      37.353 -22.717 -15.668  0.00  0.00    -0.185 N 
ATOM      6  C   UNL     1      35.627 -23.911 -14.300  0.00  0.00    +0.176 C 
ATOM      7  C   UNL     1      36.364 -25.205 -14.704  0.00  0.00    +0.249 C 
ATOM      8  C   UNL     1      36.164 -22.618 -14.939  0.00  0.00    +0.249 C 
ATOM      9  C   UNL     1      38.172 -23.855 -15.781  0.00  0.00    +0.322 C 
ENDROOT
BRANCH   6  10
ATOM     10  C   UNL     1      34.144 -23.982 -14.779  0.00  0.00    -0.003 C 
ATOM     11  C   UNL     1      33.819 -23.580 -16.068  0.00  0.00    -0.003 C 
ATOM     12  C   UNL     1      33.164 -24.447 -13.910  0.00  0.00    -0.003 C 
ATOM     13  C   UNL     1      32.493 -23.643 -16.496  0.00  0.00    -0.000 C 
ATOM     14  C   UNL     1      31.838 -24.510 -14.338  0.00  0.00    -0.000 C 
ATOM     15  C   UNL     1      31.503 -24.108 -15.631  0.00  0.00    -0.000 C 
ENDBRANCH   6  10
BRANCH   6  16
ATOM     16  C   UNL     1      35.783 -23.852 -12.750  0.00  0.00    -0.003 C 
ATOM     17  C   UNL     1      34.956 -24.627 -11.947  0.00  0.00    -0.003 C 
ATOM     18  C   UNL     1      36.749 -23.025 -12.190  0.00  0.00    -0.003 C 
ATOM     19  C   UNL     1      35.096 -24.574 -10.561  0.00  0.00    -0.000 C 
ATOM     20  C   UNL     1      36.889 -22.971 -10.802  0.00  0.00    -0.000 C 
ATOM     21  C   UNL     1      36.063 -23.746  -9.988  0.00  0.00    -0.000 C 
ENDBRANCH   6  16
BRANCH   4  22
ATOM     22  C   UNL     1      38.430 -26.256 -15.461  0.00  0.00    +0.250 C 
BRANCH  22  23
ATOM     23  O   UNL     1      39.129 -26.531 -14.256  0.00  0.00    -0.331 OA
ATOM     24  C   UNL     1      40.514 -26.237 -14.378  0.00  0.00    +0.176 C 
ENDBRANCH  22  23
ENDBRANCH   4  22
BRANCH   5  25
ATOM     25  C   UNL     1      37.845 -21.485 -16.281  0.00  0.00    +0.250 C 
BRANCH  25  26
ATOM     26  O   UNL     1      36.840 -20.972 -17.142  0.00  0.00    -0.331 OA
ATOM     27  C   UNL     1      36.751 -21.723 -18.345  0.00  0.00    +0.176 C 
ENDBRANCH  25  26
ENDBRANCH   5  25
TORSDOF 6
ENDMDL
MODEL 6
REMARK VINA RESULT:      -5.0      1.525      4.994
REMARK  Name = 9907289
REMARK  6 active torsions:
REMARK  status: ('A' for Active; 'I' for Inactive)
REMARK    1  A    between atoms: N_4  and  C_22
REMARK    2  A    between atoms: N_5  and  C_25
REMARK    3  A    between atoms: C_6  and  C_10
REMARK    4  A    between atoms: C_6  and  C_16
REMARK    5  A    between atoms: C_22  and  O_23
REMARK    6  A    between atoms: C_25  and  O_26
REMARK                            x       y       z     vdW  Elec       q    Type
REMARK                         _______ _______ _______ _____ _____    ______ ____
ROOT
ATOM      1  O   UNL     1      35.794 -25.744 -15.757  0.00  0.00    -0.273 OA
ATOM      2  O   UNL     1      37.976 -22.649 -12.836  0.00  0.00    -0.273 OA
ATOM      3  O   UNL     1      33.619 -23.983 -12.081  0.00  0.00    -0.251 OA
ATOM      4  N   UNL     1      34.663 -24.757 -13.996  0.00  0.00    -0.185 N 
ATOM      5  N   UNL     1      35.851 -23.453 -12.396  0.00  0.00    -0.185 N 
ATOM      6  C   UNL     1      36.980 -24.008 -14.562  0.00  0.00    +0.176 C 
ATOM      7  C   UNL     1      35.772 -24.930 -14.827  0.00  0.00    +0.249 C 
ATOM      8  C   UNL     1      36.996 -23.318 -13.186  0.00  0.00    +0.249 C 
ATOM      9  C   UNL     1      34.638 -24.055 -12.777  0.00  0.00    +0.322 C 
ENDROOT
BRANCH   6  10
ATOM     10  C   UNL     1      38.294 -24.849 -14.580  0.00  0.00    -0.003 C 
ATOM     11  C   UNL     1      39.213 -24.664 -15.606  0.00  0.00    -0.003 C 
ATOM     12  C   UNL     1      38.531 -25.774 -13.570  0.00  0.00    -0.003 C 
ATOM     13  C   UNL     1      40.388 -25.416 -15.622  0.00  0.00    -0.000 C 
ATOM     14  C   UNL     1      39.706 -26.525 -13.587  0.00  0.00    -0.000 C 
ATOM     15  C   UNL     1      40.634 -26.347 -14.613  0.00  0.00    -0.000 C 
ENDBRANCH   6  10
BRANCH   6  16
ATOM     16  C   UNL     1      36.902 -22.943 -15.698  0.00  0.00    -0.003 C 
ATOM     17  C   UNL     1      37.882 -21.962 -15.787  0.00  0.00    -0.003 C 
ATOM     18  C   UNL     1      35.853 -22.987 -16.608  0.00  0.00    -0.003 C 
ATOM     19  C   UNL     1      37.812 -21.010 -16.802  0.00  0.00    -0.000 C 
ATOM     20  C   UNL     1      35.783 -22.034 -17.625  0.00  0.00    -0.000 C 
ATOM     21  C   UNL     1      36.763 -21.045 -17.722  0.00  0.00    -0.000 C 
ENDBRANCH   6  16
BRANCH   4  22
ATOM     22  C   UNL     1      33.438 -25.463 -14.363  0.00  0.00    +0.250 C 
BRANCH  22  23
ATOM     23  O   UNL     1      32.502 -24.518 -14.861  0.00  0.00    -0.331 OA
ATOM     24  C   UNL     1      31.181 -24.818 -14.431  0.00  0.00    +0.176 C 
ENDBRANCH  22  23
ENDBRANCH   4  22
BRANCH   5  25
ATOM     25  C   UNL     1      35.884 -22.805 -11.086  0.00  0.00    +0.250 C 
BRANCH  25  26
ATOM     26  O   UNL     1      36.473 -23.697 -10.153  0.00  0.00    -0.331 OA
ATOM     27  C   UNL     1      35.549 -24.689  -9.725  0.00  0.00    +0.176 C 
ENDBRANCH  25  26
ENDBRANCH   5  25
TORSDOF 6
ENDMDL
MODEL 7
REMARK VINA RESULT:      -4.9     16.225     19.106
REMARK  Name = 9907289
REMARK  6 active torsions:
REMARK  status: ('A' for Active; 'I' for Inactive)
REMARK    1  A    between atoms: N_4  and  C_22
REMARK    2  A    between atoms: N_5  and  C_25
REMARK    3  A    between atoms: C_6  and  C_10
REMARK    4  A    between atoms: C_6  and  C_16
REMARK    5  A    between atoms: C_22  and  O_23
REMARK    6  A    between atoms: C_25  and  O_26
REMARK                            x       y       z     vdW  Elec       q    Type
REMARK                         _______ _______ _______ _____ _____    ______ ____
ROOT
ATOM      1  O   UNL     1      30.305  -8.293 -23.393  0.00  0.00    -0.273 OA
ATOM      2  O   UNL     1      34.946  -7.193 -23.746  0.00  0.00    -0.273 OA
ATOM      3  O   UNL     1      33.515 -11.583 -23.857  0.00  0.00    -0.251 OA
ATOM      4  N   UNL     1      31.924  -9.944 -23.488  0.00  0.00    -0.185 N 
ATOM      5  N   UNL     1      34.187  -9.370 -23.955  0.00  0.00    -0.185 N 
ATOM      6  C   UNL     1      32.602  -7.546 -23.295  0.00  0.00    +0.176 C 
ATOM      7  C   UNL     1      31.498  -8.616 -23.410  0.00  0.00    +0.249 C 
ATOM      8  C   UNL     1      34.015  -8.007 -23.698  0.00  0.00    +0.249 C 
ATOM      9  C   UNL     1      33.231 -10.384 -23.769  0.00  0.00    +0.322 C 
ENDROOT
BRANCH   6  10
ATOM     10  C   UNL     1      32.295  -6.369 -24.272  0.00  0.00    -0.003 C 
ATOM     11  C   UNL     1      33.180  -6.084 -25.304  0.00  0.00    -0.003 C 
ATOM     12  C   UNL     1      31.138  -5.618 -24.100  0.00  0.00    -0.003 C 
ATOM     13  C   UNL     1      32.906  -5.032 -26.178  0.00  0.00    -0.000 C 
ATOM     14  C   UNL     1      30.863  -4.566 -24.974  0.00  0.00    -0.000 C 
ATOM     15  C   UNL     1      31.748  -4.273 -26.012  0.00  0.00    -0.000 C 
ENDBRANCH   6  10
BRANCH   6  16
ATOM     16  C   UNL     1      32.578  -7.134 -21.792  0.00  0.00    -0.003 C 
ATOM     17  C   UNL     1      32.384  -5.802 -21.448  0.00  0.00    -0.003 C 
ATOM     18  C   UNL     1      32.752  -8.105 -20.812  0.00  0.00    -0.003 C 
ATOM     19  C   UNL     1      32.362  -5.435 -20.103  0.00  0.00    -0.000 C 
ATOM     20  C   UNL     1      32.730  -7.737 -19.467  0.00  0.00    -0.000 C 
ATOM     21  C   UNL     1      32.535  -6.402 -19.112  0.00  0.00    -0.000 C 
ENDBRANCH   6  16
BRANCH   4  22
ATOM     22  C   UNL     1      30.901 -10.980 -23.380  0.00  0.00    +0.250 C 
BRANCH  22  23
ATOM     23  O   UNL     1      30.463 -11.048 -22.031  0.00  0.00    -0.331 OA
ATOM     24  C   UNL     1      31.346 -11.829 -21.236  0.00  0.00    +0.176 C 
ENDBRANCH  22  23
ENDBRANCH   4  22
BRANCH   5  25
ATOM     25  C   UNL     1      35.530  -9.793 -24.350  0.00  0.00    +0.250 C 
BRANCH  25  26
ATOM     26  O   UNL     1      35.695  -9.542 -25.737  0.00  0.00    -0.331 OA
ATOM     27  C   UNL     1      35.566 -10.732 -26.501  0.00  0.00    +0.176 C 
ENDBRANCH  25  26
ENDBRANCH   5  25
TORSDOF 6
ENDMDL
MODEL 8
REMARK VINA RESULT:      -4.9      6.317      9.054
REMARK  Name = 9907289
REMARK  6 active torsions:
REMARK  status: ('A' for Active; 'I' for Inactive)
REMARK    1  A    between atoms: N_4  and  C_22
REMARK    2  A    between atoms: N_5  and  C_25
REMARK    3  A    between atoms: C_6  and  C_10
REMARK    4  A    between atoms: C_6  and  C_16
REMARK    5  A    between atoms: C_22  and  O_23
REMARK    6  A    between atoms: C_25  and  O_26
REMARK                            x       y       z     vdW  Elec       q    Type
REMARK                         _______ _______ _______ _____ _____    ______ ____
ROOT
ATOM      1  O   UNL     1      32.185 -19.802 -21.644  0.00  0.00    -0.273 OA
ATOM      2  O   UNL     1      36.816 -18.621 -21.477  0.00  0.00    -0.273 OA
ATOM      3  O   UNL     1      35.005 -21.621 -18.469  0.00  0.00    -0.251 OA
ATOM      4  N   UNL     1      33.567 -20.606 -19.971  0.00  0.00    -0.185 N 
ATOM      5  N   UNL     1      35.916 -20.235 -20.084  0.00  0.00    -0.185 N 
ATOM      6  C   UNL     1      34.419 -18.882 -21.568  0.00  0.00    +0.176 C 
ATOM      7  C   UNL     1      33.287 -19.810 -21.084  0.00  0.00    +0.249 C 
ATOM      8  C   UNL     1      35.828 -19.236 -21.058  0.00  0.00    +0.249 C 
ATOM      9  C   UNL     1      34.841 -20.870 -19.437  0.00  0.00    +0.322 C 
ENDROOT
BRANCH   6  10
ATOM     10  C   UNL     1      34.545 -18.976 -23.121  0.00  0.00    -0.003 C 
ATOM     11  C   UNL     1      34.308 -17.849 -23.898  0.00  0.00    -0.003 C 
ATOM     12  C   UNL     1      34.892 -20.185 -23.710  0.00  0.00    -0.003 C 
ATOM     13  C   UNL     1      34.419 -17.932 -25.286  0.00  0.00    -0.000 C 
ATOM     14  C   UNL     1      35.004 -20.269 -25.098  0.00  0.00    -0.000 C 
ATOM     15  C   UNL     1      34.767 -19.142 -25.885  0.00  0.00    -0.000 C 
ENDBRANCH   6  10
BRANCH   6  16
ATOM     16  C   UNL     1      34.000 -17.470 -21.058  0.00  0.00    -0.003 C 
ATOM     17  C   UNL     1      34.977 -16.517 -20.796  0.00  0.00    -0.003 C 
ATOM     18  C   UNL     1      32.654 -17.181 -20.870  0.00  0.00    -0.003 C 
ATOM     19  C   UNL     1      34.601 -15.255 -20.339  0.00  0.00    -0.000 C 
ATOM     20  C   UNL     1      32.278 -15.917 -20.413  0.00  0.00    -0.000 C 
ATOM     21  C   UNL     1      33.252 -14.954 -20.148  0.00  0.00    -0.000 C 
ENDBRANCH   6  16
BRANCH   4  22
ATOM     22  C   UNL     1      32.449 -21.326 -19.368  0.00  0.00    +0.250 C 
BRANCH  22  23
ATOM     23  O   UNL     1      32.926 -22.563 -18.860  0.00  0.00    -0.331 OA
ATOM     24  C   UNL     1      32.380 -22.845 -17.578  0.00  0.00    +0.176 C 
ENDBRANCH  22  23
ENDBRANCH   4  22
BRANCH   5  25
ATOM     25  C   UNL     1      37.260 -20.572 -19.617  0.00  0.00    +0.250 C 
BRANCH  25  26
ATOM     26  O   UNL     1      37.469 -19.957 -18.355  0.00  0.00    -0.331 OA
ATOM     27  C   UNL     1      37.531 -20.919 -17.311  0.00  0.00    +0.176 C 
ENDBRANCH  25  26
ENDBRANCH   5  25
TORSDOF 6
ENDMDL
MODEL 9
REMARK VINA RESULT:      -4.2     12.198     15.019
REMARK  Name = 9907289
REMARK  6 active torsions:
REMARK  status: ('A' for Active; 'I' for Inactive)
REMARK    1  A    between atoms: N_4  and  C_22
REMARK    2  A    between atoms: N_5  and  C_25
REMARK    3  A    between atoms: C_6  and  C_10
REMARK    4  A    between atoms: C_6  and  C_16
REMARK    5  A    between atoms: C_22  and  O_23
REMARK    6  A    between atoms: C_25  and  O_26
REMARK                            x       y       z     vdW  Elec       q    Type
REMARK                         _______ _______ _______ _____ _____    ______ ____
ROOT
ATOM      1  O   UNL     1      30.924 -11.748 -23.687  0.00  0.00    -0.273 OA
ATOM      2  O   UNL     1      35.202 -13.845 -23.284  0.00  0.00    -0.273 OA
ATOM      3  O   UNL     1      32.396 -13.422 -19.640  0.00  0.00    -0.251 OA
ATOM      4  N   UNL     1      31.719 -12.463 -21.635  0.00  0.00    -0.185 N 
ATOM      5  N   UNL     1      33.714 -13.758 -21.514  0.00  0.00    -0.185 N 
ATOM      6  C   UNL     1      33.210 -12.533 -23.640  0.00  0.00    +0.176 C 
ATOM      7  C   UNL     1      31.839 -12.222 -23.005  0.00  0.00    +0.249 C 
ATOM      8  C   UNL     1      34.130 -13.448 -22.812  0.00  0.00    +0.249 C 
ATOM      9  C   UNL     1      32.598 -13.225 -20.844  0.00  0.00    +0.322 C 
ENDROOT
BRANCH   6  10
ATOM     10  C   UNL     1      33.003 -13.312 -24.976  0.00  0.00    -0.003 C 
ATOM     11  C   UNL     1      32.880 -14.696 -24.951  0.00  0.00    -0.003 C 
ATOM     12  C   UNL     1      32.943 -12.614 -26.176  0.00  0.00    -0.003 C 
ATOM     13  C   UNL     1      32.696 -15.393 -26.146  0.00  0.00    -0.000 C 
ATOM     14  C   UNL     1      32.759 -13.311 -27.370  0.00  0.00    -0.000 C 
ATOM     15  C   UNL     1      32.636 -14.700 -27.354  0.00  0.00    -0.000 C 
ENDBRANCH   6  10
BRANCH   6  16
ATOM     16  C   UNL     1      33.869 -11.133 -23.827  0.00  0.00    -0.003 C 
ATOM     17  C   UNL     1      34.884 -10.972 -24.763  0.00  0.00    -0.003 C 
ATOM     18  C   UNL     1      33.435 -10.062 -23.056  0.00  0.00    -0.003 C 
ATOM     19  C   UNL     1      35.473  -9.720 -24.930  0.00  0.00    -0.000 C 
ATOM     20  C   UNL     1      34.025  -8.809 -23.223  0.00  0.00    -0.000 C 
ATOM     21  C   UNL     1      35.044  -8.638 -24.160  0.00  0.00    -0.000 C 
ENDBRANCH   6  16
BRANCH   4  22
ATOM     22  C   UNL     1      30.510 -11.976 -20.975  0.00  0.00    +0.250 C 
BRANCH  22  23
ATOM     23  O   UNL     1      30.697 -10.611 -20.636  0.00  0.00    -0.331 OA
ATOM     24  C   UNL     1      30.965 -10.451 -19.249  0.00  0.00    +0.176 C 
ENDBRANCH  22  23
ENDBRANCH   4  22
BRANCH   5  25
ATOM     25  C   UNL     1      34.589 -14.639 -20.743  0.00  0.00    +0.250 C 
BRANCH  25  26
ATOM     26  O   UNL     1      34.061 -15.956 -20.787  0.00  0.00    -0.331 OA
ATOM     27  C   UNL     1      34.986 -16.869 -21.361  0.00  0.00    +0.176 C 
ENDBRANCH  25  26
ENDBRANCH   5  25
TORSDOF 6
ENDMDL
