MODEL 1
REMARK VINA RESULT:      -7.7      0.000      0.000
REMARK  Name = 5168640
REMARK  7 active torsions:
REMARK  status: ('A' for Active; 'I' for Inactive)
REMARK    1  A    between atoms: C_2  and  C_13
REMARK    2  A    between atoms: C_4  and  C_12
REMARK    3  A    between atoms: C_6  and  O_9
REMARK    4  A    between atoms: C_13  and  O_14
REMARK    5  A    between atoms: O_14  and  P_15
REMARK    6  A    between atoms: P_15  and  O_17
REMARK    7  A    between atoms: P_15  and  O_19
REMARK                            x       y       z     vdW  Elec       q    Type
REMARK                         _______ _______ _______ _____ _____    ______ ____
ROOT
ATOM      1  N   UNL     1      36.022 -23.250 -15.323  0.00  0.00    -0.300 N 
ATOM      2  C   UNL     1      37.280 -24.247 -13.588  0.00  0.00    +0.028 C 
ATOM      3  C   UNL     1      34.866 -23.552 -14.715  0.00  0.00    +0.130 C 
ATOM      4  C   UNL     1      36.095 -24.573 -12.935  0.00  0.00    +0.073 C 
ATOM      5  C   UNL     1      37.212 -23.575 -14.800  0.00  0.00    +0.060 C 
ATOM      6  C   UNL     1      34.873 -24.223 -13.501  0.00  0.00    +0.132 C 
ATOM      7  C   UNL     1      36.012 -22.543 -16.603  0.00  0.00    +0.113 C 
ATOM      8  C   UNL     1      33.583 -23.155 -15.365  0.00  0.00    +0.030 C 
ENDROOT
BRANCH   6   9
ATOM      9  O   UNL     1      33.703 -24.533 -12.879  0.00  0.00    -0.508 OA
ATOM     10  H   UNL     1      33.260 -23.888 -12.363  0.00  0.00    +0.292 HD
ENDBRANCH   6   9
BRANCH   4  12
ATOM     11  O   UNL     1      35.394 -25.028 -10.714  0.00  0.00    -0.283 OA
ATOM     12  C   UNL     1      36.131 -25.279 -11.660  0.00  0.00    +0.237 C 
ENDBRANCH   4  12
BRANCH   2  13
ATOM     13  C   UNL     1      38.614 -24.600 -13.022  0.00  0.00    +0.182 C 
BRANCH  13  14
ATOM     14  O   UNL     1      39.584 -24.600 -14.062  0.00  0.00    -0.268 OA
BRANCH  14  15
ATOM     15  P   UNL     1      40.106 -26.023 -14.625  0.00  0.00    +0.473 P 
ATOM     16  O   UNL     1      41.304 -26.586 -13.918  0.00  0.00    -0.227 OA
BRANCH  15  17
ATOM     17  O   UNL     1      40.298 -25.763 -16.210  0.00  0.00    -0.303 OA
ATOM     18  H   UNL     1      40.332 -24.808 -16.379  0.00  0.00    +0.222 HD
ENDBRANCH  15  17
BRANCH  15  19
ATOM     19  O   UNL     1      38.777 -26.943 -14.557  0.00  0.00    -0.303 OA
ATOM     20  H   UNL     1      38.700 -27.333 -13.672  0.00  0.00    +0.222 HD
ENDBRANCH  15  19
ENDBRANCH  14  15
ENDBRANCH  13  14
ENDBRANCH   2  13
TORSDOF 7
ENDMDL
MODEL 2
REMARK VINA RESULT:      -7.5     13.564     15.552
REMARK  Name = 5168640
REMARK  7 active torsions:
REMARK  status: ('A' for Active; 'I' for Inactive)
REMARK    1  A    between atoms: C_2  and  C_13
REMARK    2  A    between atoms: C_4  and  C_12
REMARK    3  A    between atoms: C_6  and  O_9
REMARK    4  A    between atoms: C_13  and  O_14
REMARK    5  A    between atoms: O_14  and  P_15
REMARK    6  A    between atoms: P_15  and  O_17
REMARK    7  A    between atoms: P_15  and  O_19
REMARK                            x       y       z     vdW  Elec       q    Type
REMARK                         _______ _______ _______ _____ _____    ______ ____
ROOT
ATOM      1  N   UNL     1      34.604 -16.366 -22.422  0.00  0.00    -0.300 N 
ATOM      2  C   UNL     1      33.500 -14.660 -23.627  0.00  0.00    +0.028 C 
ATOM      3  C   UNL     1      34.736 -17.118 -23.523  0.00  0.00    +0.130 C 
ATOM      4  C   UNL     1      33.623 -15.419 -24.787  0.00  0.00    +0.073 C 
ATOM      5  C   UNL     1      34.007 -15.167 -22.439  0.00  0.00    +0.060 C 
ATOM      6  C   UNL     1      34.248 -16.662 -24.740  0.00  0.00    +0.132 C 
ATOM      7  C   UNL     1      35.120 -16.850 -21.141  0.00  0.00    +0.113 C 
ATOM      8  C   UNL     1      35.414 -18.443 -23.418  0.00  0.00    +0.030 C 
ENDROOT
BRANCH   6   9
ATOM      9  O   UNL     1      34.377 -17.419 -25.862  0.00  0.00    -0.508 OA
ATOM     10  H   UNL     1      33.691 -18.007 -26.114  0.00  0.00    +0.292 HD
ENDBRANCH   6   9
BRANCH   4  12
ATOM     11  O   UNL     1      33.795 -14.639 -27.022  0.00  0.00    -0.283 OA
ATOM     12  C   UNL     1      33.100 -14.916 -26.052  0.00  0.00    +0.237 C 
ENDBRANCH   4  12
BRANCH   2  13
ATOM     13  C   UNL     1      32.838 -13.323 -23.627  0.00  0.00    +0.182 C 
BRANCH  13  14
ATOM     14  O   UNL     1      33.814 -12.314 -23.393  0.00  0.00    -0.268 OA
BRANCH  14  15
ATOM     15  P   UNL     1      33.789 -10.993 -24.325  0.00  0.00    +0.473 P 
ATOM     16  O   UNL     1      32.656 -10.046 -24.057  0.00  0.00    -0.227 OA
BRANCH  15  17
ATOM     17  O   UNL     1      33.856 -11.582 -25.830  0.00  0.00    -0.303 OA
ATOM     18  H   UNL     1      34.148 -10.883 -26.437  0.00  0.00    +0.222 HD
ENDBRANCH  15  17
BRANCH  15  19
ATOM     19  O   UNL     1      35.265 -10.371 -24.103  0.00  0.00    -0.303 OA
ATOM     20  H   UNL     1      35.863 -11.064 -23.780  0.00  0.00    +0.222 HD
ENDBRANCH  15  19
ENDBRANCH  14  15
ENDBRANCH  13  14
ENDBRANCH   2  13
TORSDOF 7
ENDMDL
MODEL 3
REMARK VINA RESULT:      -7.3      3.067      4.935
REMARK  Name = 5168640
REMARK  7 active torsions:
REMARK  status: ('A' for Active; 'I' for Inactive)
REMARK    1  A    between atoms: C_2  and  C_13
REMARK    2  A    between atoms: C_4  and  C_12
REMARK    3  A    between atoms: C_6  and  O_9
REMARK    4  A    between atoms: C_13  and  O_14
REMARK    5  A    between atoms: O_14  and  P_15
REMARK    6  A    between atoms: P_15  and  O_17
REMARK    7  A    between atoms: P_15  and  O_19
REMARK                            x       y       z     vdW  Elec       q    Type
REMARK                         _______ _______ _______ _____ _____    ______ ____
ROOT
ATOM      1  N   UNL     1      31.704 -24.175 -14.379  0.00  0.00    -0.300 N 
ATOM      2  C   UNL     1      34.027 -23.823 -14.633  0.00  0.00    +0.028 C 
ATOM      3  C   UNL     1      31.450 -23.665 -15.592  0.00  0.00    +0.130 C 
ATOM      4  C   UNL     1      33.793 -23.289 -15.898  0.00  0.00    +0.073 C 
ATOM      5  C   UNL     1      32.946 -24.265 -13.884  0.00  0.00    +0.060 C 
ATOM      6  C   UNL     1      32.492 -23.208 -16.386  0.00  0.00    +0.132 C 
ATOM      7  C   UNL     1      30.603 -24.656 -13.543  0.00  0.00    +0.113 C 
ATOM      8  C   UNL     1      30.038 -23.601 -16.068  0.00  0.00    +0.030 C 
ENDROOT
BRANCH   6   9
ATOM      9  O   UNL     1      32.242 -22.689 -17.619  0.00  0.00    -0.508 OA
ATOM     10  H   UNL     1      32.018 -21.783 -17.710  0.00  0.00    +0.292 HD
ENDBRANCH   6   9
BRANCH   4  12
ATOM     11  O   UNL     1      34.924 -22.845 -17.936  0.00  0.00    -0.283 OA
ATOM     12  C   UNL     1      34.906 -22.816 -16.712  0.00  0.00    +0.237 C 
ENDBRANCH   4  12
BRANCH   2  13
ATOM     13  C   UNL     1      35.402 -23.931 -14.067  0.00  0.00    +0.182 C 
BRANCH  13  14
ATOM     14  O   UNL     1      35.348 -23.753 -12.657  0.00  0.00    -0.268 OA
BRANCH  14  15
ATOM     15  P   UNL     1      36.266 -24.705 -11.728  0.00  0.00    +0.473 P 
ATOM     16  O   UNL     1      37.544 -24.082 -11.245  0.00  0.00    -0.227 OA
BRANCH  15  17
ATOM     17  O   UNL     1      36.443 -26.049 -12.609  0.00  0.00    -0.303 OA
ATOM     18  H   UNL     1      35.853 -26.011 -13.379  0.00  0.00    +0.222 HD
ENDBRANCH  15  17
BRANCH  15  19
ATOM     19  O   UNL     1      35.244 -25.158 -10.559  0.00  0.00    -0.303 OA
ATOM     20  H   UNL     1      35.082 -26.112 -10.624  0.00  0.00    +0.222 HD
ENDBRANCH  15  19
ENDBRANCH  14  15
ENDBRANCH  13  14
ENDBRANCH   2  13
TORSDOF 7
ENDMDL
MODEL 4
REMARK VINA RESULT:      -7.3      2.955      4.555
REMARK  Name = 5168640
REMARK  7 active torsions:
REMARK  status: ('A' for Active; 'I' for Inactive)
REMARK    1  A    between atoms: C_2  and  C_13
REMARK    2  A    between atoms: C_4  and  C_12
REMARK    3  A    between atoms: C_6  and  O_9
REMARK    4  A    between atoms: C_13  and  O_14
REMARK    5  A    between atoms: O_14  and  P_15
REMARK    6  A    between atoms: P_15  and  O_17
REMARK    7  A    between atoms: P_15  and  O_19
REMARK                            x       y       z     vdW  Elec       q    Type
REMARK                         _______ _______ _______ _____ _____    ______ ____
ROOT
ATOM      1  N   UNL     1      32.408 -24.182 -14.778  0.00  0.00    -0.300 N 
ATOM      2  C   UNL     1      34.598 -23.767 -15.564  0.00  0.00    +0.028 C 
ATOM      3  C   UNL     1      31.865 -23.608 -15.860  0.00  0.00    +0.130 C 
ATOM      4  C   UNL     1      34.061 -23.166 -16.699  0.00  0.00    +0.073 C 
ATOM      5  C   UNL     1      33.734 -24.274 -14.604  0.00  0.00    +0.060 C 
ATOM      6  C   UNL     1      32.680 -23.084 -16.853  0.00  0.00    +0.132 C 
ATOM      7  C   UNL     1      31.546 -24.733 -13.732  0.00  0.00    +0.113 C 
ATOM      8  C   UNL     1      30.379 -23.546 -15.976  0.00  0.00    +0.030 C 
ENDROOT
BRANCH   6   9
ATOM      9  O   UNL     1      32.135 -22.500 -17.955  0.00  0.00    -0.508 OA
ATOM     10  H   UNL     1      31.279 -22.749 -18.243  0.00  0.00    +0.292 HD
ENDBRANCH   6   9
BRANCH   4  12
ATOM     11  O   UNL     1      34.795 -22.814 -18.928  0.00  0.00    -0.283 OA
ATOM     12  C   UNL     1      34.941 -22.623 -17.727  0.00  0.00    +0.237 C 
ENDBRANCH   4  12
BRANCH   2  13
ATOM     13  C   UNL     1      36.070 -23.879 -15.355  0.00  0.00    +0.182 C 
BRANCH  13  14
ATOM     14  O   UNL     1      36.448 -25.250 -15.380  0.00  0.00    -0.268 OA
BRANCH  14  15
ATOM     15  P   UNL     1      37.490 -25.779 -14.262  0.00  0.00    +0.473 P 
ATOM     16  O   UNL     1      38.395 -26.890 -14.711  0.00  0.00    -0.227 OA
BRANCH  15  17
ATOM     17  O   UNL     1      36.550 -26.124 -12.992  0.00  0.00    -0.303 OA
ATOM     18  H   UNL     1      35.974 -26.873 -13.211  0.00  0.00    +0.222 HD
ENDBRANCH  15  17
BRANCH  15  19
ATOM     19  O   UNL     1      38.246 -24.423 -13.808  0.00  0.00    -0.303 OA
ATOM     20  H   UNL     1      39.002 -24.264 -14.395  0.00  0.00    +0.222 HD
ENDBRANCH  15  19
ENDBRANCH  14  15
ENDBRANCH  13  14
ENDBRANCH   2  13
TORSDOF 7
ENDMDL
MODEL 5
REMARK VINA RESULT:      -7.2      2.107      3.165
REMARK  Name = 5168640
REMARK  7 active torsions:
REMARK  status: ('A' for Active; 'I' for Inactive)
REMARK    1  A    between atoms: C_2  and  C_13
REMARK    2  A    between atoms: C_4  and  C_12
REMARK    3  A    between atoms: C_6  and  O_9
REMARK    4  A    between atoms: C_13  and  O_14
REMARK    5  A    between atoms: O_14  and  P_15
REMARK    6  A    between atoms: P_15  and  O_17
REMARK    7  A    between atoms: P_15  and  O_19
REMARK                            x       y       z     vdW  Elec       q    Type
REMARK                         _______ _______ _______ _____ _____    ______ ____
ROOT
ATOM      1  N   UNL     1      35.925 -22.090 -17.851  0.00  0.00    -0.300 N 
ATOM      2  C   UNL     1      36.176 -23.129 -15.744  0.00  0.00    +0.028 C 
ATOM      3  C   UNL     1      34.633 -22.439 -17.917  0.00  0.00    +0.130 C 
ATOM      4  C   UNL     1      34.836 -23.505 -15.786  0.00  0.00    +0.073 C 
ATOM      5  C   UNL     1      36.702 -22.411 -16.808  0.00  0.00    +0.060 C 
ATOM      6  C   UNL     1      34.053 -23.158 -16.882  0.00  0.00    +0.132 C 
ATOM      7  C   UNL     1      36.534 -21.332 -18.945  0.00  0.00    +0.113 C 
ATOM      8  C   UNL     1      33.837 -22.042 -19.115  0.00  0.00    +0.030 C 
ENDROOT
BRANCH   6   9
ATOM      9  O   UNL     1      32.741 -23.516 -16.942  0.00  0.00    -0.508 OA
ATOM     10  H   UNL     1      32.497 -24.340 -17.316  0.00  0.00    +0.292 HD
ENDBRANCH   6   9
BRANCH   4  12
ATOM     11  O   UNL     1      33.246 -23.920 -14.073  0.00  0.00    -0.283 OA
ATOM     12  C   UNL     1      34.252 -24.261 -14.684  0.00  0.00    +0.237 C 
ENDBRANCH   4  12
BRANCH   2  13
ATOM     13  C   UNL     1      37.056 -23.478 -14.591  0.00  0.00    +0.182 C 
BRANCH  13  14
ATOM     14  O   UNL     1      38.022 -24.436 -15.007  0.00  0.00    -0.268 OA
BRANCH  14  15
ATOM     15  P   UNL     1      37.809 -25.978 -14.570  0.00  0.00    +0.473 P 
ATOM     16  O   UNL     1      37.060 -26.178 -13.285  0.00  0.00    -0.227 OA
BRANCH  15  17
ATOM     17  O   UNL     1      39.303 -26.596 -14.602  0.00  0.00    -0.303 OA
ATOM     18  H   UNL     1      39.286 -27.460 -15.043  0.00  0.00    +0.222 HD
ENDBRANCH  15  17
BRANCH  15  19
ATOM     19  O   UNL     1      37.110 -26.626 -15.876  0.00  0.00    -0.303 OA
ATOM     20  H   UNL     1      36.664 -27.451 -15.627  0.00  0.00    +0.222 HD
ENDBRANCH  15  19
ENDBRANCH  14  15
ENDBRANCH  13  14
ENDBRANCH   2  13
TORSDOF 7
ENDMDL
MODEL 6
REMARK VINA RESULT:      -7.2      2.745      4.419
REMARK  Name = 5168640
REMARK  7 active torsions:
REMARK  status: ('A' for Active; 'I' for Inactive)
REMARK    1  A    between atoms: C_2  and  C_13
REMARK    2  A    between atoms: C_4  and  C_12
REMARK    3  A    between atoms: C_6  and  O_9
REMARK    4  A    between atoms: C_13  and  O_14
REMARK    5  A    between atoms: O_14  and  P_15
REMARK    6  A    between atoms: P_15  and  O_17
REMARK    7  A    between atoms: P_15  and  O_19
REMARK                            x       y       z     vdW  Elec       q    Type
REMARK                         _______ _______ _______ _____ _____    ______ ____
ROOT
ATOM      1  N   UNL     1      32.751 -23.585 -15.765  0.00  0.00    -0.300 N 
ATOM      2  C   UNL     1      34.575 -24.137 -14.367  0.00  0.00    +0.028 C 
ATOM      3  C   UNL     1      33.568 -23.113 -16.716  0.00  0.00    +0.130 C 
ATOM      4  C   UNL     1      35.447 -23.654 -15.339  0.00  0.00    +0.073 C 
ATOM      5  C   UNL     1      33.210 -24.089 -14.611  0.00  0.00    +0.060 C 
ATOM      6  C   UNL     1      34.943 -23.136 -16.528  0.00  0.00    +0.132 C 
ATOM      7  C   UNL     1      31.302 -23.560 -15.967  0.00  0.00    +0.113 C 
ATOM      8  C   UNL     1      32.975 -22.568 -17.973  0.00  0.00    +0.030 C 
ENDROOT
BRANCH   6   9
ATOM      9  O   UNL     1      35.778 -22.657 -17.489  0.00  0.00    -0.508 OA
ATOM     10  H   UNL     1      36.588 -23.095 -17.668  0.00  0.00    +0.292 HD
ENDBRANCH   6   9
BRANCH   4  12
ATOM     11  O   UNL     1      37.582 -22.693 -14.950  0.00  0.00    -0.283 OA
ATOM     12  C   UNL     1      36.888 -23.689 -15.114  0.00  0.00    +0.237 C 
ENDBRANCH   4  12
BRANCH   2  13
ATOM     13  C   UNL     1      35.068 -24.702 -13.078  0.00  0.00    +0.182 C 
BRANCH  13  14
ATOM     14  O   UNL     1      35.292 -23.643 -12.154  0.00  0.00    -0.268 OA
BRANCH  14  15
ATOM     15  P   UNL     1      36.636 -23.680 -11.257  0.00  0.00    +0.473 P 
ATOM     16  O   UNL     1      37.444 -22.415 -11.268  0.00  0.00    -0.227 OA
BRANCH  15  17
ATOM     17  O   UNL     1      37.412 -24.999 -11.781  0.00  0.00    -0.303 OA
ATOM     18  H   UNL     1      37.225 -25.742 -11.185  0.00  0.00    +0.222 HD
ENDBRANCH  15  17
BRANCH  15  19
ATOM     19  O   UNL     1      36.085 -24.126  -9.804  0.00  0.00    -0.303 OA
ATOM     20  H   UNL     1      36.817 -24.480  -9.275  0.00  0.00    +0.222 HD
ENDBRANCH  15  19
ENDBRANCH  14  15
ENDBRANCH  13  14
ENDBRANCH   2  13
TORSDOF 7
ENDMDL
MODEL 7
REMARK VINA RESULT:      -7.1     12.901     15.254
REMARK  Name = 5168640
REMARK  7 active torsions:
REMARK  status: ('A' for Active; 'I' for Inactive)
REMARK    1  A    between atoms: C_2  and  C_13
REMARK    2  A    between atoms: C_4  and  C_12
REMARK    3  A    between atoms: C_6  and  O_9
REMARK    4  A    between atoms: C_13  and  O_14
REMARK    5  A    between atoms: O_14  and  P_15
REMARK    6  A    between atoms: P_15  and  O_17
REMARK    7  A    between atoms: P_15  and  O_19
REMARK                            x       y       z     vdW  Elec       q    Type
REMARK                         _______ _______ _______ _____ _____    ______ ____
ROOT
ATOM      1  N   UNL     1      34.509 -16.302 -22.354  0.00  0.00    -0.300 N 
ATOM      2  C   UNL     1      33.390 -14.551 -23.482  0.00  0.00    +0.028 C 
ATOM      3  C   UNL     1      34.725 -16.960 -23.501  0.00  0.00    +0.130 C 
ATOM      4  C   UNL     1      33.601 -15.213 -24.688  0.00  0.00    +0.073 C 
ATOM      5  C   UNL     1      33.862 -15.128 -22.312  0.00  0.00    +0.060 C 
ATOM      6  C   UNL     1      34.275 -16.431 -24.703  0.00  0.00    +0.132 C 
ATOM      7  C   UNL     1      34.984 -16.862 -21.089  0.00  0.00    +0.113 C 
ATOM      8  C   UNL     1      35.453 -18.262 -23.462  0.00  0.00    +0.030 C 
ENDROOT
BRANCH   6   9
ATOM      9  O   UNL     1      34.491 -17.094 -25.871  0.00  0.00    -0.508 OA
ATOM     10  H   UNL     1      35.342 -17.089 -26.264  0.00  0.00    +0.292 HD
ENDBRANCH   6   9
BRANCH   4  12
ATOM     11  O   UNL     1      33.658 -14.796 -27.024  0.00  0.00    -0.283 OA
ATOM     12  C   UNL     1      33.118 -14.635 -25.937  0.00  0.00    +0.237 C 
ENDBRANCH   4  12
BRANCH   2  13
ATOM     13  C   UNL     1      32.673 -13.245 -23.416  0.00  0.00    +0.182 C 
BRANCH  13  14
ATOM     14  O   UNL     1      31.987 -13.146 -22.174  0.00  0.00    -0.268 OA
BRANCH  14  15
ATOM     15  P   UNL     1      31.674 -11.672 -21.586  0.00  0.00    +0.473 P 
ATOM     16  O   UNL     1      32.409 -10.550 -22.260  0.00  0.00    -0.227 OA
BRANCH  15  17
ATOM     17  O   UNL     1      31.949 -11.824 -19.999  0.00  0.00    -0.303 OA
ATOM     18  H   UNL     1      31.876 -12.758 -19.747  0.00  0.00    +0.222 HD
ENDBRANCH  15  17
BRANCH  15  19
ATOM     19  O   UNL     1      30.062 -11.586 -21.678  0.00  0.00    -0.303 OA
ATOM     20  H   UNL     1      29.752 -12.123 -22.424  0.00  0.00    +0.222 HD
ENDBRANCH  15  19
ENDBRANCH  14  15
ENDBRANCH  13  14
ENDBRANCH   2  13
TORSDOF 7
ENDMDL
MODEL 8
REMARK VINA RESULT:      -7.0      2.976      4.496
REMARK  Name = 5168640
REMARK  7 active torsions:
REMARK  status: ('A' for Active; 'I' for Inactive)
REMARK    1  A    between atoms: C_2  and  C_13
REMARK    2  A    between atoms: C_4  and  C_12
REMARK    3  A    between atoms: C_6  and  O_9
REMARK    4  A    between atoms: C_13  and  O_14
REMARK    5  A    between atoms: O_14  and  P_15
REMARK    6  A    between atoms: P_15  and  O_17
REMARK    7  A    between atoms: P_15  and  O_19
REMARK                            x       y       z     vdW  Elec       q    Type
REMARK                         _______ _______ _______ _____ _____    ______ ____
ROOT
ATOM      1  N   UNL     1      35.914 -22.678 -16.414  0.00  0.00    -0.300 N 
ATOM      2  C   UNL     1      34.435 -23.535 -14.783  0.00  0.00    +0.028 C 
ATOM      3  C   UNL     1      34.933 -22.595 -17.323  0.00  0.00    +0.130 C 
ATOM      4  C   UNL     1      33.396 -23.459 -15.706  0.00  0.00    +0.073 C 
ATOM      5  C   UNL     1      35.704 -23.132 -15.171  0.00  0.00    +0.060 C 
ATOM      6  C   UNL     1      33.643 -22.984 -16.990  0.00  0.00    +0.132 C 
ATOM      7  C   UNL     1      37.274 -22.267 -16.768  0.00  0.00    +0.113 C 
ATOM      8  C   UNL     1      35.251 -22.079 -18.686  0.00  0.00    +0.030 C 
ENDROOT
BRANCH   6   9
ATOM      9  O   UNL     1      32.641 -22.903 -17.907  0.00  0.00    -0.508 OA
ATOM     10  H   UNL     1      32.831 -23.002 -18.820  0.00  0.00    +0.292 HD
ENDBRANCH   6   9
BRANCH   4  12
ATOM     11  O   UNL     1      31.050 -23.181 -15.473  0.00  0.00    -0.283 OA
ATOM     12  C   UNL     1      32.049 -23.875 -15.331  0.00  0.00    +0.237 C 
ENDBRANCH   4  12
BRANCH   2  13
ATOM     13  C   UNL     1      34.220 -24.037 -13.395  0.00  0.00    +0.182 C 
BRANCH  13  14
ATOM     14  O   UNL     1      35.287 -23.598 -12.563  0.00  0.00    -0.268 OA
BRANCH  14  15
ATOM     15  P   UNL     1      35.999 -24.680 -11.595  0.00  0.00    +0.473 P 
ATOM     16  O   UNL     1      35.200 -25.077 -10.388  0.00  0.00    -0.227 OA
BRANCH  15  17
ATOM     17  O   UNL     1      37.444 -24.024 -11.281  0.00  0.00    -0.303 OA
ATOM     18  H   UNL     1      37.463 -23.707 -10.365  0.00  0.00    +0.222 HD
ENDBRANCH  15  17
BRANCH  15  19
ATOM     19  O   UNL     1      36.352 -25.890 -12.608  0.00  0.00    -0.303 OA
ATOM     20  H   UNL     1      36.348 -26.729 -12.122  0.00  0.00    +0.222 HD
ENDBRANCH  15  19
ENDBRANCH  14  15
ENDBRANCH  13  14
ENDBRANCH   2  13
TORSDOF 7
ENDMDL
MODEL 9
REMARK VINA RESULT:      -6.9      4.534      7.495
REMARK  Name = 5168640
REMARK  7 active torsions:
REMARK  status: ('A' for Active; 'I' for Inactive)
REMARK    1  A    between atoms: C_2  and  C_13
REMARK    2  A    between atoms: C_4  and  C_12
REMARK    3  A    between atoms: C_6  and  O_9
REMARK    4  A    between atoms: C_13  and  O_14
REMARK    5  A    between atoms: O_14  and  P_15
REMARK    6  A    between atoms: P_15  and  O_17
REMARK    7  A    between atoms: P_15  and  O_19
REMARK                            x       y       z     vdW  Elec       q    Type
REMARK                         _______ _______ _______ _____ _____    ______ ____
ROOT
ATOM      1  N   UNL     1      34.699 -23.861 -13.613  0.00  0.00    -0.300 N 
ATOM      2  C   UNL     1      32.850 -23.865 -15.084  0.00  0.00    +0.028 C 
ATOM      3  C   UNL     1      35.525 -23.444 -14.583  0.00  0.00    +0.130 C 
ATOM      4  C   UNL     1      33.684 -23.431 -16.110  0.00  0.00    +0.073 C 
ATOM      5  C   UNL     1      33.394 -24.076 -13.825  0.00  0.00    +0.060 C 
ATOM      6  C   UNL     1      35.037 -23.216 -15.862  0.00  0.00    +0.132 C 
ATOM      7  C   UNL     1      35.217 -24.101 -12.265  0.00  0.00    +0.113 C 
ATOM      8  C   UNL     1      36.966 -23.230 -14.263  0.00  0.00    +0.030 C 
ENDROOT
BRANCH   6   9
ATOM      9  O   UNL     1      35.869 -22.793 -16.851  0.00  0.00    -0.508 OA
ATOM     10  H   UNL     1      35.515 -22.398 -17.625  0.00  0.00    +0.292 HD
ENDBRANCH   6   9
BRANCH   4  12
ATOM     11  O   UNL     1      33.659 -23.616 -18.476  0.00  0.00    -0.283 OA
ATOM     12  C   UNL     1      33.145 -23.199 -17.446  0.00  0.00    +0.237 C 
ENDBRANCH   4  12
BRANCH   2  13
ATOM     13  C   UNL     1      31.395 -24.108 -15.302  0.00  0.00    +0.182 C 
BRANCH  13  14
ATOM     14  O   UNL     1      30.672 -22.911 -15.041  0.00  0.00    -0.268 OA
BRANCH  14  15
ATOM     15  P   UNL     1      29.181 -22.768 -15.651  0.00  0.00    +0.473 P 
ATOM     16  O   UNL     1      28.307 -21.759 -14.964  0.00  0.00    -0.227 OA
BRANCH  15  17
ATOM     17  O   UNL     1      28.618 -24.284 -15.651  0.00  0.00    -0.303 OA
ATOM     18  H   UNL     1      29.303 -24.883 -15.988  0.00  0.00    +0.222 HD
ENDBRANCH  15  17
BRANCH  15  19
ATOM     19  O   UNL     1      29.461 -22.475 -17.216  0.00  0.00    -0.303 OA
ATOM     20  H   UNL     1      28.635 -22.569 -17.715  0.00  0.00    +0.222 HD
ENDBRANCH  15  19
ENDBRANCH  14  15
ENDBRANCH  13  14
ENDBRANCH   2  13
TORSDOF 7
ENDMDL
